MODEL 1
REMARK VINA RESULT:      -7.3      0.000      0.000
REMARK  Name = 
REMARK  13 active torsions:
REMARK  status: ('A' for Active; 'I' for Inactive)
REMARK    1  A    between atoms: C_1  and  C_2
REMARK    2  A    between atoms: C_2  and  N_3
REMARK    3  A    between atoms: N_3  and  C_4
REMARK    4  A    between atoms: N_3  and  C_31
REMARK    5  A    between atoms: C_7  and  N_8
REMARK    6  A    between atoms: C_9  and  C_11
REMARK    7  A    between atoms: C_11  and  O_12
REMARK    8  A    between atoms: O_12  and  C_13
REMARK    9  A    between atoms: C_13  and  C_15
REMARK   10  A    between atoms: C_15  and  C_16
REMARK   11  A    between atoms: C_15  and  N_17
REMARK   12  A    between atoms: C_31  and  C_32
REMARK   13  A    between atoms: C_31  and  C_33
REMARK                            x       y       z     vdW  Elec       q    Type
REMARK                         _______ _______ _______ _____ _____    ______ ____
ROOT
ATOM      1  O   UNL     1       2.991   2.382  20.157  0.00  0.00    +0.000 OA
ENDROOT
BRANCH   1   2
ATOM      2  C   UNL     1       4.032   2.783  19.377  0.00  0.00    +0.000 C 
ATOM      3  O   UNL     1       5.174   2.925  19.809  0.00  0.00    +0.000 OA
BRANCH   2   4
ATOM      4  C   UNL     1       3.642   2.938  17.882  0.00  0.00    +0.000 C 
ATOM      5  C   UNL     1       2.258   2.351  17.578  0.00  0.00    +0.000 C 
BRANCH   4   6
ATOM      6  N   UNL     1       3.774   4.330  17.327  0.00  0.00    +0.000 N 
ATOM      7  C   UNL     1       5.002   4.774  16.879  0.00  0.00    +0.000 C 
ATOM      8  N   UNL     1       5.876   3.931  16.409  0.00  0.00    +0.000 NA
ATOM      9  S   UNL     1       7.342   4.637  16.272  0.00  0.00    +0.000 S 
ATOM     10  O   UNL     1       8.307   3.954  17.103  0.00  0.00    +0.000 OA
ATOM     11  O   UNL     1       7.596   5.008  14.900  0.00  0.00    +0.000 OA
ATOM     12  C   UNL     1       6.893   6.103  17.092  0.00  0.00    +0.000 A 
ATOM     13  C   UNL     1       7.733   7.124  17.489  0.00  0.00    +0.000 A 
ATOM     14  C   UNL     1       7.146   8.369  17.664  0.00  0.00    +0.000 A 
ATOM     15  C   UNL     1       5.772   8.535  17.399  0.00  0.00    +0.000 A 
ATOM     16  C   UNL     1       4.930   7.427  17.139  0.00  0.00    +0.000 A 
ATOM     17  C   UNL     1       5.512   6.174  17.065  0.00  0.00    +0.000 A 
ATOM     18  H   UNL     1       3.244   5.000  17.885  0.00  0.00    +0.000 HD
ENDBRANCH   4   6
ENDBRANCH   2   4
ENDBRANCH   1   2
BRANCH   1  19
ATOM     19  C   UNL     1       2.588   3.268  21.204  0.00  0.00    +0.000 C 
BRANCH  19  21
ATOM     20  N   UNL     1       2.433   5.708  20.864  0.00  0.00    +0.000 N 
ATOM     21  C   UNL     1       1.757   4.497  20.789  0.00  0.00    +0.000 C 
ATOM     22  O   UNL     1       0.600   4.343  20.403  0.00  0.00    +0.000 OA
ATOM     23  H   UNL     1       3.383   5.678  21.228  0.00  0.00    +0.000 HD
BRANCH  20  27
ATOM     24  C   UNL     1       0.891   9.595  19.832  0.00  0.00    +0.000 A 
ATOM     25  C   UNL     1       1.699   8.880  18.946  0.00  0.00    +0.000 A 
ATOM     26  C   UNL     1       2.206   7.598  19.266  0.00  0.00    +0.000 A 
ATOM     27  C   UNL     1       1.930   6.988  20.483  0.00  0.00    +0.000 A 
ATOM     28  C   UNL     1       1.172   7.713  21.412  0.00  0.00    +0.000 A 
ATOM     29  C   UNL     1       0.659   8.990  21.081  0.00  0.00    +0.000 A 
BRANCH  24  30
ATOM     30  N   UNL     1       0.353  10.863  19.531  0.00  0.00    +0.000 N 
BRANCH  30  31
ATOM     31  C   UNL     1       1.287  12.002  19.827  0.00  0.00    +0.000 C 
ATOM     32  C   UNL     1       1.866  12.613  18.544  0.00  0.00    +0.000 C 
ATOM     33  C   UNL     1       0.622  13.121  20.646  0.00  0.00    +0.000 C 
ENDBRANCH  30  31
BRANCH  30  35
ATOM     34  C   UNL     1      -1.756  11.912  18.529  0.00  0.00    +0.000 C 
ATOM     35  C   UNL     1      -0.519  11.040  18.344  0.00  0.00    +0.000 C 
ENDBRANCH  30  35
ENDBRANCH  24  30
ENDBRANCH  20  27
ENDBRANCH  19  21
ENDBRANCH   1  19
TORSDOF 9
ENDMDL
MODEL 2
REMARK VINA RESULT:      -7.2      2.464      4.933
REMARK  Name = 
REMARK  13 active torsions:
REMARK  status: ('A' for Active; 'I' for Inactive)
REMARK    1  A    between atoms: C_1  and  C_2
REMARK    2  A    between atoms: C_2  and  N_3
REMARK    3  A    between atoms: N_3  and  C_4
REMARK    4  A    between atoms: N_3  and  C_31
REMARK    5  A    between atoms: C_7  and  N_8
REMARK    6  A    between atoms: C_9  and  C_11
REMARK    7  A    between atoms: C_11  and  O_12
REMARK    8  A    between atoms: O_12  and  C_13
REMARK    9  A    between atoms: C_13  and  C_15
REMARK   10  A    between atoms: C_15  and  C_16
REMARK   11  A    between atoms: C_15  and  N_17
REMARK   12  A    between atoms: C_31  and  C_32
REMARK   13  A    between atoms: C_31  and  C_33
REMARK                            x       y       z     vdW  Elec       q    Type
REMARK                         _______ _______ _______ _____ _____    ______ ____
ROOT
ATOM      1  O   UNL     1       4.316   6.204  18.061  0.00  0.00    +0.000 OA
ENDROOT
BRANCH   1   2
ATOM      2  C   UNL     1       5.627   6.152  17.695  0.00  0.00    +0.000 C 
ATOM      3  O   UNL     1       6.329   7.154  17.579  0.00  0.00    +0.000 OA
BRANCH   2   4
ATOM      4  C   UNL     1       6.154   4.699  17.546  0.00  0.00    +0.000 C 
ATOM      5  C   UNL     1       7.685   4.639  17.477  0.00  0.00    +0.000 C 
BRANCH   4   6
ATOM      6  N   UNL     1       5.618   3.716  18.552  0.00  0.00    +0.000 N 
ATOM      7  C   UNL     1       4.299   3.317  18.482  0.00  0.00    +0.000 C 
ATOM      8  N   UNL     1       3.676   3.297  17.339  0.00  0.00    +0.000 NA
ATOM      9  S   UNL     1       2.067   3.128  17.561  0.00  0.00    +0.000 S 
ATOM     10  O   UNL     1       1.364   4.270  17.025  0.00  0.00    +0.000 OA
ATOM     11  O   UNL     1       1.667   1.763  17.319  0.00  0.00    +0.000 OA
ATOM     12  C   UNL     1       2.123   3.314  19.290  0.00  0.00    +0.000 A 
ATOM     13  C   UNL     1       1.048   3.443  20.146  0.00  0.00    +0.000 A 
ATOM     14  C   UNL     1       1.272   3.089  21.470  0.00  0.00    +0.000 A 
ATOM     15  C   UNL     1       2.534   2.594  21.854  0.00  0.00    +0.000 A 
ATOM     16  C   UNL     1       3.640   2.623  20.971  0.00  0.00    +0.000 A 
ATOM     17  C   UNL     1       3.427   3.073  19.680  0.00  0.00    +0.000 A 
ATOM     18  H   UNL     1       5.963   3.926  19.489  0.00  0.00    +0.000 HD
ENDBRANCH   4   6
ENDBRANCH   2   4
ENDBRANCH   1   2
BRANCH   1  19
ATOM     19  C   UNL     1       3.562   7.328  17.603  0.00  0.00    +0.000 C 
BRANCH  19  21
ATOM     20  N   UNL     1       1.994   9.134  18.213  0.00  0.00    +0.000 N 
ATOM     21  C   UNL     1       2.506   7.894  18.572  0.00  0.00    +0.000 C 
ATOM     22  O   UNL     1       2.170   7.235  19.553  0.00  0.00    +0.000 OA
ATOM     23  H   UNL     1       2.391   9.569  17.383  0.00  0.00    +0.000 HD
BRANCH  20  27
ATOM     24  C   UNL     1      -1.188  11.282  20.166  0.00  0.00    +0.000 A 
ATOM     25  C   UNL     1      -0.015  10.953  20.848  0.00  0.00    +0.000 A 
ATOM     26  C   UNL     1       1.044  10.255  20.218  0.00  0.00    +0.000 A 
ATOM     27  C   UNL     1       0.966   9.857  18.889  0.00  0.00    +0.000 A 
ATOM     28  C   UNL     1      -0.227  10.123  18.204  0.00  0.00    +0.000 A 
ATOM     29  C   UNL     1      -1.277  10.831  18.836  0.00  0.00    +0.000 A 
BRANCH  24  30
ATOM     30  N   UNL     1      -2.249  11.995  20.760  0.00  0.00    +0.000 N 
BRANCH  30  31
ATOM     31  C   UNL     1      -1.900  12.601  22.091  0.00  0.00    +0.000 C 
ATOM     32  C   UNL     1      -2.002  14.132  22.065  0.00  0.00    +0.000 C 
ATOM     33  C   UNL     1      -2.778  12.070  23.236  0.00  0.00    +0.000 C 
ENDBRANCH  30  31
BRANCH  30  35
ATOM     34  C   UNL     1      -4.667  12.546  20.128  0.00  0.00    +0.000 C 
ATOM     35  C   UNL     1      -3.177  12.789  19.917  0.00  0.00    +0.000 C 
ENDBRANCH  30  35
ENDBRANCH  24  30
ENDBRANCH  20  27
ENDBRANCH  19  21
ENDBRANCH   1  19
TORSDOF 9
ENDMDL
MODEL 3
REMARK VINA RESULT:      -7.0      2.759      3.983
REMARK  Name = 
REMARK  13 active torsions:
REMARK  status: ('A' for Active; 'I' for Inactive)
REMARK    1  A    between atoms: C_1  and  C_2
REMARK    2  A    between atoms: C_2  and  N_3
REMARK    3  A    between atoms: N_3  and  C_4
REMARK    4  A    between atoms: N_3  and  C_31
REMARK    5  A    between atoms: C_7  and  N_8
REMARK    6  A    between atoms: C_9  and  C_11
REMARK    7  A    between atoms: C_11  and  O_12
REMARK    8  A    between atoms: O_12  and  C_13
REMARK    9  A    between atoms: C_13  and  C_15
REMARK   10  A    between atoms: C_15  and  C_16
REMARK   11  A    between atoms: C_15  and  N_17
REMARK   12  A    between atoms: C_31  and  C_32
REMARK   13  A    between atoms: C_31  and  C_33
REMARK                            x       y       z     vdW  Elec       q    Type
REMARK                         _______ _______ _______ _____ _____    ______ ____
ROOT
ATOM      1  O   UNL     1       2.827   6.025  18.706  0.00  0.00    +0.000 OA
ENDROOT
BRANCH   1   2
ATOM      2  C   UNL     1       2.269   4.800  18.500  0.00  0.00    +0.000 C 
ATOM      3  O   UNL     1       1.149   4.648  18.019  0.00  0.00    +0.000 OA
BRANCH   2   4
ATOM      4  C   UNL     1       3.235   3.632  18.839  0.00  0.00    +0.000 C 
ATOM      5  C   UNL     1       2.530   2.491  19.583  0.00  0.00    +0.000 C 
BRANCH   4   6
ATOM      6  N   UNL     1       4.038   3.107  17.679  0.00  0.00    +0.000 N 
ATOM      7  C   UNL     1       5.293   3.623  17.428  0.00  0.00    +0.000 C 
ATOM      8  N   UNL     1       6.016   4.100  18.400  0.00  0.00    +0.000 NA
ATOM      9  S   UNL     1       7.283   4.948  17.814  0.00  0.00    +0.000 S 
ATOM     10  O   UNL     1       7.212   6.323  18.250  0.00  0.00    +0.000 OA
ATOM     11  O   UNL     1       8.489   4.157  17.875  0.00  0.00    +0.000 OA
ATOM     12  C   UNL     1       6.758   4.898  16.157  0.00  0.00    +0.000 A 
ATOM     13  C   UNL     1       7.303   5.587  15.092  0.00  0.00    +0.000 A 
ATOM     14  C   UNL     1       7.075   5.050  13.832  0.00  0.00    +0.000 A 
ATOM     15  C   UNL     1       6.354   3.845  13.709  0.00  0.00    +0.000 A 
ATOM     16  C   UNL     1       5.693   3.263  14.816  0.00  0.00    +0.000 A 
ATOM     17  C   UNL     1       5.846   3.864  16.053  0.00  0.00    +0.000 A 
ATOM     18  H   UNL     1       3.449   2.970  16.857  0.00  0.00    +0.000 HD
ENDBRANCH   4   6
ENDBRANCH   2   4
ENDBRANCH   1   2
BRANCH   1  19
ATOM     19  C   UNL     1       2.666   6.598  20.005  0.00  0.00    +0.000 C 
BRANCH  19  21
ATOM     20  N   UNL     1       1.299   8.138  21.366  0.00  0.00    +0.000 N 
ATOM     21  C   UNL     1       1.796   7.866  20.098  0.00  0.00    +0.000 C 
ATOM     22  O   UNL     1       1.618   8.554  19.094  0.00  0.00    +0.000 OA
ATOM     23  H   UNL     1       1.512   7.460  22.094  0.00  0.00    +0.000 HD
BRANCH  20  27
ATOM     24  C   UNL     1      -1.036  11.605  22.408  0.00  0.00    +0.000 A 
ATOM     25  C   UNL     1      -1.038  10.464  23.213  0.00  0.00    +0.000 A 
ATOM     26  C   UNL     1      -0.269   9.320  22.890  0.00  0.00    +0.000 A 
ATOM     27  C   UNL     1       0.523   9.273  21.749  0.00  0.00    +0.000 A 
ATOM     28  C   UNL     1       0.492  10.383  20.895  0.00  0.00    +0.000 A 
ATOM     29  C   UNL     1      -0.270  11.528  21.230  0.00  0.00    +0.000 A 
BRANCH  24  30
ATOM     30  N   UNL     1      -1.772  12.766  22.717  0.00  0.00    +0.000 N 
BRANCH  30  31
ATOM     31  C   UNL     1      -3.225  12.504  23.001  0.00  0.00    +0.000 C 
ATOM     32  C   UNL     1      -3.722  13.303  24.214  0.00  0.00    +0.000 C 
ATOM     33  C   UNL     1      -4.133  12.817  21.802  0.00  0.00    +0.000 C 
ENDBRANCH  30  31
BRANCH  30  35
ATOM     34  C   UNL     1      -0.278  14.844  22.745  0.00  0.00    +0.000 C 
ATOM     35  C   UNL     1      -1.149  13.855  23.510  0.00  0.00    +0.000 C 
ENDBRANCH  30  35
ENDBRANCH  24  30
ENDBRANCH  20  27
ENDBRANCH  19  21
ENDBRANCH   1  19
TORSDOF 9
ENDMDL
MODEL 4
REMARK VINA RESULT:      -7.0      0.781      1.156
REMARK  Name = 
REMARK  13 active torsions:
REMARK  status: ('A' for Active; 'I' for Inactive)
REMARK    1  A    between atoms: C_1  and  C_2
REMARK    2  A    between atoms: C_2  and  N_3
REMARK    3  A    between atoms: N_3  and  C_4
REMARK    4  A    between atoms: N_3  and  C_31
REMARK    5  A    between atoms: C_7  and  N_8
REMARK    6  A    between atoms: C_9  and  C_11
REMARK    7  A    between atoms: C_11  and  O_12
REMARK    8  A    between atoms: O_12  and  C_13
REMARK    9  A    between atoms: C_13  and  C_15
REMARK   10  A    between atoms: C_15  and  C_16
REMARK   11  A    between atoms: C_15  and  N_17
REMARK   12  A    between atoms: C_31  and  C_32
REMARK   13  A    between atoms: C_31  and  C_33
REMARK                            x       y       z     vdW  Elec       q    Type
REMARK                         _______ _______ _______ _____ _____    ______ ____
ROOT
ATOM      1  O   UNL     1       2.764   3.043  20.267  0.00  0.00    +0.000 OA
ENDROOT
BRANCH   1   2
ATOM      2  C   UNL     1       3.883   2.710  19.567  0.00  0.00    +0.000 C 
ATOM      3  O   UNL     1       4.920   2.329  20.106  0.00  0.00    +0.000 OA
BRANCH   2   4
ATOM      4  C   UNL     1       3.672   2.765  18.029  0.00  0.00    +0.000 C 
ATOM      5  C   UNL     1       2.395   2.037  17.591  0.00  0.00    +0.000 C 
BRANCH   4   6
ATOM      6  N   UNL     1       3.748   4.139  17.422  0.00  0.00    +0.000 N 
ATOM      7  C   UNL     1       4.960   4.620  16.970  0.00  0.00    +0.000 C 
ATOM      8  N   UNL     1       5.877   3.801  16.543  0.00  0.00    +0.000 NA
ATOM      9  S   UNL     1       7.312   4.567  16.394  0.00  0.00    +0.000 S 
ATOM     10  O   UNL     1       8.296   3.962  17.261  0.00  0.00    +0.000 OA
ATOM     11  O   UNL     1       7.565   4.896  15.011  0.00  0.00    +0.000 OA
ATOM     12  C   UNL     1       6.786   6.042  17.151  0.00  0.00    +0.000 A 
ATOM     13  C   UNL     1       7.574   7.114  17.517  0.00  0.00    +0.000 A 
ATOM     14  C   UNL     1       6.930   8.338  17.637  0.00  0.00    +0.000 A 
ATOM     15  C   UNL     1       5.553   8.430  17.351  0.00  0.00    +0.000 A 
ATOM     16  C   UNL     1       4.766   7.276  17.126  0.00  0.00    +0.000 A 
ATOM     17  C   UNL     1       5.404   6.049  17.107  0.00  0.00    +0.000 A 
ATOM     18  H   UNL     1       3.181   4.805  17.947  0.00  0.00    +0.000 HD
ENDBRANCH   4   6
ENDBRANCH   2   4
ENDBRANCH   1   2
BRANCH   1  19
ATOM     19  C   UNL     1       2.817   4.246  21.037  0.00  0.00    +0.000 C 
BRANCH  19  21
ATOM     20  N   UNL     1       2.261   6.631  20.735  0.00  0.00    +0.000 N 
ATOM     21  C   UNL     1       1.777   5.331  20.697  0.00  0.00    +0.000 C 
ATOM     22  O   UNL     1       0.632   4.999  20.398  0.00  0.00    +0.000 OA
ATOM     23  H   UNL     1       3.229   6.750  21.025  0.00  0.00    +0.000 HD
BRANCH  20  27
ATOM     24  C   UNL     1       0.112  10.195  19.621  0.00  0.00    +0.000 A 
ATOM     25  C   UNL     1      -0.129   9.557  20.839  0.00  0.00    +0.000 A 
ATOM     26  C   UNL     1       0.574   8.390  21.224  0.00  0.00    +0.000 A 
ATOM     27  C   UNL     1       1.539   7.817  20.405  0.00  0.00    +0.000 A 
ATOM     28  C   UNL     1       1.754   8.405  19.151  0.00  0.00    +0.000 A 
ATOM     29  C   UNL     1       1.055   9.578  18.777  0.00  0.00    +0.000 A 
BRANCH  24  30
ATOM     30  N   UNL     1      -0.556  11.370  19.221  0.00  0.00    +0.000 N 
BRANCH  30  31
ATOM     31  C   UNL     1       0.244  12.624  19.438  0.00  0.00    +0.000 C 
ATOM     32  C   UNL     1      -0.116  13.713  18.419  0.00  0.00    +0.000 C 
ATOM     33  C   UNL     1       0.076  13.201  20.853  0.00  0.00    +0.000 C 
ENDBRANCH  30  31
BRANCH  30  35
ATOM     34  C   UNL     1      -2.918  11.187  18.252  0.00  0.00    +0.000 C 
ATOM     35  C   UNL     1      -1.422  11.362  18.016  0.00  0.00    +0.000 C 
ENDBRANCH  30  35
ENDBRANCH  24  30
ENDBRANCH  20  27
ENDBRANCH  19  21
ENDBRANCH   1  19
TORSDOF 9
ENDMDL
MODEL 5
REMARK VINA RESULT:      -7.0      2.470      3.884
REMARK  Name = 
REMARK  13 active torsions:
REMARK  status: ('A' for Active; 'I' for Inactive)
REMARK    1  A    between atoms: C_1  and  C_2
REMARK    2  A    between atoms: C_2  and  N_3
REMARK    3  A    between atoms: N_3  and  C_4
REMARK    4  A    between atoms: N_3  and  C_31
REMARK    5  A    between atoms: C_7  and  N_8
REMARK    6  A    between atoms: C_9  and  C_11
REMARK    7  A    between atoms: C_11  and  O_12
REMARK    8  A    between atoms: O_12  and  C_13
REMARK    9  A    between atoms: C_13  and  C_15
REMARK   10  A    between atoms: C_15  and  C_16
REMARK   11  A    between atoms: C_15  and  N_17
REMARK   12  A    between atoms: C_31  and  C_32
REMARK   13  A    between atoms: C_31  and  C_33
REMARK                            x       y       z     vdW  Elec       q    Type
REMARK                         _______ _______ _______ _____ _____    ______ ____
ROOT
ATOM      1  O   UNL     1       3.331   6.688  19.046  0.00  0.00    +0.000 OA
ENDROOT
BRANCH   1   2
ATOM      2  C   UNL     1       2.716   5.782  19.855  0.00  0.00    +0.000 C 
ATOM      3  O   UNL     1       1.599   5.964  20.333  0.00  0.00    +0.000 OA
BRANCH   2   4
ATOM      4  C   UNL     1       3.528   4.468  20.017  0.00  0.00    +0.000 C 
ATOM      5  C   UNL     1       2.820   3.455  20.927  0.00  0.00    +0.000 C 
BRANCH   4   6
ATOM      6  N   UNL     1       3.968   3.824  18.729  0.00  0.00    +0.000 N 
ATOM      7  C   UNL     1       5.218   4.106  18.218  0.00  0.00    +0.000 C 
ATOM      8  N   UNL     1       6.199   4.427  19.012  0.00  0.00    +0.000 NA
ATOM      9  S   UNL     1       7.453   5.038  18.163  0.00  0.00    +0.000 S 
ATOM     10  O   UNL     1       7.723   6.396  18.574  0.00  0.00    +0.000 OA
ATOM     11  O   UNL     1       8.481   4.038  17.995  0.00  0.00    +0.000 OA
ATOM     12  C   UNL     1       6.601   5.112  16.648  0.00  0.00    +0.000 A 
ATOM     13  C   UNL     1       7.034   5.706  15.480  0.00  0.00    +0.000 A 
ATOM     14  C   UNL     1       6.461   5.240  14.305  0.00  0.00    +0.000 A 
ATOM     15  C   UNL     1       5.523   4.190  14.356  0.00  0.00    +0.000 A 
ATOM     16  C   UNL     1       5.006   3.720  15.588  0.00  0.00    +0.000 A 
ATOM     17  C   UNL     1       5.514   4.263  16.754  0.00  0.00    +0.000 A 
ATOM     18  H   UNL     1       3.209   3.810  18.048  0.00  0.00    +0.000 HD
ENDBRANCH   4   6
ENDBRANCH   2   4
ENDBRANCH   1   2
BRANCH   1  19
ATOM     19  C   UNL     1       2.557   7.226  17.971  0.00  0.00    +0.000 C 
BRANCH  19  21
ATOM     20  N   UNL     1       1.112   8.702  19.323  0.00  0.00    +0.000 N 
ATOM     21  C   UNL     1       1.926   8.613  18.201  0.00  0.00    +0.000 C 
ATOM     22  O   UNL     1       2.187   9.533  17.428  0.00  0.00    +0.000 OA
ATOM     23  H   UNL     1       0.971   7.845  19.854  0.00  0.00    +0.000 HD
BRANCH  20  27
ATOM     24  C   UNL     1      -0.969  12.205  20.718  0.00  0.00    +0.000 A 
ATOM     25  C   UNL     1       0.172  11.735  21.371  0.00  0.00    +0.000 A 
ATOM     26  C   UNL     1       0.872  10.591  20.920  0.00  0.00    +0.000 A 
ATOM     27  C   UNL     1       0.456   9.873  19.806  0.00  0.00    +0.000 A 
ATOM     28  C   UNL     1      -0.722  10.291  19.172  0.00  0.00    +0.000 A 
ATOM     29  C   UNL     1      -1.411  11.442  19.621  0.00  0.00    +0.000 A 
BRANCH  24  30
ATOM     30  N   UNL     1      -1.674  13.355  21.130  0.00  0.00    +0.000 N 
BRANCH  30  31
ATOM     31  C   UNL     1      -1.896  13.429  22.614  0.00  0.00    +0.000 C 
ATOM     32  C   UNL     1      -2.561  14.749  23.027  0.00  0.00    +0.000 C 
ATOM     33  C   UNL     1      -2.744  12.264  23.150  0.00  0.00    +0.000 C 
ENDBRANCH  30  31
BRANCH  30  35
ATOM     34  C   UNL     1      -0.034  15.228  20.536  0.00  0.00    +0.000 C 
ATOM     35  C   UNL     1      -1.444  14.653  20.450  0.00  0.00    +0.000 C 
ENDBRANCH  30  35
ENDBRANCH  24  30
ENDBRANCH  20  27
ENDBRANCH  19  21
ENDBRANCH   1  19
TORSDOF 9
ENDMDL
MODEL 6
REMARK VINA RESULT:      -6.8      4.808      7.806
REMARK  Name = 
REMARK  13 active torsions:
REMARK  status: ('A' for Active; 'I' for Inactive)
REMARK    1  A    between atoms: C_1  and  C_2
REMARK    2  A    between atoms: C_2  and  N_3
REMARK    3  A    between atoms: N_3  and  C_4
REMARK    4  A    between atoms: N_3  and  C_31
REMARK    5  A    between atoms: C_7  and  N_8
REMARK    6  A    between atoms: C_9  and  C_11
REMARK    7  A    between atoms: C_11  and  O_12
REMARK    8  A    between atoms: O_12  and  C_13
REMARK    9  A    between atoms: C_13  and  C_15
REMARK   10  A    between atoms: C_15  and  C_16
REMARK   11  A    between atoms: C_15  and  N_17
REMARK   12  A    between atoms: C_31  and  C_32
REMARK   13  A    between atoms: C_31  and  C_33
REMARK                            x       y       z     vdW  Elec       q    Type
REMARK                         _______ _______ _______ _____ _____    ______ ____
ROOT
ATOM      1  O   UNL     1       7.416   6.074  17.233  0.00  0.00    +0.000 OA
ENDROOT
BRANCH   1   2
ATOM      2  C   UNL     1       6.700   4.941  17.475  0.00  0.00    +0.000 C 
ATOM      3  O   UNL     1       6.685   4.382  18.569  0.00  0.00    +0.000 OA
BRANCH   2   4
ATOM      4  C   UNL     1       5.836   4.501  16.262  0.00  0.00    +0.000 C 
ATOM      5  C   UNL     1       6.622   3.632  15.273  0.00  0.00    +0.000 C 
BRANCH   4   6
ATOM      6  N   UNL     1       4.517   3.867  16.612  0.00  0.00    +0.000 N 
ATOM      7  C   UNL     1       3.582   4.587  17.328  0.00  0.00    +0.000 C 
ATOM      8  N   UNL     1       3.538   5.885  17.238  0.00  0.00    +0.000 NA
ATOM      9  S   UNL     1       2.599   6.514  18.416  0.00  0.00    +0.000 S 
ATOM     10  O   UNL     1       3.375   7.391  19.262  0.00  0.00    +0.000 OA
ATOM     11  O   UNL     1       1.299   6.861  17.893  0.00  0.00    +0.000 OA
ATOM     12  C   UNL     1       2.389   5.015  19.273  0.00  0.00    +0.000 A 
ATOM     13  C   UNL     1       1.807   4.841  20.512  0.00  0.00    +0.000 A 
ATOM     14  C   UNL     1       1.304   3.576  20.783  0.00  0.00    +0.000 A 
ATOM     15  C   UNL     1       1.376   2.572  19.795  0.00  0.00    +0.000 A 
ATOM     16  C   UNL     1       2.113   2.761  18.602  0.00  0.00    +0.000 A 
ATOM     17  C   UNL     1       2.695   3.998  18.388  0.00  0.00    +0.000 A 
ATOM     18  H   UNL     1       4.641   2.898  16.905  0.00  0.00    +0.000 HD
ENDBRANCH   4   6
ENDBRANCH   2   4
ENDBRANCH   1   2
BRANCH   1  19
ATOM     19  C   UNL     1       7.967   6.746  18.367  0.00  0.00    +0.000 C 
BRANCH  19  21
ATOM     20  N   UNL     1       9.000   8.827  19.200  0.00  0.00    +0.000 N 
ATOM     21  C   UNL     1       8.168   8.268  18.239  0.00  0.00    +0.000 C 
ATOM     22  O   UNL     1       7.626   8.875  17.317  0.00  0.00    +0.000 OA
ATOM     23  H   UNL     1       9.356   8.198  19.917  0.00  0.00    +0.000 HD
BRANCH  20  27
ATOM     24  C   UNL     1      10.211  12.959  19.324  0.00  0.00    +0.000 A 
ATOM     25  C   UNL     1       9.843  12.279  20.487  0.00  0.00    +0.000 A 
ATOM     26  C   UNL     1       9.451  10.919  20.464  0.00  0.00    +0.000 A 
ATOM     27  C   UNL     1       9.408  10.192  19.281  0.00  0.00    +0.000 A 
ATOM     28  C   UNL     1       9.715  10.871  18.094  0.00  0.00    +0.000 A 
ATOM     29  C   UNL     1      10.117  12.228  18.125  0.00  0.00    +0.000 A 
BRANCH  24  30
ATOM     30  N   UNL     1      10.628  14.305  19.319  0.00  0.00    +0.000 N 
BRANCH  30  31
ATOM     31  C   UNL     1       9.952  15.152  20.360  0.00  0.00    +0.000 C 
ATOM     32  C   UNL     1      10.967  15.904  21.231  0.00  0.00    +0.000 C 
ATOM     33  C   UNL     1       8.972  16.171  19.756  0.00  0.00    +0.000 C 
ENDBRANCH  30  31
BRANCH  30  35
ATOM     34  C   UNL     1      12.331  15.305  17.691  0.00  0.00    +0.000 C 
ATOM     35  C   UNL     1      12.044  14.646  19.035  0.00  0.00    +0.000 C 
ENDBRANCH  30  35
ENDBRANCH  24  30
ENDBRANCH  20  27
ENDBRANCH  19  21
ENDBRANCH   1  19
TORSDOF 9
ENDMDL
MODEL 7
REMARK VINA RESULT:      -6.8      5.174     10.660
REMARK  Name = 
REMARK  13 active torsions:
REMARK  status: ('A' for Active; 'I' for Inactive)
REMARK    1  A    between atoms: C_1  and  C_2
REMARK    2  A    between atoms: C_2  and  N_3
REMARK    3  A    between atoms: N_3  and  C_4
REMARK    4  A    between atoms: N_3  and  C_31
REMARK    5  A    between atoms: C_7  and  N_8
REMARK    6  A    between atoms: C_9  and  C_11
REMARK    7  A    between atoms: C_11  and  O_12
REMARK    8  A    between atoms: O_12  and  C_13
REMARK    9  A    between atoms: C_13  and  C_15
REMARK   10  A    between atoms: C_15  and  C_16
REMARK   11  A    between atoms: C_15  and  N_17
REMARK   12  A    between atoms: C_31  and  C_32
REMARK   13  A    between atoms: C_31  and  C_33
REMARK                            x       y       z     vdW  Elec       q    Type
REMARK                         _______ _______ _______ _____ _____    ______ ____
ROOT
ATOM      1  O   UNL     1       0.016  11.540  22.171  0.00  0.00    +0.000 OA
ENDROOT
BRANCH   1   2
ATOM      2  C   UNL     1      -0.533  11.898  20.976  0.00  0.00    +0.000 C 
ATOM      3  O   UNL     1      -0.363  11.254  19.944  0.00  0.00    +0.000 OA
BRANCH   2   4
ATOM      4  C   UNL     1      -1.465  13.135  21.087  0.00  0.00    +0.000 C 
ATOM      5  C   UNL     1      -0.681  14.451  21.153  0.00  0.00    +0.000 C 
BRANCH   4   6
ATOM      6  N   UNL     1      -2.559  13.206  20.055  0.00  0.00    +0.000 N 
ATOM      7  C   UNL     1      -3.878  13.138  20.453  0.00  0.00    +0.000 C 
ATOM      8  N   UNL     1      -4.235  13.559  21.632  0.00  0.00    +0.000 NA
ATOM      9  S   UNL     1      -5.749  13.062  21.989  0.00  0.00    +0.000 S 
ATOM     10  O   UNL     1      -5.738  12.222  23.163  0.00  0.00    +0.000 OA
ATOM     11  O   UNL     1      -6.691  14.138  21.790  0.00  0.00    +0.000 OA
ATOM     12  C   UNL     1      -5.908  12.021  20.605  0.00  0.00    +0.000 A 
ATOM     13  C   UNL     1      -6.927  11.126  20.351  0.00  0.00    +0.000 A 
ATOM     14  C   UNL     1      -7.123  10.777  19.022  0.00  0.00    +0.000 A 
ATOM     15  C   UNL     1      -6.321  11.365  18.023  0.00  0.00    +0.000 A 
ATOM     16  C   UNL     1      -5.197  12.161  18.351  0.00  0.00    +0.000 A 
ATOM     17  C   UNL     1      -4.953  12.421  19.687  0.00  0.00    +0.000 A 
ATOM     18  H   UNL     1      -2.321  12.656  19.230  0.00  0.00    +0.000 HD
ENDBRANCH   4   6
ENDBRANCH   2   4
ENDBRANCH   1   2
BRANCH   1  19
ATOM     19  C   UNL     1      -0.351  10.261  22.693  0.00  0.00    +0.000 C 
BRANCH  19  21
ATOM     20  N   UNL     1       1.139   9.093  21.109  0.00  0.00    +0.000 N 
ATOM     21  C   UNL     1      -0.067   9.041  21.796  0.00  0.00    +0.000 C 
ATOM     22  O   UNL     1      -0.875   8.115  21.760  0.00  0.00    +0.000 OA
ATOM     23  H   UNL     1       1.692   9.940  21.221  0.00  0.00    +0.000 HD
BRANCH  20  27
ATOM     24  C   UNL     1       2.737   5.946  18.640  0.00  0.00    +0.000 A 
ATOM     25  C   UNL     1       2.475   7.213  18.115  0.00  0.00    +0.000 A 
ATOM     26  C   UNL     1       1.958   8.261  18.915  0.00  0.00    +0.000 A 
ATOM     27  C   UNL     1       1.680   8.078  20.263  0.00  0.00    +0.000 A 
ATOM     28  C   UNL     1       1.878   6.798  20.797  0.00  0.00    +0.000 A 
ATOM     29  C   UNL     1       2.406   5.758  19.994  0.00  0.00    +0.000 A 
BRANCH  24  30
ATOM     30  N   UNL     1       3.274   4.891  17.874  0.00  0.00    +0.000 N 
BRANCH  30  31
ATOM     31  C   UNL     1       4.719   5.083  17.508  0.00  0.00    +0.000 C 
ATOM     32  C   UNL     1       5.659   4.519  18.583  0.00  0.00    +0.000 C 
ATOM     33  C   UNL     1       5.082   4.447  16.157  0.00  0.00    +0.000 C 
ENDBRANCH  30  31
BRANCH  30  35
ATOM     34  C   UNL     1       1.364   3.200  18.084  0.00  0.00    +0.000 C 
ATOM     35  C   UNL     1       2.859   3.491  18.140  0.00  0.00    +0.000 C 
ENDBRANCH  30  35
ENDBRANCH  24  30
ENDBRANCH  20  27
ENDBRANCH  19  21
ENDBRANCH   1  19
TORSDOF 9
ENDMDL
MODEL 8
REMARK VINA RESULT:      -6.7      2.523      3.674
REMARK  Name = 
REMARK  13 active torsions:
REMARK  status: ('A' for Active; 'I' for Inactive)
REMARK    1  A    between atoms: C_1  and  C_2
REMARK    2  A    between atoms: C_2  and  N_3
REMARK    3  A    between atoms: N_3  and  C_4
REMARK    4  A    between atoms: N_3  and  C_31
REMARK    5  A    between atoms: C_7  and  N_8
REMARK    6  A    between atoms: C_9  and  C_11
REMARK    7  A    between atoms: C_11  and  O_12
REMARK    8  A    between atoms: O_12  and  C_13
REMARK    9  A    between atoms: C_13  and  C_15
REMARK   10  A    between atoms: C_15  and  C_16
REMARK   11  A    between atoms: C_15  and  N_17
REMARK   12  A    between atoms: C_31  and  C_32
REMARK   13  A    between atoms: C_31  and  C_33
REMARK                            x       y       z     vdW  Elec       q    Type
REMARK                         _______ _______ _______ _____ _____    ______ ____
ROOT
ATOM      1  O   UNL     1       1.318   4.838  20.072  0.00  0.00    +0.000 OA
ENDROOT
BRANCH   1   2
ATOM      2  C   UNL     1       1.872   4.199  19.004  0.00  0.00    +0.000 C 
ATOM      3  O   UNL     1       1.307   4.105  17.917  0.00  0.00    +0.000 OA
BRANCH   2   4
ATOM      4  C   UNL     1       3.317   3.703  19.280  0.00  0.00    +0.000 C 
ATOM      5  C   UNL     1       3.380   2.716  20.452  0.00  0.00    +0.000 C 
BRANCH   4   6
ATOM      6  N   UNL     1       4.049   3.167  18.079  0.00  0.00    +0.000 N 
ATOM      7  C   UNL     1       5.291   3.673  17.754  0.00  0.00    +0.000 C 
ATOM      8  N   UNL     1       6.071   4.152  18.680  0.00  0.00    +0.000 NA
ATOM      9  S   UNL     1       7.308   4.988  18.018  0.00  0.00    +0.000 S 
ATOM     10  O   UNL     1       7.269   6.366  18.448  0.00  0.00    +0.000 OA
ATOM     11  O   UNL     1       8.511   4.190  18.015  0.00  0.00    +0.000 OA
ATOM     12  C   UNL     1       6.689   4.931  16.393  0.00  0.00    +0.000 A 
ATOM     13  C   UNL     1       7.176   5.610  15.295  0.00  0.00    +0.000 A 
ATOM     14  C   UNL     1       6.874   5.066  14.053  0.00  0.00    +0.000 A 
ATOM     15  C   UNL     1       6.141   3.865  13.979  0.00  0.00    +0.000 A 
ATOM     16  C   UNL     1       5.540   3.294  15.126  0.00  0.00    +0.000 A 
ATOM     17  C   UNL     1       5.767   3.901  16.348  0.00  0.00    +0.000 A 
ATOM     18  H   UNL     1       3.414   3.028  17.293  0.00  0.00    +0.000 HD
ENDBRANCH   4   6
ENDBRANCH   2   4
ENDBRANCH   1   2
BRANCH   1  19
ATOM     19  C   UNL     1       2.110   5.846  20.704  0.00  0.00    +0.000 C 
BRANCH  19  21
ATOM     20  N   UNL     1       0.741   7.720  21.544  0.00  0.00    +0.000 N 
ATOM     21  C   UNL     1       1.623   7.301  20.557  0.00  0.00    +0.000 C 
ATOM     22  O   UNL     1       2.044   7.990  19.631  0.00  0.00    +0.000 OA
ATOM     23  H   UNL     1       0.464   7.025  22.234  0.00  0.00    +0.000 HD
BRANCH  20  27
ATOM     24  C   UNL     1      -0.930  11.651  22.104  0.00  0.00    +0.000 A 
ATOM     25  C   UNL     1      -0.375  11.269  20.881  0.00  0.00    +0.000 A 
ATOM     26  C   UNL     1       0.170   9.978  20.678  0.00  0.00    +0.000 A 
ATOM     27  C   UNL     1       0.185   9.027  21.689  0.00  0.00    +0.000 A 
ATOM     28  C   UNL     1      -0.310   9.408  22.943  0.00  0.00    +0.000 A 
ATOM     29  C   UNL     1      -0.864  10.696  23.136  0.00  0.00    +0.000 A 
BRANCH  24  30
ATOM     30  N   UNL     1      -1.500  12.920  22.329  0.00  0.00    +0.000 N 
BRANCH  30  31
ATOM     31  C   UNL     1      -2.744  12.884  23.172  0.00  0.00    +0.000 C 
ATOM     32  C   UNL     1      -2.935  14.185  23.963  0.00  0.00    +0.000 C 
ATOM     33  C   UNL     1      -4.015  12.618  22.349  0.00  0.00    +0.000 C 
ENDBRANCH  30  31
BRANCH  30  35
ATOM     34  C   UNL     1      -0.265  14.896  21.270  0.00  0.00    +0.000 C 
ATOM     35  C   UNL     1      -0.628  14.105  22.522  0.00  0.00    +0.000 C 
ENDBRANCH  30  35
ENDBRANCH  24  30
ENDBRANCH  20  27
ENDBRANCH  19  21
ENDBRANCH   1  19
TORSDOF 9
ENDMDL
MODEL 9
REMARK VINA RESULT:      -6.7      5.331     11.019
REMARK  Name = 
REMARK  13 active torsions:
REMARK  status: ('A' for Active; 'I' for Inactive)
REMARK    1  A    between atoms: C_1  and  C_2
REMARK    2  A    between atoms: C_2  and  N_3
REMARK    3  A    between atoms: N_3  and  C_4
REMARK    4  A    between atoms: N_3  and  C_31
REMARK    5  A    between atoms: C_7  and  N_8
REMARK    6  A    between atoms: C_9  and  C_11
REMARK    7  A    between atoms: C_11  and  O_12
REMARK    8  A    between atoms: O_12  and  C_13
REMARK    9  A    between atoms: C_13  and  C_15
REMARK   10  A    between atoms: C_15  and  C_16
REMARK   11  A    between atoms: C_15  and  N_17
REMARK   12  A    between atoms: C_31  and  C_32
REMARK   13  A    between atoms: C_31  and  C_33
REMARK                            x       y       z     vdW  Elec       q    Type
REMARK                         _______ _______ _______ _____ _____    ______ ____
ROOT
ATOM      1  O   UNL     1       0.097  12.005  21.202  0.00  0.00    +0.000 OA
ENDROOT
BRANCH   1   2
ATOM      2  C   UNL     1      -0.825  12.103  22.201  0.00  0.00    +0.000 C 
ATOM      3  O   UNL     1      -0.832  11.358  23.178  0.00  0.00    +0.000 OA
BRANCH   2   4
ATOM      4  C   UNL     1      -1.785  13.310  22.020  0.00  0.00    +0.000 C 
ATOM      5  C   UNL     1      -1.063  14.655  22.171  0.00  0.00    +0.000 C 
BRANCH   4   6
ATOM      6  N   UNL     1      -2.621  13.281  20.769  0.00  0.00    +0.000 N 
ATOM      7  C   UNL     1      -3.992  13.168  20.866  0.00  0.00    +0.000 C 
ATOM      8  N   UNL     1      -4.619  13.626  21.912  0.00  0.00    +0.000 NA
ATOM      9  S   UNL     1      -6.156  13.075  21.951  0.00  0.00    +0.000 S 
ATOM     10  O   UNL     1      -6.378  12.292  23.144  0.00  0.00    +0.000 OA
ATOM     11  O   UNL     1      -7.068  14.094  21.487  0.00  0.00    +0.000 OA
ATOM     12  C   UNL     1      -5.963  11.964  20.627  0.00  0.00    +0.000 A 
ATOM     13  C   UNL     1      -6.866  11.010  20.204  0.00  0.00    +0.000 A 
ATOM     14  C   UNL     1      -6.746  10.591  18.886  0.00  0.00    +0.000 A 
ATOM     15  C   UNL     1      -5.763  11.169  18.059  0.00  0.00    +0.000 A 
ATOM     16  C   UNL     1      -4.770  12.032  18.582  0.00  0.00    +0.000 A 
ATOM     17  C   UNL     1      -4.842  12.365  19.923  0.00  0.00    +0.000 A 
ATOM     18  H   UNL     1      -2.184  12.705  20.048  0.00  0.00    +0.000 HD
ENDBRANCH   4   6
ENDBRANCH   2   4
ENDBRANCH   1   2
BRANCH   1  19
ATOM     19  C   UNL     1      -0.089  10.954  20.252  0.00  0.00    +0.000 C 
BRANCH  19  21
ATOM     20  N   UNL     1       1.139   9.087  19.204  0.00  0.00    +0.000 N 
ATOM     21  C   UNL     1       0.823   9.720  20.398  0.00  0.00    +0.000 C 
ATOM     22  O   UNL     1       1.226   9.394  21.513  0.00  0.00    +0.000 OA
ATOM     23  H   UNL     1       0.708   9.460  18.361  0.00  0.00    +0.000 HD
BRANCH  20  27
ATOM     24  C   UNL     1       3.695   5.645  18.786  0.00  0.00    +0.000 A 
ATOM     25  C   UNL     1       3.716   6.678  17.847  0.00  0.00    +0.000 A 
ATOM     26  C   UNL     1       2.889   7.821  17.974  0.00  0.00    +0.000 A 
ATOM     27  C   UNL     1       2.010   7.968  19.039  0.00  0.00    +0.000 A 
ATOM     28  C   UNL     1       1.927   6.915  19.960  0.00  0.00    +0.000 A 
ATOM     29  C   UNL     1       2.765   5.782  19.833  0.00  0.00    +0.000 A 
BRANCH  24  30
ATOM     30  N   UNL     1       4.523   4.508  18.698  0.00  0.00    +0.000 N 
BRANCH  30  31
ATOM     31  C   UNL     1       3.808   3.216  18.978  0.00  0.00    +0.000 C 
ATOM     32  C   UNL     1       3.558   2.413  17.694  0.00  0.00    +0.000 C 
ATOM     33  C   UNL     1       4.561   2.322  19.977  0.00  0.00    +0.000 C 
ENDBRANCH  30  31
BRANCH  30  35
ATOM     34  C   UNL     1       6.985   4.878  18.103  0.00  0.00    +0.000 C 
ATOM     35  C   UNL     1       5.591   4.441  17.669  0.00  0.00    +0.000 C 
ENDBRANCH  30  35
ENDBRANCH  24  30
ENDBRANCH  20  27
ENDBRANCH  19  21
ENDBRANCH   1  19
TORSDOF 9
ENDMDL
