MODEL 1
REMARK VINA RESULT:      -7.6      0.000      0.000
REMARK  Name = 
REMARK  7 active torsions:
REMARK  status: ('A' for Active; 'I' for Inactive)
REMARK    1  A    between atoms: C_1  and  N_2
REMARK    2  A    between atoms: C_4  and  C_5
REMARK    3  A    between atoms: C_8  and  O_9
REMARK    4  A    between atoms: O_9  and  C_10
REMARK    5  A    between atoms: C_10  and  C_11
REMARK    6  A    between atoms: C_20  and  C_21
REMARK    7  A    between atoms: C_21  and  O_23
REMARK                            x       y       z     vdW  Elec       q    Type
REMARK                         _______ _______ _______ _____ _____    ______ ____
ROOT
ATOM      1  C   UNL     1       5.446   5.991  17.384  0.00  0.00    +0.000 A 
ATOM      2  C   UNL     1       5.658   4.857  16.595  0.00  0.00    +0.000 A 
ATOM      3  C   UNL     1       4.625   3.950  16.356  0.00  0.00    +0.000 A 
ATOM      4  C   UNL     1       3.359   4.172  16.894  0.00  0.00    +0.000 A 
ATOM      5  C   UNL     1       3.120   5.359  17.585  0.00  0.00    +0.000 A 
ATOM      6  F   UNL     1       1.896   5.631  18.063  0.00  0.00    +0.000 F 
ATOM      7  C   UNL     1       4.151   6.263  17.839  0.00  0.00    +0.000 A 
ENDROOT
BRANCH   1  11
ATOM      8  C   UNL     1       8.355   9.969  17.765  0.00  0.00    +0.000 C 
ATOM      9  N   UNL     1       7.833   8.630  17.885  0.00  0.00    +0.000 N 
ATOM     10  C   UNL     1       6.666   8.164  17.366  0.00  0.00    +0.000 A 
ATOM     11  C   UNL     1       6.568   6.840  17.740  0.00  0.00    +0.000 A 
ATOM     12  C   UNL     1       7.748   6.594  18.512  0.00  0.00    +0.000 A 
ATOM     13  N   UNL     1       8.524   7.702  18.581  0.00  0.00    +0.000 NA
BRANCH  12  14
ATOM     14  C   UNL     1       8.198   5.383  19.215  0.00  0.00    +0.000 C 
ATOM     15  O   UNL     1       8.595   4.350  18.694  0.00  0.00    +0.000 OA
BRANCH  14  16
ATOM     16  O   UNL     1       8.134   5.526  20.570  0.00  0.00    +0.000 OA
ATOM     17  H   UNL     1       7.489   4.844  20.879  0.00  0.00    +0.000 HD
ENDBRANCH  14  16
ENDBRANCH  12  14
ENDBRANCH   1  11
BRANCH   4  18
ATOM     18  O   UNL     1       2.326   3.281  16.789  0.00  0.00    +0.000 OA
BRANCH  18  19
ATOM     19  C   UNL     1       2.498   2.098  17.577  0.00  0.00    +0.000 C 
BRANCH  19  20
ATOM     20  C   UNL     1       2.298   2.427  19.032  0.00  0.00    +0.000 A 
ATOM     21  C   UNL     1       1.032   2.783  19.512  0.00  0.00    +0.000 A 
ATOM     22  C   UNL     1       0.849   3.062  20.865  0.00  0.00    +0.000 A 
ATOM     23  C   UNL     1       1.924   2.977  21.748  0.00  0.00    +0.000 A 
ATOM     24  C   UNL     1       3.185   2.606  21.282  0.00  0.00    +0.000 A 
ATOM     25  C   UNL     1       3.371   2.327  19.929  0.00  0.00    +0.000 A 
ENDBRANCH  19  20
ENDBRANCH  18  19
ENDBRANCH   4  18
TORSDOF 6
ENDMDL
MODEL 2
REMARK VINA RESULT:      -7.5      5.228      6.989
REMARK  Name = 
REMARK  7 active torsions:
REMARK  status: ('A' for Active; 'I' for Inactive)
REMARK    1  A    between atoms: C_1  and  N_2
REMARK    2  A    between atoms: C_4  and  C_5
REMARK    3  A    between atoms: C_8  and  O_9
REMARK    4  A    between atoms: O_9  and  C_10
REMARK    5  A    between atoms: C_10  and  C_11
REMARK    6  A    between atoms: C_20  and  C_21
REMARK    7  A    between atoms: C_21  and  O_23
REMARK                            x       y       z     vdW  Elec       q    Type
REMARK                         _______ _______ _______ _____ _____    ______ ____
ROOT
ATOM      1  C   UNL     1       2.877   7.150  18.478  0.00  0.00    +0.000 A 
ATOM      2  C   UNL     1       2.637   8.261  17.665  0.00  0.00    +0.000 A 
ATOM      3  C   UNL     1       1.800   9.292  18.092  0.00  0.00    +0.000 A 
ATOM      4  C   UNL     1       1.199   9.232  19.348  0.00  0.00    +0.000 A 
ATOM      5  C   UNL     1       1.528   8.179  20.202  0.00  0.00    +0.000 A 
ATOM      6  F   UNL     1       1.014   8.125  21.440  0.00  0.00    +0.000 F 
ATOM      7  C   UNL     1       2.353   7.139  19.776  0.00  0.00    +0.000 A 
ENDROOT
BRANCH   1  11
ATOM      8  C   UNL     1       6.604   4.477  16.635  0.00  0.00    +0.000 C 
ATOM      9  N   UNL     1       5.311   4.872  17.136  0.00  0.00    +0.000 N 
ATOM     10  C   UNL     1       4.944   6.115  17.549  0.00  0.00    +0.000 A 
ATOM     11  C   UNL     1       3.630   6.024  17.956  0.00  0.00    +0.000 A 
ATOM     12  C   UNL     1       3.284   4.650  17.758  0.00  0.00    +0.000 A 
ATOM     13  N   UNL     1       4.325   3.955  17.239  0.00  0.00    +0.000 NA
BRANCH  12  14
ATOM     14  C   UNL     1       2.034   3.926  18.041  0.00  0.00    +0.000 C 
ATOM     15  O   UNL     1       1.067   3.836  17.298  0.00  0.00    +0.000 OA
BRANCH  14  16
ATOM     16  O   UNL     1       2.057   3.329  19.267  0.00  0.00    +0.000 OA
ATOM     17  H   UNL     1       1.959   2.361  19.092  0.00  0.00    +0.000 HD
ENDBRANCH  14  16
ENDBRANCH  12  14
ENDBRANCH   1  11
BRANCH   4  18
ATOM     18  O   UNL     1       0.290  10.151  19.796  0.00  0.00    +0.000 OA
BRANCH  18  19
ATOM     19  C   UNL     1      -0.040  11.158  18.833  0.00  0.00    +0.000 C 
BRANCH  19  20
ATOM     20  C   UNL     1      -1.460  10.970  18.372  0.00  0.00    +0.000 A 
ATOM     21  C   UNL     1      -2.490  11.753  18.907  0.00  0.00    +0.000 A 
ATOM     22  C   UNL     1      -3.800  11.591  18.457  0.00  0.00    +0.000 A 
ATOM     23  C   UNL     1      -4.086  10.656  17.465  0.00  0.00    +0.000 A 
ATOM     24  C   UNL     1      -3.064   9.884  16.913  0.00  0.00    +0.000 A 
ATOM     25  C   UNL     1      -1.755  10.044  17.362  0.00  0.00    +0.000 A 
ENDBRANCH  19  20
ENDBRANCH  18  19
ENDBRANCH   4  18
TORSDOF 6
ENDMDL
MODEL 3
REMARK VINA RESULT:      -7.5      5.394      6.997
REMARK  Name = 
REMARK  7 active torsions:
REMARK  status: ('A' for Active; 'I' for Inactive)
REMARK    1  A    between atoms: C_1  and  N_2
REMARK    2  A    between atoms: C_4  and  C_5
REMARK    3  A    between atoms: C_8  and  O_9
REMARK    4  A    between atoms: O_9  and  C_10
REMARK    5  A    between atoms: C_10  and  C_11
REMARK    6  A    between atoms: C_20  and  C_21
REMARK    7  A    between atoms: C_21  and  O_23
REMARK                            x       y       z     vdW  Elec       q    Type
REMARK                         _______ _______ _______ _____ _____    ______ ____
ROOT
ATOM      1  C   UNL     1       2.683   6.962  18.553  0.00  0.00    +0.000 A 
ATOM      2  C   UNL     1       2.531   8.038  17.674  0.00  0.00    +0.000 A 
ATOM      3  C   UNL     1       1.823   9.177  18.055  0.00  0.00    +0.000 A 
ATOM      4  C   UNL     1       1.266   9.262  19.330  0.00  0.00    +0.000 A 
ATOM      5  C   UNL     1       1.514   8.238  20.243  0.00  0.00    +0.000 A 
ATOM      6  F   UNL     1       1.044   8.318  21.497  0.00  0.00    +0.000 F 
ATOM      7  C   UNL     1       2.210   7.091  19.864  0.00  0.00    +0.000 A 
ENDROOT
BRANCH   1  11
ATOM      8  C   UNL     1       3.536   2.143  17.855  0.00  0.00    +0.000 C 
ATOM      9  N   UNL     1       3.641   3.580  17.802  0.00  0.00    +0.000 N 
ATOM     10  C   UNL     1       2.834   4.477  18.430  0.00  0.00    +0.000 A 
ATOM     11  C   UNL     1       3.295   5.731  18.086  0.00  0.00    +0.000 A 
ATOM     12  C   UNL     1       4.404   5.483  17.217  0.00  0.00    +0.000 A 
ATOM     13  N   UNL     1       4.614   4.153  17.062  0.00  0.00    +0.000 NA
BRANCH  12  14
ATOM     14  C   UNL     1       5.283   6.416  16.495  0.00  0.00    +0.000 C 
ATOM     15  O   UNL     1       5.241   6.671  15.300  0.00  0.00    +0.000 OA
BRANCH  14  16
ATOM     16  O   UNL     1       6.192   7.006  17.324  0.00  0.00    +0.000 OA
ATOM     17  H   UNL     1       5.743   7.812  17.678  0.00  0.00    +0.000 HD
ENDBRANCH  14  16
ENDBRANCH  12  14
ENDBRANCH   1  11
BRANCH   4  18
ATOM     18  O   UNL     1       0.475  10.300  19.742  0.00  0.00    +0.000 OA
BRANCH  18  19
ATOM     19  C   UNL     1       0.126  11.214  18.697  0.00  0.00    +0.000 C 
BRANCH  19  20
ATOM     20  C   UNL     1      -1.321  11.029  18.326  0.00  0.00    +0.000 A 
ATOM     21  C   UNL     1      -1.701  10.027  17.425  0.00  0.00    +0.000 A 
ATOM     22  C   UNL     1      -3.045   9.845  17.105  0.00  0.00    +0.000 A 
ATOM     23  C   UNL     1      -4.017  10.654  17.688  0.00  0.00    +0.000 A 
ATOM     24  C   UNL     1      -3.651  11.643  18.600  0.00  0.00    +0.000 A 
ATOM     25  C   UNL     1      -2.308  11.827  18.921  0.00  0.00    +0.000 A 
ENDBRANCH  19  20
ENDBRANCH  18  19
ENDBRANCH   4  18
TORSDOF 6
ENDMDL
MODEL 4
REMARK VINA RESULT:      -7.5      3.865      5.149
REMARK  Name = 
REMARK  7 active torsions:
REMARK  status: ('A' for Active; 'I' for Inactive)
REMARK    1  A    between atoms: C_1  and  N_2
REMARK    2  A    between atoms: C_4  and  C_5
REMARK    3  A    between atoms: C_8  and  O_9
REMARK    4  A    between atoms: O_9  and  C_10
REMARK    5  A    between atoms: C_10  and  C_11
REMARK    6  A    between atoms: C_20  and  C_21
REMARK    7  A    between atoms: C_21  and  O_23
REMARK                            x       y       z     vdW  Elec       q    Type
REMARK                         _______ _______ _______ _____ _____    ______ ____
ROOT
ATOM      1  C   UNL     1       5.806   4.792  15.146  0.00  0.00    +0.000 A 
ATOM      2  C   UNL     1       5.384   6.122  15.224  0.00  0.00    +0.000 A 
ATOM      3  C   UNL     1       4.922   6.656  16.427  0.00  0.00    +0.000 A 
ATOM      4  C   UNL     1       4.889   5.869  17.576  0.00  0.00    +0.000 A 
ATOM      5  C   UNL     1       5.415   4.578  17.524  0.00  0.00    +0.000 A 
ATOM      6  F   UNL     1       5.453   3.817  18.628  0.00  0.00    +0.000 F 
ATOM      7  C   UNL     1       5.865   4.034  16.322  0.00  0.00    +0.000 A 
ENDROOT
BRANCH   1  11
ATOM      8  C   UNL     1       5.710   1.840  11.182  0.00  0.00    +0.000 C 
ATOM      9  N   UNL     1       6.068   2.882  12.113  0.00  0.00    +0.000 N 
ATOM     10  C   UNL     1       5.494   3.122  13.323  0.00  0.00    +0.000 A 
ATOM     11  C   UNL     1       6.142   4.216  13.856  0.00  0.00    +0.000 A 
ATOM     12  C   UNL     1       7.107   4.584  12.866  0.00  0.00    +0.000 A 
ATOM     13  N   UNL     1       7.059   3.744  11.804  0.00  0.00    +0.000 NA
BRANCH  12  14
ATOM     14  C   UNL     1       8.073   5.694  12.835  0.00  0.00    +0.000 C 
ATOM     15  O   UNL     1       8.875   5.978  13.712  0.00  0.00    +0.000 OA
BRANCH  14  16
ATOM     16  O   UNL     1       7.991   6.409  11.676  0.00  0.00    +0.000 OA
ATOM     17  H   UNL     1       8.901   6.392  11.289  0.00  0.00    +0.000 HD
ENDBRANCH  14  16
ENDBRANCH  12  14
ENDBRANCH   1  11
BRANCH   4  18
ATOM     18  O   UNL     1       4.357   6.289  18.765  0.00  0.00    +0.000 OA
BRANCH  18  19
ATOM     19  C   UNL     1       2.943   6.507  18.723  0.00  0.00    +0.000 C 
BRANCH  19  20
ATOM     20  C   UNL     1       2.224   5.234  19.082  0.00  0.00    +0.000 A 
ATOM     21  C   UNL     1       1.948   4.928  20.421  0.00  0.00    +0.000 A 
ATOM     22  C   UNL     1       1.261   3.759  20.745  0.00  0.00    +0.000 A 
ATOM     23  C   UNL     1       0.837   2.896  19.737  0.00  0.00    +0.000 A 
ATOM     24  C   UNL     1       1.092   3.201  18.400  0.00  0.00    +0.000 A 
ATOM     25  C   UNL     1       1.779   4.368  18.074  0.00  0.00    +0.000 A 
ENDBRANCH  19  20
ENDBRANCH  18  19
ENDBRANCH   4  18
TORSDOF 6
ENDMDL
MODEL 5
REMARK VINA RESULT:      -7.5      4.454      5.491
REMARK  Name = 
REMARK  7 active torsions:
REMARK  status: ('A' for Active; 'I' for Inactive)
REMARK    1  A    between atoms: C_1  and  N_2
REMARK    2  A    between atoms: C_4  and  C_5
REMARK    3  A    between atoms: C_8  and  O_9
REMARK    4  A    between atoms: O_9  and  C_10
REMARK    5  A    between atoms: C_10  and  C_11
REMARK    6  A    between atoms: C_20  and  C_21
REMARK    7  A    between atoms: C_21  and  O_23
REMARK                            x       y       z     vdW  Elec       q    Type
REMARK                         _______ _______ _______ _____ _____    ______ ____
ROOT
ATOM      1  C   UNL     1       4.277   6.293  17.872  0.00  0.00    +0.000 A 
ATOM      2  C   UNL     1       3.619   7.511  17.682  0.00  0.00    +0.000 A 
ATOM      3  C   UNL     1       2.574   7.897  18.521  0.00  0.00    +0.000 A 
ATOM      4  C   UNL     1       2.180   7.074  19.573  0.00  0.00    +0.000 A 
ATOM      5  C   UNL     1       2.909   5.913  19.831  0.00  0.00    +0.000 A 
ATOM      6  F   UNL     1       2.592   5.131  20.874  0.00  0.00    +0.000 F 
ATOM      7  C   UNL     1       3.945   5.515  18.988  0.00  0.00    +0.000 A 
ENDROOT
BRANCH   1  11
ATOM      8  C   UNL     1       6.297   3.972  14.003  0.00  0.00    +0.000 C 
ATOM      9  N   UNL     1       6.119   4.795  15.174  0.00  0.00    +0.000 N 
ATOM     10  C   UNL     1       4.967   4.970  15.875  0.00  0.00    +0.000 A 
ATOM     11  C   UNL     1       5.259   5.845  16.901  0.00  0.00    +0.000 A 
ATOM     12  C   UNL     1       6.644   6.159  16.726  0.00  0.00    +0.000 A 
ATOM     13  N   UNL     1       7.163   5.494  15.666  0.00  0.00    +0.000 NA
BRANCH  12  14
ATOM     14  C   UNL     1       7.524   7.066  17.480  0.00  0.00    +0.000 C 
ATOM     15  O   UNL     1       7.841   8.201  17.155  0.00  0.00    +0.000 OA
BRANCH  14  16
ATOM     16  O   UNL     1       7.971   6.497  18.637  0.00  0.00    +0.000 OA
ATOM     17  H   UNL     1       7.342   5.759  18.829  0.00  0.00    +0.000 HD
ENDBRANCH  14  16
ENDBRANCH  12  14
ENDBRANCH   1  11
BRANCH   4  18
ATOM     18  O   UNL     1       1.101   7.335  20.375  0.00  0.00    +0.000 OA
BRANCH  18  19
ATOM     19  C   UNL     1       1.420   8.093  21.547  0.00  0.00    +0.000 C 
BRANCH  19  20
ATOM     20  C   UNL     1       0.470   9.254  21.671  0.00  0.00    +0.000 A 
ATOM     21  C   UNL     1      -0.116   9.564  22.905  0.00  0.00    +0.000 A 
ATOM     22  C   UNL     1      -0.975  10.656  23.018  0.00  0.00    +0.000 A 
ATOM     23  C   UNL     1      -1.245  11.450  21.906  0.00  0.00    +0.000 A 
ATOM     24  C   UNL     1      -0.653  11.160  20.677  0.00  0.00    +0.000 A 
ATOM     25  C   UNL     1       0.206  10.069  20.561  0.00  0.00    +0.000 A 
ENDBRANCH  19  20
ENDBRANCH  18  19
ENDBRANCH   4  18
TORSDOF 6
ENDMDL
MODEL 6
REMARK VINA RESULT:      -7.5      5.417      7.007
REMARK  Name = 
REMARK  7 active torsions:
REMARK  status: ('A' for Active; 'I' for Inactive)
REMARK    1  A    between atoms: C_1  and  N_2
REMARK    2  A    between atoms: C_4  and  C_5
REMARK    3  A    between atoms: C_8  and  O_9
REMARK    4  A    between atoms: O_9  and  C_10
REMARK    5  A    between atoms: C_10  and  C_11
REMARK    6  A    between atoms: C_20  and  C_21
REMARK    7  A    between atoms: C_21  and  O_23
REMARK                            x       y       z     vdW  Elec       q    Type
REMARK                         _______ _______ _______ _____ _____    ______ ____
ROOT
ATOM      1  C   UNL     1       2.685   7.010  18.592  0.00  0.00    +0.000 A 
ATOM      2  C   UNL     1       2.528   8.091  17.720  0.00  0.00    +0.000 A 
ATOM      3  C   UNL     1       1.793   9.214  18.099  0.00  0.00    +0.000 A 
ATOM      4  C   UNL     1       1.214   9.278  19.365  0.00  0.00    +0.000 A 
ATOM      5  C   UNL     1       1.465   8.250  20.274  0.00  0.00    +0.000 A 
ATOM      6  F   UNL     1       0.972   8.311  21.520  0.00  0.00    +0.000 F 
ATOM      7  C   UNL     1       2.187   7.119  19.896  0.00  0.00    +0.000 A 
ENDROOT
BRANCH   1  11
ATOM      8  C   UNL     1       3.574   2.217  17.776  0.00  0.00    +0.000 C 
ATOM      9  N   UNL     1       3.687   3.654  17.785  0.00  0.00    +0.000 N 
ATOM     10  C   UNL     1       2.838   4.531  18.385  0.00  0.00    +0.000 A 
ATOM     11  C   UNL     1       3.326   5.794  18.125  0.00  0.00    +0.000 A 
ATOM     12  C   UNL     1       4.496   5.574  17.331  0.00  0.00    +0.000 A 
ATOM     13  N   UNL     1       4.713   4.250  17.142  0.00  0.00    +0.000 NA
BRANCH  12  14
ATOM     14  C   UNL     1       5.428   6.529  16.712  0.00  0.00    +0.000 C 
ATOM     15  O   UNL     1       6.354   7.100  17.271  0.00  0.00    +0.000 OA
BRANCH  14  16
ATOM     16  O   UNL     1       5.156   6.724  15.390  0.00  0.00    +0.000 OA
ATOM     17  H   UNL     1       6.005   7.031  14.987  0.00  0.00    +0.000 HD
ENDBRANCH  14  16
ENDBRANCH  12  14
ENDBRANCH   1  11
BRANCH   4  18
ATOM     18  O   UNL     1       0.397  10.298  19.773  0.00  0.00    +0.000 OA
BRANCH  18  19
ATOM     19  C   UNL     1       0.040  11.208  18.727  0.00  0.00    +0.000 C 
BRANCH  19  20
ATOM     20  C   UNL     1      -1.407  11.016  18.362  0.00  0.00    +0.000 A 
ATOM     21  C   UNL     1      -2.397  11.826  18.931  0.00  0.00    +0.000 A 
ATOM     22  C   UNL     1      -3.733  11.659  18.569  0.00  0.00    +0.000 A 
ATOM     23  C   UNL     1      -4.087  10.691  17.632  0.00  0.00    +0.000 A 
ATOM     24  C   UNL     1      -3.106   9.891  17.047  0.00  0.00    +0.000 A 
ATOM     25  C   UNL     1      -1.770  10.056  17.407  0.00  0.00    +0.000 A 
ENDBRANCH  19  20
ENDBRANCH  18  19
ENDBRANCH   4  18
TORSDOF 6
ENDMDL
MODEL 7
REMARK VINA RESULT:      -7.4      5.304      6.934
REMARK  Name = 
REMARK  7 active torsions:
REMARK  status: ('A' for Active; 'I' for Inactive)
REMARK    1  A    between atoms: C_1  and  N_2
REMARK    2  A    between atoms: C_4  and  C_5
REMARK    3  A    between atoms: C_8  and  O_9
REMARK    4  A    between atoms: O_9  and  C_10
REMARK    5  A    between atoms: C_10  and  C_11
REMARK    6  A    between atoms: C_20  and  C_21
REMARK    7  A    between atoms: C_21  and  O_23
REMARK                            x       y       z     vdW  Elec       q    Type
REMARK                         _______ _______ _______ _____ _____    ______ ____
ROOT
ATOM      1  C   UNL     1       2.594   6.597  19.113  0.00  0.00    +0.000 A 
ATOM      2  C   UNL     1       2.566   7.567  18.107  0.00  0.00    +0.000 A 
ATOM      3  C   UNL     1       1.925   8.789  18.311  0.00  0.00    +0.000 A 
ATOM      4  C   UNL     1       1.312   9.064  19.531  0.00  0.00    +0.000 A 
ATOM      5  C   UNL     1       1.436   8.142  20.570  0.00  0.00    +0.000 A 
ATOM      6  F   UNL     1       0.909   8.404  21.776  0.00  0.00    +0.000 F 
ATOM      7  C   UNL     1       2.064   6.913  20.369  0.00  0.00    +0.000 A 
ENDROOT
BRANCH   1  11
ATOM      8  C   UNL     1       2.838   1.788  17.994  0.00  0.00    +0.000 C 
ATOM      9  N   UNL     1       3.202   3.142  18.331  0.00  0.00    +0.000 N 
ATOM     10  C   UNL     1       2.352   4.181  18.553  0.00  0.00    +0.000 A 
ATOM     11  C   UNL     1       3.137   5.280  18.829  0.00  0.00    +0.000 A 
ATOM     12  C   UNL     1       4.481   4.799  18.737  0.00  0.00    +0.000 A 
ATOM     13  N   UNL     1       4.505   3.476  18.443  0.00  0.00    +0.000 NA
BRANCH  12  14
ATOM     14  C   UNL     1       5.764   5.503  18.889  0.00  0.00    +0.000 C 
ATOM     15  O   UNL     1       6.578   5.336  19.785  0.00  0.00    +0.000 OA
BRANCH  14  16
ATOM     16  O   UNL     1       5.975   6.400  17.883  0.00  0.00    +0.000 OA
ATOM     17  H   UNL     1       6.366   7.198  18.317  0.00  0.00    +0.000 HD
ENDBRANCH  14  16
ENDBRANCH  12  14
ENDBRANCH   1  11
BRANCH   4  18
ATOM     18  O   UNL     1       0.578  10.194  19.771  0.00  0.00    +0.000 OA
BRANCH  18  19
ATOM     19  C   UNL     1       0.316  10.975  18.601  0.00  0.00    +0.000 C 
BRANCH  19  20
ATOM     20  C   UNL     1      -1.145  10.882  18.248  0.00  0.00    +0.000 A 
ATOM     21  C   UNL     1      -1.599   9.903  17.356  0.00  0.00    +0.000 A 
ATOM     22  C   UNL     1      -2.956   9.807  17.054  0.00  0.00    +0.000 A 
ATOM     23  C   UNL     1      -3.867  10.679  17.646  0.00  0.00    +0.000 A 
ATOM     24  C   UNL     1      -3.426  11.645  18.549  0.00  0.00    +0.000 A 
ATOM     25  C   UNL     1      -2.071  11.744  18.853  0.00  0.00    +0.000 A 
ENDBRANCH  19  20
ENDBRANCH  18  19
ENDBRANCH   4  18
TORSDOF 6
ENDMDL
MODEL 8
REMARK VINA RESULT:      -7.4      5.323      6.922
REMARK  Name = 
REMARK  7 active torsions:
REMARK  status: ('A' for Active; 'I' for Inactive)
REMARK    1  A    between atoms: C_1  and  N_2
REMARK    2  A    between atoms: C_4  and  C_5
REMARK    3  A    between atoms: C_8  and  O_9
REMARK    4  A    between atoms: O_9  and  C_10
REMARK    5  A    between atoms: C_10  and  C_11
REMARK    6  A    between atoms: C_20  and  C_21
REMARK    7  A    between atoms: C_21  and  O_23
REMARK                            x       y       z     vdW  Elec       q    Type
REMARK                         _______ _______ _______ _____ _____    ______ ____
ROOT
ATOM      1  C   UNL     1       2.579   6.720  19.004  0.00  0.00    +0.000 A 
ATOM      2  C   UNL     1       2.531   7.706  18.015  0.00  0.00    +0.000 A 
ATOM      3  C   UNL     1       1.891   8.923  18.250  0.00  0.00    +0.000 A 
ATOM      4  C   UNL     1       1.300   9.176  19.486  0.00  0.00    +0.000 A 
ATOM      5  C   UNL     1       1.446   8.238  20.508  0.00  0.00    +0.000 A 
ATOM      6  F   UNL     1       0.941   8.479  21.727  0.00  0.00    +0.000 F 
ATOM      7  C   UNL     1       2.072   7.015  20.275  0.00  0.00    +0.000 A 
ENDROOT
BRANCH   1  11
ATOM      8  C   UNL     1       2.811   1.920  17.846  0.00  0.00    +0.000 C 
ATOM      9  N   UNL     1       3.179   3.275  18.175  0.00  0.00    +0.000 N 
ATOM     10  C   UNL     1       2.332   4.305  18.440  0.00  0.00    +0.000 A 
ATOM     11  C   UNL     1       3.119   5.410  18.689  0.00  0.00    +0.000 A 
ATOM     12  C   UNL     1       4.461   4.939  18.535  0.00  0.00    +0.000 A 
ATOM     13  N   UNL     1       4.483   3.619  18.232  0.00  0.00    +0.000 NA
BRANCH  12  14
ATOM     14  C   UNL     1       5.744   5.653  18.635  0.00  0.00    +0.000 C 
ATOM     15  O   UNL     1       6.155   6.513  17.868  0.00  0.00    +0.000 OA
BRANCH  14  16
ATOM     16  O   UNL     1       6.468   5.253  19.720  0.00  0.00    +0.000 OA
ATOM     17  H   UNL     1       6.135   4.349  19.941  0.00  0.00    +0.000 HD
ENDBRANCH  14  16
ENDBRANCH  12  14
ENDBRANCH   1  11
BRANCH   4  18
ATOM     18  O   UNL     1       0.569  10.301  19.759  0.00  0.00    +0.000 OA
BRANCH  18  19
ATOM     19  C   UNL     1       0.247  11.079  18.600  0.00  0.00    +0.000 C 
BRANCH  19  20
ATOM     20  C   UNL     1      -1.214  10.918  18.274  0.00  0.00    +0.000 A 
ATOM     21  C   UNL     1      -2.169  11.757  18.862  0.00  0.00    +0.000 A 
ATOM     22  C   UNL     1      -3.517  11.620  18.537  0.00  0.00    +0.000 A 
ATOM     23  C   UNL     1      -3.919  10.653  17.618  0.00  0.00    +0.000 A 
ATOM     24  C   UNL     1      -2.973   9.824  17.014  0.00  0.00    +0.000 A 
ATOM     25  C   UNL     1      -1.625   9.959  17.338  0.00  0.00    +0.000 A 
ENDBRANCH  19  20
ENDBRANCH  18  19
ENDBRANCH   4  18
TORSDOF 6
ENDMDL
MODEL 9
REMARK VINA RESULT:      -7.4      4.382      5.380
REMARK  Name = 
REMARK  7 active torsions:
REMARK  status: ('A' for Active; 'I' for Inactive)
REMARK    1  A    between atoms: C_1  and  N_2
REMARK    2  A    between atoms: C_4  and  C_5
REMARK    3  A    between atoms: C_8  and  O_9
REMARK    4  A    between atoms: O_9  and  C_10
REMARK    5  A    between atoms: C_10  and  C_11
REMARK    6  A    between atoms: C_20  and  C_21
REMARK    7  A    between atoms: C_21  and  O_23
REMARK                            x       y       z     vdW  Elec       q    Type
REMARK                         _______ _______ _______ _____ _____    ______ ____
ROOT
ATOM      1  C   UNL     1       4.250   6.191  17.696  0.00  0.00    +0.000 A 
ATOM      2  C   UNL     1       4.024   5.406  18.829  0.00  0.00    +0.000 A 
ATOM      3  C   UNL     1       3.056   5.766  19.767  0.00  0.00    +0.000 A 
ATOM      4  C   UNL     1       2.289   6.913  19.576  0.00  0.00    +0.000 A 
ATOM      5  C   UNL     1       2.436   7.634  18.391  0.00  0.00    +0.000 A 
ATOM      6  F   UNL     1       1.670   8.708  18.151  0.00  0.00    +0.000 F 
ATOM      7  C   UNL     1       3.411   7.287  17.457  0.00  0.00    +0.000 A 
ENDROOT
BRANCH   1  11
ATOM      8  C   UNL     1       6.809   4.379  13.874  0.00  0.00    +0.000 C 
ATOM      9  N   UNL     1       6.460   5.056  15.099  0.00  0.00    +0.000 N 
ATOM     10  C   UNL     1       5.225   5.126  15.665  0.00  0.00    +0.000 A 
ATOM     11  C   UNL     1       5.359   5.880  16.812  0.00  0.00    +0.000 A 
ATOM     12  C   UNL     1       6.743   6.239  16.850  0.00  0.00    +0.000 A 
ATOM     13  N   UNL     1       7.411   5.713  15.795  0.00  0.00    +0.000 NA
BRANCH  12  14
ATOM     14  C   UNL     1       7.492   7.069  17.807  0.00  0.00    +0.000 C 
ATOM     15  O   UNL     1       8.012   6.683  18.844  0.00  0.00    +0.000 OA
BRANCH  14  16
ATOM     16  O   UNL     1       7.562   8.372  17.408  0.00  0.00    +0.000 OA
ATOM     17  H   UNL     1       7.246   8.902  18.179  0.00  0.00    +0.000 HD
ENDBRANCH  14  16
ENDBRANCH  12  14
ENDBRANCH   1  11
BRANCH   4  18
ATOM     18  O   UNL     1       1.393   7.386  20.498  0.00  0.00    +0.000 OA
BRANCH  18  19
ATOM     19  C   UNL     1       1.944   8.353  21.398  0.00  0.00    +0.000 C 
BRANCH  19  20
ATOM     20  C   UNL     1       0.909   9.401  21.707  0.00  0.00    +0.000 A 
ATOM     21  C   UNL     1       0.631  10.418  20.786  0.00  0.00    +0.000 A 
ATOM     22  C   UNL     1      -0.346  11.371  21.067  0.00  0.00    +0.000 A 
ATOM     23  C   UNL     1      -1.058  11.310  22.264  0.00  0.00    +0.000 A 
ATOM     24  C   UNL     1      -0.800  10.290  23.180  0.00  0.00    +0.000 A 
ATOM     25  C   UNL     1       0.176   9.337  22.901  0.00  0.00    +0.000 A 
ENDBRANCH  19  20
ENDBRANCH  18  19
ENDBRANCH   4  18
TORSDOF 6
ENDMDL
