MODEL 1
REMARK VINA RESULT:      -7.3      0.000      0.000
REMARK  Name = 
REMARK  3 active torsions:
REMARK  status: ('A' for Active; 'I' for Inactive)
REMARK    1  A    between atoms: C_1  and  N_2
REMARK    2  A    between atoms: N_5  and  C_6
REMARK    3  A    between atoms: C_6  and  C_7
REMARK                            x       y       z     vdW  Elec       q    Type
REMARK                         _______ _______ _______ _____ _____    ______ ____
ROOT
ATOM      1  C   UNL     1       5.830   4.431  15.888  0.00  0.00    +0.000 A 
ATOM      2  C   UNL     1       6.752   5.350  16.353  0.00  0.00    +0.000 A 
ATOM      3  N   UNL     1       7.575   5.709  15.323  0.00  0.00    +0.000 N 
ATOM      4  C   UNL     1       7.223   5.040  14.176  0.00  0.00    +0.000 A 
ATOM      5  C   UNL     1       7.810   5.057  12.904  0.00  0.00    +0.000 A 
ATOM      6  C   UNL     1       7.227   4.276  11.907  0.00  0.00    +0.000 A 
ATOM      7  C   UNL     1       6.077   3.534  12.161  0.00  0.00    +0.000 A 
ATOM      8  C   UNL     1       5.495   3.529  13.437  0.00  0.00    +0.000 A 
ATOM      9  C   UNL     1       6.093   4.270  14.479  0.00  0.00    +0.000 A 
ATOM     10  H   UNL     1       8.343   6.358  15.389  0.00  0.00    +0.000 HD
ENDROOT
BRANCH   1  11
ATOM     11  C   UNL     1       4.765   3.744  16.700  0.00  0.00    +0.000 C 
BRANCH  11  16
ATOM     12  C   UNL     1       0.749   2.461  18.961  0.00  0.00    +0.000 C 
ATOM     13  N   UNL     1       1.871   3.392  19.021  0.00  0.00    +0.000 NA
ATOM     14  C   UNL     1       1.887   4.294  17.854  0.00  0.00    +0.000 C 
ATOM     15  C   UNL     1       3.149   5.201  17.799  0.00  0.00    +0.000 C 
ATOM     16  N   UNL     1       4.445   4.491  17.935  0.00  0.00    +0.000 NA
ATOM     17  C   UNL     1       4.349   3.633  19.137  0.00  0.00    +0.000 C 
ATOM     18  C   UNL     1       3.148   2.664  19.125  0.00  0.00    +0.000 C 
ENDBRANCH  11  16
ENDBRANCH   1  11
TORSDOF 2
ENDMDL
MODEL 2
REMARK VINA RESULT:      -7.0      0.947      1.213
REMARK  Name = 
REMARK  3 active torsions:
REMARK  status: ('A' for Active; 'I' for Inactive)
REMARK    1  A    between atoms: C_1  and  N_2
REMARK    2  A    between atoms: N_5  and  C_6
REMARK    3  A    between atoms: C_6  and  C_7
REMARK                            x       y       z     vdW  Elec       q    Type
REMARK                         _______ _______ _______ _____ _____    ______ ____
ROOT
ATOM      1  C   UNL     1       5.347   4.632  15.963  0.00  0.00    +0.000 A 
ATOM      2  C   UNL     1       6.340   5.450  16.469  0.00  0.00    +0.000 A 
ATOM      3  N   UNL     1       7.289   5.637  15.505  0.00  0.00    +0.000 N 
ATOM      4  C   UNL     1       6.953   4.953  14.362  0.00  0.00    +0.000 A 
ATOM      5  C   UNL     1       7.645   4.819  13.152  0.00  0.00    +0.000 A 
ATOM      6  C   UNL     1       7.051   4.062  12.143  0.00  0.00    +0.000 A 
ATOM      7  C   UNL     1       5.794   3.491  12.322  0.00  0.00    +0.000 A 
ATOM      8  C   UNL     1       5.108   3.637  13.536  0.00  0.00    +0.000 A 
ATOM      9  C   UNL     1       5.707   4.356  14.594  0.00  0.00    +0.000 A 
ATOM     10  H   UNL     1       8.129   6.185  15.612  0.00  0.00    +0.000 HD
ENDROOT
BRANCH   1  11
ATOM     11  C   UNL     1       4.132   4.137  16.703  0.00  0.00    +0.000 C 
BRANCH  11  16
ATOM     12  C   UNL     1       0.980   3.621  20.264  0.00  0.00    +0.000 C 
ATOM     13  N   UNL     1       2.271   3.147  19.775  0.00  0.00    +0.000 NA
ATOM     14  C   UNL     1       3.263   4.239  19.728  0.00  0.00    +0.000 C 
ATOM     15  C   UNL     1       4.608   3.815  19.072  0.00  0.00    +0.000 C 
ATOM     16  N   UNL     1       4.486   3.154  17.749  0.00  0.00    +0.000 NA
ATOM     17  C   UNL     1       3.496   2.064  17.895  0.00  0.00    +0.000 C 
ATOM     18  C   UNL     1       2.131   2.523  18.448  0.00  0.00    +0.000 C 
ENDBRANCH  11  16
ENDBRANCH   1  11
TORSDOF 2
ENDMDL
MODEL 3
REMARK VINA RESULT:      -6.9      2.438      3.804
REMARK  Name = 
REMARK  3 active torsions:
REMARK  status: ('A' for Active; 'I' for Inactive)
REMARK    1  A    between atoms: C_1  and  N_2
REMARK    2  A    between atoms: N_5  and  C_6
REMARK    3  A    between atoms: C_6  and  C_7
REMARK                            x       y       z     vdW  Elec       q    Type
REMARK                         _______ _______ _______ _____ _____    ______ ____
ROOT
ATOM      1  C   UNL     1       5.120   4.699  17.059  0.00  0.00    +0.000 A 
ATOM      2  C   UNL     1       4.927   5.379  15.870  0.00  0.00    +0.000 A 
ATOM      3  N   UNL     1       5.797   6.431  15.819  0.00  0.00    +0.000 N 
ATOM      4  C   UNL     1       6.565   6.472  16.956  0.00  0.00    +0.000 A 
ATOM      5  C   UNL     1       7.542   7.394  17.355  0.00  0.00    +0.000 A 
ATOM      6  C   UNL     1       8.181   7.179  18.575  0.00  0.00    +0.000 A 
ATOM      7  C   UNL     1       7.883   6.064  19.353  0.00  0.00    +0.000 A 
ATOM      8  C   UNL     1       6.907   5.145  18.941  0.00  0.00    +0.000 A 
ATOM      9  C   UNL     1       6.207   5.363  17.734  0.00  0.00    +0.000 A 
ATOM     10  H   UNL     1       5.863   7.098  15.065  0.00  0.00    +0.000 HD
ENDROOT
BRANCH   1  11
ATOM     11  C   UNL     1       4.344   3.502  17.539  0.00  0.00    +0.000 C 
BRANCH  11  16
ATOM     12  C   UNL     1       1.830   2.921  21.568  0.00  0.00    +0.000 C 
ATOM     13  N   UNL     1       1.699   3.244  20.150  0.00  0.00    +0.000 NA
ATOM     14  C   UNL     1       2.129   2.119  19.298  0.00  0.00    +0.000 C 
ATOM     15  C   UNL     1       2.148   2.471  17.784  0.00  0.00    +0.000 C 
ATOM     16  N   UNL     1       2.885   3.711  17.432  0.00  0.00    +0.000 NA
ATOM     17  C   UNL     1       2.375   4.786  18.313  0.00  0.00    +0.000 C 
ATOM     18  C   UNL     1       2.462   4.460  19.819  0.00  0.00    +0.000 C 
ENDBRANCH  11  16
ENDBRANCH   1  11
TORSDOF 2
ENDMDL
MODEL 4
REMARK VINA RESULT:      -6.8      0.986      1.381
REMARK  Name = 
REMARK  3 active torsions:
REMARK  status: ('A' for Active; 'I' for Inactive)
REMARK    1  A    between atoms: C_1  and  N_2
REMARK    2  A    between atoms: N_5  and  C_6
REMARK    3  A    between atoms: C_6  and  C_7
REMARK                            x       y       z     vdW  Elec       q    Type
REMARK                         _______ _______ _______ _____ _____    ______ ____
ROOT
ATOM      1  C   UNL     1       5.817   4.462  16.219  0.00  0.00    +0.000 A 
ATOM      2  C   UNL     1       6.796   5.356  16.613  0.00  0.00    +0.000 A 
ATOM      3  N   UNL     1       7.568   5.670  15.530  0.00  0.00    +0.000 N 
ATOM      4  C   UNL     1       7.126   4.995  14.418  0.00  0.00    +0.000 A 
ATOM      5  C   UNL     1       7.637   4.971  13.114  0.00  0.00    +0.000 A 
ATOM      6  C   UNL     1       6.970   4.194  12.167  0.00  0.00    +0.000 A 
ATOM      7  C   UNL     1       5.813   3.497  12.501  0.00  0.00    +0.000 A 
ATOM      8  C   UNL     1       5.308   3.533  13.809  0.00  0.00    +0.000 A 
ATOM      9  C   UNL     1       5.991   4.270  14.801  0.00  0.00    +0.000 A 
ATOM     10  H   UNL     1       8.359   6.293  15.538  0.00  0.00    +0.000 HD
ENDROOT
BRANCH   1  11
ATOM     11  C   UNL     1       4.780   3.826  17.106  0.00  0.00    +0.000 C 
BRANCH  11  16
ATOM     12  C   UNL     1       2.289   3.905  21.189  0.00  0.00    +0.000 C 
ATOM     13  N   UNL     1       2.265   4.360  19.802  0.00  0.00    +0.000 NA
ATOM     14  C   UNL     1       2.237   3.224  18.862  0.00  0.00    +0.000 C 
ATOM     15  C   UNL     1       2.363   3.657  17.374  0.00  0.00    +0.000 C 
ATOM     16  N   UNL     1       3.499   4.563  17.073  0.00  0.00    +0.000 NA
ATOM     17  C   UNL     1       3.436   5.680  18.043  0.00  0.00    +0.000 C 
ATOM     18  C   UNL     1       3.418   5.232  19.519  0.00  0.00    +0.000 C 
ENDBRANCH  11  16
ENDBRANCH   1  11
TORSDOF 2
ENDMDL
MODEL 5
REMARK VINA RESULT:      -6.8      2.232      6.576
REMARK  Name = 
REMARK  3 active torsions:
REMARK  status: ('A' for Active; 'I' for Inactive)
REMARK    1  A    between atoms: C_1  and  N_2
REMARK    2  A    between atoms: N_5  and  C_6
REMARK    3  A    between atoms: C_6  and  C_7
REMARK                            x       y       z     vdW  Elec       q    Type
REMARK                         _______ _______ _______ _____ _____    ______ ____
ROOT
ATOM      1  C   UNL     1       4.057   3.202  18.184  0.00  0.00    +0.000 A 
ATOM      2  C   UNL     1       3.571   1.989  17.732  0.00  0.00    +0.000 A 
ATOM      3  N   UNL     1       2.337   1.777  18.278  0.00  0.00    +0.000 N 
ATOM      4  C   UNL     1       1.990   2.825  19.095  0.00  0.00    +0.000 A 
ATOM      5  C   UNL     1       0.853   3.013  19.891  0.00  0.00    +0.000 A 
ATOM      6  C   UNL     1       0.756   4.196  20.621  0.00  0.00    +0.000 A 
ATOM      7  C   UNL     1       1.741   5.175  20.531  0.00  0.00    +0.000 A 
ATOM      8  C   UNL     1       2.873   4.978  19.726  0.00  0.00    +0.000 A 
ATOM      9  C   UNL     1       3.023   3.768  19.015  0.00  0.00    +0.000 A 
ATOM     10  H   UNL     1       1.763   0.964  18.123  0.00  0.00    +0.000 HD
ENDROOT
BRANCH   1  11
ATOM     11  C   UNL     1       5.399   3.804  17.863  0.00  0.00    +0.000 C 
BRANCH  11  16
ATOM     12  C   UNL     1       7.622   8.029  17.551  0.00  0.00    +0.000 C 
ATOM     13  N   UNL     1       6.882   7.042  16.770  0.00  0.00    +0.000 NA
ATOM     14  C   UNL     1       5.499   6.893  17.260  0.00  0.00    +0.000 C 
ATOM     15  C   UNL     1       4.721   5.746  16.555  0.00  0.00    +0.000 C 
ATOM     16  N   UNL     1       5.415   4.435  16.526  0.00  0.00    +0.000 NA
ATOM     17  C   UNL     1       6.778   4.674  16.001  0.00  0.00    +0.000 C 
ATOM     18  C   UNL     1       7.574   5.741  16.781  0.00  0.00    +0.000 C 
ENDBRANCH  11  16
ENDBRANCH   1  11
TORSDOF 2
ENDMDL
MODEL 6
REMARK VINA RESULT:      -6.6      2.166      6.548
REMARK  Name = 
REMARK  3 active torsions:
REMARK  status: ('A' for Active; 'I' for Inactive)
REMARK    1  A    between atoms: C_1  and  N_2
REMARK    2  A    between atoms: N_5  and  C_6
REMARK    3  A    between atoms: C_6  and  C_7
REMARK                            x       y       z     vdW  Elec       q    Type
REMARK                         _______ _______ _______ _____ _____    ______ ____
ROOT
ATOM      1  C   UNL     1       3.450   3.583  17.437  0.00  0.00    +0.000 A 
ATOM      2  C   UNL     1       3.082   2.272  17.195  0.00  0.00    +0.000 A 
ATOM      3  N   UNL     1       2.177   1.887  18.143  0.00  0.00    +0.000 N 
ATOM      4  C   UNL     1       1.936   2.916  19.020  0.00  0.00    +0.000 A 
ATOM      5  C   UNL     1       1.127   2.959  20.163  0.00  0.00    +0.000 A 
ATOM      6  C   UNL     1       1.061   4.159  20.869  0.00  0.00    +0.000 A 
ATOM      7  C   UNL     1       1.747   5.287  20.428  0.00  0.00    +0.000 A 
ATOM      8  C   UNL     1       2.549   5.234  19.279  0.00  0.00    +0.000 A 
ATOM      9  C   UNL     1       2.676   4.018  18.573  0.00  0.00    +0.000 A 
ATOM     10  H   UNL     1       1.752   0.975  18.207  0.00  0.00    +0.000 HD
ENDROOT
BRANCH   1  11
ATOM     11  C   UNL     1       4.457   4.387  16.658  0.00  0.00    +0.000 C 
BRANCH  11  16
ATOM     12  C   UNL     1       7.653   7.843  17.509  0.00  0.00    +0.000 C 
ATOM     13  N   UNL     1       7.508   6.395  17.392  0.00  0.00    +0.000 NA
ATOM     14  C   UNL     1       7.086   6.004  16.034  0.00  0.00    +0.000 C 
ATOM     15  C   UNL     1       6.773   4.486  15.904  0.00  0.00    +0.000 C 
ATOM     16  N   UNL     1       5.842   3.943  16.924  0.00  0.00    +0.000 NA
ATOM     17  C   UNL     1       6.352   4.361  18.249  0.00  0.00    +0.000 C 
ATOM     18  C   UNL     1       6.556   5.883  18.393  0.00  0.00    +0.000 C 
ENDBRANCH  11  16
ENDBRANCH   1  11
TORSDOF 2
ENDMDL
MODEL 7
REMARK VINA RESULT:      -6.5      1.644      6.369
REMARK  Name = 
REMARK  3 active torsions:
REMARK  status: ('A' for Active; 'I' for Inactive)
REMARK    1  A    between atoms: C_1  and  N_2
REMARK    2  A    between atoms: N_5  and  C_6
REMARK    3  A    between atoms: C_6  and  C_7
REMARK                            x       y       z     vdW  Elec       q    Type
REMARK                         _______ _______ _______ _____ _____    ______ ____
ROOT
ATOM      1  C   UNL     1       3.067   5.799  18.658  0.00  0.00    +0.000 A 
ATOM      2  C   UNL     1       2.849   6.514  19.821  0.00  0.00    +0.000 A 
ATOM      3  N   UNL     1       2.021   5.792  20.634  0.00  0.00    +0.000 N 
ATOM      4  C   UNL     1       1.675   4.607  20.032  0.00  0.00    +0.000 A 
ATOM      5  C   UNL     1       0.819   3.588  20.468  0.00  0.00    +0.000 A 
ATOM      6  C   UNL     1       0.659   2.474  19.644  0.00  0.00    +0.000 A 
ATOM      7  C   UNL     1       1.359   2.364  18.447  0.00  0.00    +0.000 A 
ATOM      8  C   UNL     1       2.219   3.388  18.023  0.00  0.00    +0.000 A 
ATOM      9  C   UNL     1       2.361   4.551  18.811  0.00  0.00    +0.000 A 
ATOM     10  H   UNL     1       1.693   6.085  21.540  0.00  0.00    +0.000 HD
ENDROOT
BRANCH   1  11
ATOM     11  C   UNL     1       3.884   6.245  17.474  0.00  0.00    +0.000 C 
BRANCH  11  16
ATOM     12  C   UNL     1       6.190   3.867  14.022  0.00  0.00    +0.000 C 
ATOM     13  N   UNL     1       6.378   4.506  15.321  0.00  0.00    +0.000 NA
ATOM     14  C   UNL     1       5.587   3.837  16.371  0.00  0.00    +0.000 C 
ATOM     15  C   UNL     1       5.640   4.574  17.740  0.00  0.00    +0.000 C 
ATOM     16  N   UNL     1       5.330   6.025  17.689  0.00  0.00    +0.000 NA
ATOM     17  C   UNL     1       6.181   6.616  16.631  0.00  0.00    +0.000 C 
ATOM     18  C   UNL     1       6.036   5.937  15.254  0.00  0.00    +0.000 C 
ENDBRANCH  11  16
ENDBRANCH   1  11
TORSDOF 2
ENDMDL
MODEL 8
REMARK VINA RESULT:      -6.4      2.627      6.679
REMARK  Name = 
REMARK  3 active torsions:
REMARK  status: ('A' for Active; 'I' for Inactive)
REMARK    1  A    between atoms: C_1  and  N_2
REMARK    2  A    between atoms: N_5  and  C_6
REMARK    3  A    between atoms: C_6  and  C_7
REMARK                            x       y       z     vdW  Elec       q    Type
REMARK                         _______ _______ _______ _____ _____    ______ ____
ROOT
ATOM      1  C   UNL     1       2.976   4.232  17.891  0.00  0.00    +0.000 A 
ATOM      2  C   UNL     1       2.601   3.149  17.117  0.00  0.00    +0.000 A 
ATOM      3  N   UNL     1       2.015   2.214  17.921  0.00  0.00    +0.000 N 
ATOM      4  C   UNL     1       1.997   2.648  19.224  0.00  0.00    +0.000 A 
ATOM      5  C   UNL     1       1.544   2.007  20.384  0.00  0.00    +0.000 A 
ATOM      6  C   UNL     1       1.637   2.700  21.591  0.00  0.00    +0.000 A 
ATOM      7  C   UNL     1       2.130   4.001  21.632  0.00  0.00    +0.000 A 
ATOM      8  C   UNL     1       2.576   4.634  20.462  0.00  0.00    +0.000 A 
ATOM      9  C   UNL     1       2.541   3.939  19.234  0.00  0.00    +0.000 A 
ATOM     10  H   UNL     1       1.659   1.322  17.615  0.00  0.00    +0.000 HD
ENDROOT
BRANCH   1  11
ATOM     11  C   UNL     1       3.692   5.467  17.414  0.00  0.00    +0.000 C 
BRANCH  11  16
ATOM     12  C   UNL     1       8.105   6.755  18.737  0.00  0.00    +0.000 C 
ATOM     13  N   UNL     1       7.352   6.119  17.660  0.00  0.00    +0.000 NA
ATOM     14  C   UNL     1       6.387   7.054  17.051  0.00  0.00    +0.000 C 
ATOM     15  C   UNL     1       5.458   6.378  16.003  0.00  0.00    +0.000 C 
ATOM     16  N   UNL     1       4.777   5.143  16.464  0.00  0.00    +0.000 NA
ATOM     17  C   UNL     1       5.818   4.258  17.035  0.00  0.00    +0.000 C 
ATOM     18  C   UNL     1       6.660   4.913  18.149  0.00  0.00    +0.000 C 
ENDBRANCH  11  16
ENDBRANCH   1  11
TORSDOF 2
ENDMDL
MODEL 9
REMARK VINA RESULT:      -6.4      2.720      6.853
REMARK  Name = 
REMARK  3 active torsions:
REMARK  status: ('A' for Active; 'I' for Inactive)
REMARK    1  A    between atoms: C_1  and  N_2
REMARK    2  A    between atoms: N_5  and  C_6
REMARK    3  A    between atoms: C_6  and  C_7
REMARK                            x       y       z     vdW  Elec       q    Type
REMARK                         _______ _______ _______ _____ _____    ______ ____
ROOT
ATOM      1  C   UNL     1       3.219   5.802  18.995  0.00  0.00    +0.000 A 
ATOM      2  C   UNL     1       2.920   5.208  20.207  0.00  0.00    +0.000 A 
ATOM      3  N   UNL     1       2.122   6.052  20.926  0.00  0.00    +0.000 N 
ATOM      4  C   UNL     1       1.886   7.206  20.218  0.00  0.00    +0.000 A 
ATOM      5  C   UNL     1       1.173   8.356  20.577  0.00  0.00    +0.000 A 
ATOM      6  C   UNL     1       1.085   9.386  19.641  0.00  0.00    +0.000 A 
ATOM      7  C   UNL     1       1.656   9.257  18.379  0.00  0.00    +0.000 A 
ATOM      8  C   UNL     1       2.364   8.098  18.030  0.00  0.00    +0.000 A 
ATOM      9  C   UNL     1       2.513   7.059  18.974  0.00  0.00    +0.000 A 
ATOM     10  H   UNL     1       1.765   5.871  21.851  0.00  0.00    +0.000 HD
ENDROOT
BRANCH   1  11
ATOM     11  C   UNL     1       4.103   5.235  17.916  0.00  0.00    +0.000 C 
BRANCH  11  16
ATOM     12  C   UNL     1       6.670   4.424  13.961  0.00  0.00    +0.000 C 
ATOM     13  N   UNL     1       6.664   5.178  15.210  0.00  0.00    +0.000 NA
ATOM     14  C   UNL     1       6.683   4.282  16.382  0.00  0.00    +0.000 C 
ATOM     15  C   UNL     1       6.526   5.037  17.732  0.00  0.00    +0.000 C 
ATOM     16  N   UNL     1       5.378   5.975  17.803  0.00  0.00    +0.000 NA
ATOM     17  C   UNL     1       5.452   6.847  16.609  0.00  0.00    +0.000 C 
ATOM     18  C   UNL     1       5.500   6.080  15.272  0.00  0.00    +0.000 C 
ENDBRANCH  11  16
ENDBRANCH   1  11
TORSDOF 2
ENDMDL
