MODEL 1
REMARK VINA RESULT:      -8.7      0.000      0.000
REMARK  Name = 
REMARK  2 active torsions:
REMARK  status: ('A' for Active; 'I' for Inactive)
REMARK    1  A    between atoms: C_2  and  C_19
REMARK    2  A    between atoms: C_10  and  C_12
REMARK                            x       y       z     vdW  Elec       q    Type
REMARK                         _______ _______ _______ _____ _____    ______ ____
ROOT
ATOM      1  O   UNL     1       3.964   5.155  17.194  0.00  0.00    +0.000 OA
ATOM      2  C   UNL     1       4.276   4.873  18.348  0.00  0.00    +0.000 C 
ATOM      3  N   UNL     1       5.496   5.168  18.903  0.00  0.00    +0.000 N 
ATOM      4  C   UNL     1       6.475   5.885  18.235  0.00  0.00    +0.000 A 
ATOM      5  N   UNL     1       7.345   6.595  18.956  0.00  0.00    +0.000 NA
ATOM      6  O   UNL     1       8.143   7.240  18.025  0.00  0.00    +0.000 OA
ATOM      7  N   UNL     1       7.829   6.848  16.742  0.00  0.00    +0.000 NA
ATOM      8  C   UNL     1       6.816   5.986  16.850  0.00  0.00    +0.000 A 
ATOM      9  N   UNL     1       6.268   5.271  15.788  0.00  0.00    +0.000 N 
ATOM     10  C   UNL     1       6.939   5.107  14.585  0.00  0.00    +0.000 C 
ATOM     11  O   UNL     1       8.040   5.575  14.312  0.00  0.00    +0.000 OA
ATOM     12  H   UNL     1       5.634   5.148  19.903  0.00  0.00    +0.000 HD
ATOM     13  H   UNL     1       5.418   4.758  15.996  0.00  0.00    +0.000 HD
ENDROOT
BRANCH  10  14
ATOM     14  C   UNL     1       6.317   4.214  13.571  0.00  0.00    +0.000 A 
ATOM     15  C   UNL     1       4.939   4.012  13.465  0.00  0.00    +0.000 A 
ATOM     16  C   UNL     1       4.430   3.208  12.438  0.00  0.00    +0.000 A 
ATOM     17  C   UNL     1       5.295   2.602  11.531  0.00  0.00    +0.000 A 
ATOM     18  F   UNL     1       4.798   1.841  10.547  0.00  0.00    +0.000 F 
ATOM     19  C   UNL     1       6.669   2.780  11.629  0.00  0.00    +0.000 A 
ATOM     20  C   UNL     1       7.180   3.587  12.645  0.00  0.00    +0.000 A 
ENDBRANCH  10  14
BRANCH   2  21
ATOM     21  C   UNL     1       3.274   4.189  19.225  0.00  0.00    +0.000 A 
ATOM     22  C   UNL     1       3.757   3.223  20.125  0.00  0.00    +0.000 A 
ATOM     23  C   UNL     1       2.900   2.614  21.044  0.00  0.00    +0.000 A 
ATOM     24  C   UNL     1       1.557   2.960  21.055  0.00  0.00    +0.000 A 
ATOM     25  F   UNL     1       0.737   2.398  21.951  0.00  0.00    +0.000 F 
ATOM     26  C   UNL     1       1.052   3.893  20.155  0.00  0.00    +0.000 A 
ATOM     27  C   UNL     1       1.908   4.511  19.236  0.00  0.00    +0.000 A 
ENDBRANCH   2  21
TORSDOF 2
ENDMDL
MODEL 2
REMARK VINA RESULT:      -8.6      3.622      7.959
REMARK  Name = 
REMARK  2 active torsions:
REMARK  status: ('A' for Active; 'I' for Inactive)
REMARK    1  A    between atoms: C_2  and  C_19
REMARK    2  A    between atoms: C_10  and  C_12
REMARK                            x       y       z     vdW  Elec       q    Type
REMARK                         _______ _______ _______ _____ _____    ______ ____
ROOT
ATOM      1  O   UNL     1       3.654   4.785  16.671  0.00  0.00    +0.000 OA
ATOM      2  C   UNL     1       4.771   4.278  16.731  0.00  0.00    +0.000 C 
ATOM      3  N   UNL     1       5.254   3.624  17.838  0.00  0.00    +0.000 N 
ATOM      4  C   UNL     1       4.494   3.404  18.975  0.00  0.00    +0.000 A 
ATOM      5  N   UNL     1       4.781   2.345  19.735  0.00  0.00    +0.000 NA
ATOM      6  O   UNL     1       3.829   2.355  20.742  0.00  0.00    +0.000 OA
ATOM      7  N   UNL     1       3.026   3.472  20.657  0.00  0.00    +0.000 NA
ATOM      8  C   UNL     1       3.439   4.152  19.585  0.00  0.00    +0.000 A 
ATOM      9  N   UNL     1       2.958   5.403  19.207  0.00  0.00    +0.000 N 
ATOM     10  C   UNL     1       2.269   6.224  20.087  0.00  0.00    +0.000 C 
ATOM     11  O   UNL     1       1.988   5.951  21.249  0.00  0.00    +0.000 OA
ATOM     12  H   UNL     1       6.058   3.017  17.776  0.00  0.00    +0.000 HD
ATOM     13  H   UNL     1       3.266   5.735  18.299  0.00  0.00    +0.000 HD
ENDROOT
BRANCH  10  14
ATOM     14  C   UNL     1       1.919   7.591  19.614  0.00  0.00    +0.000 A 
ATOM     15  C   UNL     1       2.174   8.046  18.318  0.00  0.00    +0.000 A 
ATOM     16  C   UNL     1       1.750   9.324  17.934  0.00  0.00    +0.000 A 
ATOM     17  C   UNL     1       1.087  10.144  18.842  0.00  0.00    +0.000 A 
ATOM     18  F   UNL     1       0.679  11.362  18.462  0.00  0.00    +0.000 F 
ATOM     19  C   UNL     1       0.837   9.714  20.139  0.00  0.00    +0.000 A 
ATOM     20  C   UNL     1       1.249   8.439  20.524  0.00  0.00    +0.000 A 
ENDBRANCH  10  14
BRANCH   2  21
ATOM     21  C   UNL     1       5.666   4.345  15.534  0.00  0.00    +0.000 A 
ATOM     22  C   UNL     1       5.246   3.671  14.374  0.00  0.00    +0.000 A 
ATOM     23  C   UNL     1       5.977   3.771  13.188  0.00  0.00    +0.000 A 
ATOM     24  C   UNL     1       7.135   4.534  13.164  0.00  0.00    +0.000 A 
ATOM     25  F   UNL     1       7.823   4.652  12.023  0.00  0.00    +0.000 F 
ATOM     26  C   UNL     1       7.584   5.187  14.307  0.00  0.00    +0.000 A 
ATOM     27  C   UNL     1       6.852   5.096  15.497  0.00  0.00    +0.000 A 
ENDBRANCH   2  21
TORSDOF 2
ENDMDL
MODEL 3
REMARK VINA RESULT:      -8.6      0.256      1.000
REMARK  Name = 
REMARK  2 active torsions:
REMARK  status: ('A' for Active; 'I' for Inactive)
REMARK    1  A    between atoms: C_2  and  C_19
REMARK    2  A    between atoms: C_10  and  C_12
REMARK                            x       y       z     vdW  Elec       q    Type
REMARK                         _______ _______ _______ _____ _____    ______ ____
ROOT
ATOM      1  O   UNL     1       4.055   5.192  16.935  0.00  0.00    +0.000 OA
ATOM      2  C   UNL     1       4.342   4.915  18.096  0.00  0.00    +0.000 C 
ATOM      3  N   UNL     1       5.541   5.233  18.683  0.00  0.00    +0.000 N 
ATOM      4  C   UNL     1       6.522   5.972  18.042  0.00  0.00    +0.000 A 
ATOM      5  N   UNL     1       7.358   6.699  18.786  0.00  0.00    +0.000 NA
ATOM      6  O   UNL     1       8.167   7.362  17.878  0.00  0.00    +0.000 OA
ATOM      7  N   UNL     1       7.894   6.966  16.586  0.00  0.00    +0.000 NA
ATOM      8  C   UNL     1       6.897   6.083  16.667  0.00  0.00    +0.000 A 
ATOM      9  N   UNL     1       6.392   5.358  15.590  0.00  0.00    +0.000 N 
ATOM     10  C   UNL     1       7.097   5.212  14.404  0.00  0.00    +0.000 C 
ATOM     11  O   UNL     1       8.195   5.702  14.160  0.00  0.00    +0.000 OA
ATOM     12  H   UNL     1       5.653   5.215  19.687  0.00  0.00    +0.000 HD
ATOM     13  H   UNL     1       5.547   4.828  15.775  0.00  0.00    +0.000 HD
ENDROOT
BRANCH  10  14
ATOM     14  C   UNL     1       6.520   4.308  13.373  0.00  0.00    +0.000 A 
ATOM     15  C   UNL     1       7.290   3.636  12.421  0.00  0.00    +0.000 A 
ATOM     16  C   UNL     1       6.675   2.749  11.528  0.00  0.00    +0.000 A 
ATOM     17  C   UNL     1       5.298   2.547  11.580  0.00  0.00    +0.000 A 
ATOM     18  F   UNL     1       4.721   1.691  10.726  0.00  0.00    +0.000 F 
ATOM     19  C   UNL     1       4.515   3.217  12.510  0.00  0.00    +0.000 A 
ATOM     20  C   UNL     1       5.124   4.094  13.407  0.00  0.00    +0.000 A 
ENDBRANCH  10  14
BRANCH   2  21
ATOM     21  C   UNL     1       3.333   4.208  18.946  0.00  0.00    +0.000 A 
ATOM     22  C   UNL     1       3.818   3.318  19.920  0.00  0.00    +0.000 A 
ATOM     23  C   UNL     1       2.945   2.697  20.815  0.00  0.00    +0.000 A 
ATOM     24  C   UNL     1       1.584   2.957  20.730  0.00  0.00    +0.000 A 
ATOM     25  F   UNL     1       0.747   2.384  21.604  0.00  0.00    +0.000 F 
ATOM     26  C   UNL     1       1.080   3.812  19.757  0.00  0.00    +0.000 A 
ATOM     27  C   UNL     1       1.951   4.442  18.860  0.00  0.00    +0.000 A 
ENDBRANCH   2  21
TORSDOF 2
ENDMDL
MODEL 4
REMARK VINA RESULT:      -8.3     12.039     13.532
REMARK  Name = 
REMARK  2 active torsions:
REMARK  status: ('A' for Active; 'I' for Inactive)
REMARK    1  A    between atoms: C_2  and  C_19
REMARK    2  A    between atoms: C_10  and  C_12
REMARK                            x       y       z     vdW  Elec       q    Type
REMARK                         _______ _______ _______ _____ _____    ______ ____
ROOT
ATOM      1  O   UNL     1       6.643  10.045  28.082  0.00  0.00    +0.000 OA
ATOM      2  C   UNL     1       6.053  10.733  27.252  0.00  0.00    +0.000 C 
ATOM      3  N   UNL     1       4.744  10.536  26.889  0.00  0.00    +0.000 N 
ATOM      4  C   UNL     1       3.931   9.585  27.484  0.00  0.00    +0.000 A 
ATOM      5  N   UNL     1       2.615   9.802  27.510  0.00  0.00    +0.000 NA
ATOM      6  O   UNL     1       2.087   8.730  28.211  0.00  0.00    +0.000 OA
ATOM      7  N   UNL     1       3.063   7.809  28.525  0.00  0.00    +0.000 NA
ATOM      8  C   UNL     1       4.211   8.305  28.057  0.00  0.00    +0.000 A 
ATOM      9  N   UNL     1       5.429   7.631  28.073  0.00  0.00    +0.000 N 
ATOM     10  C   UNL     1       5.510   6.257  28.242  0.00  0.00    +0.000 C 
ATOM     11  O   UNL     1       4.559   5.502  28.418  0.00  0.00    +0.000 OA
ATOM     12  H   UNL     1       4.224  11.252  26.402  0.00  0.00    +0.000 HD
ATOM     13  H   UNL     1       6.239   8.182  27.810  0.00  0.00    +0.000 HD
ENDROOT
BRANCH  10  14
ATOM     14  C   UNL     1       6.852   5.629  28.109  0.00  0.00    +0.000 A 
ATOM     15  C   UNL     1       7.082   4.448  27.399  0.00  0.00    +0.000 A 
ATOM     16  C   UNL     1       8.387   3.960  27.264  0.00  0.00    +0.000 A 
ATOM     17  C   UNL     1       9.453   4.642  27.847  0.00  0.00    +0.000 A 
ATOM     18  F   UNL     1      10.698   4.171  27.707  0.00  0.00    +0.000 F 
ATOM     19  C   UNL     1       9.241   5.808  28.570  0.00  0.00    +0.000 A 
ATOM     20  C   UNL     1       7.943   6.304  28.699  0.00  0.00    +0.000 A 
ENDBRANCH  10  14
BRANCH   2  21
ATOM     21  C   UNL     1       6.778  11.870  26.603  0.00  0.00    +0.000 A 
ATOM     22  C   UNL     1       7.172  12.939  27.427  0.00  0.00    +0.000 A 
ATOM     23  C   UNL     1       7.939  13.988  26.914  0.00  0.00    +0.000 A 
ATOM     24  C   UNL     1       8.302  13.975  25.575  0.00  0.00    +0.000 A 
ATOM     25  F   UNL     1       9.058  14.965  25.087  0.00  0.00    +0.000 F 
ATOM     26  C   UNL     1       7.900  12.941  24.736  0.00  0.00    +0.000 A 
ATOM     27  C   UNL     1       7.136  11.884  25.246  0.00  0.00    +0.000 A 
ENDBRANCH   2  21
TORSDOF 2
ENDMDL
MODEL 5
REMARK VINA RESULT:      -8.0      3.576      7.872
REMARK  Name = 
REMARK  2 active torsions:
REMARK  status: ('A' for Active; 'I' for Inactive)
REMARK    1  A    between atoms: C_2  and  C_19
REMARK    2  A    between atoms: C_10  and  C_12
REMARK                            x       y       z     vdW  Elec       q    Type
REMARK                         _______ _______ _______ _____ _____    ______ ____
ROOT
ATOM      1  O   UNL     1       3.502   4.722  16.700  0.00  0.00    +0.000 OA
ATOM      2  C   UNL     1       4.638   4.254  16.685  0.00  0.00    +0.000 C 
ATOM      3  N   UNL     1       5.207   3.599  17.748  0.00  0.00    +0.000 N 
ATOM      4  C   UNL     1       4.524   3.330  18.923  0.00  0.00    +0.000 A 
ATOM      5  N   UNL     1       4.892   2.269  19.644  0.00  0.00    +0.000 NA
ATOM      6  O   UNL     1       4.001   2.227  20.704  0.00  0.00    +0.000 OA
ATOM      7  N   UNL     1       3.155   3.315  20.689  0.00  0.00    +0.000 NA
ATOM      8  C   UNL     1       3.481   4.028  19.609  0.00  0.00    +0.000 A 
ATOM      9  N   UNL     1       2.935   5.268  19.284  0.00  0.00    +0.000 N 
ATOM     10  C   UNL     1       2.270   6.048  20.219  0.00  0.00    +0.000 C 
ATOM     11  O   UNL     1       2.068   5.743  21.390  0.00  0.00    +0.000 OA
ATOM     12  H   UNL     1       6.028   3.022  17.628  0.00  0.00    +0.000 HD
ATOM     13  H   UNL     1       3.176   5.627  18.367  0.00  0.00    +0.000 HD
ENDROOT
BRANCH  10  14
ATOM     14  C   UNL     1       1.844   7.409  19.795  0.00  0.00    +0.000 A 
ATOM     15  C   UNL     1       1.192   8.309  20.640  0.00  0.00    +0.000 A 
ATOM     16  C   UNL     1       0.887   9.597  20.183  0.00  0.00    +0.000 A 
ATOM     17  C   UNL     1       1.221   9.976  18.885  0.00  0.00    +0.000 A 
ATOM     18  F   UNL     1       0.932  11.213  18.460  0.00  0.00    +0.000 F 
ATOM     19  C   UNL     1       1.857   9.090  18.027  0.00  0.00    +0.000 A 
ATOM     20  C   UNL     1       2.172   7.809  18.480  0.00  0.00    +0.000 A 
ENDBRANCH  10  14
BRANCH   2  21
ATOM     21  C   UNL     1       5.458   4.376  15.440  0.00  0.00    +0.000 A 
ATOM     22  C   UNL     1       6.627   5.155  15.509  0.00  0.00    +0.000 A 
ATOM     23  C   UNL     1       7.494   5.234  14.418  0.00  0.00    +0.000 A 
ATOM     24  C   UNL     1       7.189   4.546  13.253  0.00  0.00    +0.000 A 
ATOM     25  F   UNL     1       8.032   4.599  12.215  0.00  0.00    +0.000 F 
ATOM     26  C   UNL     1       6.025   3.792  13.153  0.00  0.00    +0.000 A 
ATOM     27  C   UNL     1       5.154   3.704  14.245  0.00  0.00    +0.000 A 
ENDBRANCH   2  21
TORSDOF 2
ENDMDL
MODEL 6
REMARK VINA RESULT:      -7.9      4.096      5.660
REMARK  Name = 
REMARK  2 active torsions:
REMARK  status: ('A' for Active; 'I' for Inactive)
REMARK    1  A    between atoms: C_2  and  C_19
REMARK    2  A    between atoms: C_10  and  C_12
REMARK                            x       y       z     vdW  Elec       q    Type
REMARK                         _______ _______ _______ _____ _____    ______ ____
ROOT
ATOM      1  O   UNL     1       3.468   6.558  19.582  0.00  0.00    +0.000 OA
ATOM      2  C   UNL     1       2.267   6.744  19.758  0.00  0.00    +0.000 C 
ATOM      3  N   UNL     1       1.354   5.732  19.925  0.00  0.00    +0.000 N 
ATOM      4  C   UNL     1       1.713   4.396  19.987  0.00  0.00    +0.000 A 
ATOM      5  N   UNL     1       0.933   3.560  20.677  0.00  0.00    +0.000 NA
ATOM      6  O   UNL     1       1.573   2.333  20.611  0.00  0.00    +0.000 OA
ATOM      7  N   UNL     1       2.686   2.393  19.800  0.00  0.00    +0.000 NA
ATOM      8  C   UNL     1       2.775   3.656  19.379  0.00  0.00    +0.000 A 
ATOM      9  N   UNL     1       3.705   4.117  18.450  0.00  0.00    +0.000 N 
ATOM     10  C   UNL     1       4.391   3.257  17.605  0.00  0.00    +0.000 C 
ATOM     11  O   UNL     1       4.287   2.035  17.592  0.00  0.00    +0.000 OA
ATOM     12  H   UNL     1       0.437   5.913  20.306  0.00  0.00    +0.000 HD
ATOM     13  H   UNL     1       3.742   5.123  18.328  0.00  0.00    +0.000 HD
ENDROOT
BRANCH  10  14
ATOM     14  C   UNL     1       5.259   3.869  16.564  0.00  0.00    +0.000 A 
ATOM     15  C   UNL     1       6.471   4.504  16.847  0.00  0.00    +0.000 A 
ATOM     16  C   UNL     1       7.261   4.994  15.800  0.00  0.00    +0.000 A 
ATOM     17  C   UNL     1       6.836   4.861  14.481  0.00  0.00    +0.000 A 
ATOM     18  F   UNL     1       7.603   5.327  13.487  0.00  0.00    +0.000 F 
ATOM     19  C   UNL     1       5.628   4.246  14.181  0.00  0.00    +0.000 A 
ATOM     20  C   UNL     1       4.841   3.748  15.220  0.00  0.00    +0.000 A 
ENDBRANCH  10  14
BRANCH   2  21
ATOM     21  C   UNL     1       1.749   8.147  19.821  0.00  0.00    +0.000 A 
ATOM     22  C   UNL     1       1.759   8.893  18.629  0.00  0.00    +0.000 A 
ATOM     23  C   UNL     1       1.202  10.172  18.586  0.00  0.00    +0.000 A 
ATOM     24  C   UNL     1       0.645  10.712  19.736  0.00  0.00    +0.000 A 
ATOM     25  F   UNL     1       0.087  11.928  19.691  0.00  0.00    +0.000 F 
ATOM     26  C   UNL     1       0.649  10.003  20.932  0.00  0.00    +0.000 A 
ATOM     27  C   UNL     1       1.201   8.717  20.981  0.00  0.00    +0.000 A 
ENDBRANCH   2  21
TORSDOF 2
ENDMDL
MODEL 7
REMARK VINA RESULT:      -7.8      7.658      9.713
REMARK  Name = 
REMARK  2 active torsions:
REMARK  status: ('A' for Active; 'I' for Inactive)
REMARK    1  A    between atoms: C_2  and  C_19
REMARK    2  A    between atoms: C_10  and  C_12
REMARK                            x       y       z     vdW  Elec       q    Type
REMARK                         _______ _______ _______ _____ _____    ______ ____
ROOT
ATOM      1  O   UNL     1       1.082   9.408  19.289  0.00  0.00    +0.000 OA
ATOM      2  C   UNL     1       1.548   8.524  20.003  0.00  0.00    +0.000 C 
ATOM      3  N   UNL     1       1.418   8.499  21.369  0.00  0.00    +0.000 N 
ATOM      4  C   UNL     1       0.678   9.433  22.074  0.00  0.00    +0.000 A 
ATOM      5  N   UNL     1       0.139   9.068  23.239  0.00  0.00    +0.000 NA
ATOM      6  O   UNL     1      -0.581  10.173  23.666  0.00  0.00    +0.000 OA
ATOM      7  N   UNL     1      -0.401  11.244  22.816  0.00  0.00    +0.000 NA
ATOM      8  C   UNL     1       0.399  10.816  21.838  0.00  0.00    +0.000 A 
ATOM      9  N   UNL     1       0.915  11.623  20.827  0.00  0.00    +0.000 N 
ATOM     10  C   UNL     1       0.946  13.006  20.931  0.00  0.00    +0.000 C 
ATOM     11  O   UNL     1       0.517  13.661  21.876  0.00  0.00    +0.000 OA
ATOM     12  H   UNL     1       1.592   7.654  21.895  0.00  0.00    +0.000 HD
ATOM     13  H   UNL     1       1.395  11.136  20.078  0.00  0.00    +0.000 HD
ENDROOT
BRANCH  10  14
ATOM     14  C   UNL     1       1.639  13.758  19.851  0.00  0.00    +0.000 A 
ATOM     15  C   UNL     1       1.563  15.146  19.708  0.00  0.00    +0.000 A 
ATOM     16  C   UNL     1       2.302  15.784  18.705  0.00  0.00    +0.000 A 
ATOM     17  C   UNL     1       3.100  15.037  17.842  0.00  0.00    +0.000 A 
ATOM     18  F   UNL     1       3.809  15.658  16.890  0.00  0.00    +0.000 F 
ATOM     19  C   UNL     1       3.177  13.656  17.960  0.00  0.00    +0.000 A 
ATOM     20  C   UNL     1       2.450  13.017  18.964  0.00  0.00    +0.000 A 
ENDBRANCH  10  14
BRANCH   2  21
ATOM     21  C   UNL     1       2.285   7.389  19.366  0.00  0.00    +0.000 A 
ATOM     22  C   UNL     1       2.221   6.137  20.004  0.00  0.00    +0.000 A 
ATOM     23  C   UNL     1       2.799   5.009  19.418  0.00  0.00    +0.000 A 
ATOM     24  C   UNL     1       3.453   5.133  18.201  0.00  0.00    +0.000 A 
ATOM     25  F   UNL     1       3.985   4.049  17.624  0.00  0.00    +0.000 F 
ATOM     26  C   UNL     1       3.552   6.366  17.566  0.00  0.00    +0.000 A 
ATOM     27  C   UNL     1       2.969   7.500  18.145  0.00  0.00    +0.000 A 
ENDBRANCH   2  21
TORSDOF 2
ENDMDL
MODEL 8
REMARK VINA RESULT:      -7.7      4.183      5.662
REMARK  Name = 
REMARK  2 active torsions:
REMARK  status: ('A' for Active; 'I' for Inactive)
REMARK    1  A    between atoms: C_2  and  C_19
REMARK    2  A    between atoms: C_10  and  C_12
REMARK                            x       y       z     vdW  Elec       q    Type
REMARK                         _______ _______ _______ _____ _____    ______ ____
ROOT
ATOM      1  O   UNL     1       3.285   6.587  19.826  0.00  0.00    +0.000 OA
ATOM      2  C   UNL     1       2.104   6.720  20.138  0.00  0.00    +0.000 C 
ATOM      3  N   UNL     1       1.260   5.669  20.397  0.00  0.00    +0.000 N 
ATOM      4  C   UNL     1       1.679   4.349  20.406  0.00  0.00    +0.000 A 
ATOM      5  N   UNL     1       1.018   3.478  21.171  0.00  0.00    +0.000 NA
ATOM      6  O   UNL     1       1.697   2.279  21.023  0.00  0.00    +0.000 OA
ATOM      7  N   UNL     1       2.708   2.391  20.092  0.00  0.00    +0.000 NA
ATOM      8  C   UNL     1       2.696   3.659  19.676  0.00  0.00    +0.000 A 
ATOM      9  N   UNL     1       3.495   4.163  18.652  0.00  0.00    +0.000 N 
ATOM     10  C   UNL     1       4.117   3.337  17.728  0.00  0.00    +0.000 C 
ATOM     11  O   UNL     1       4.064   2.111  17.715  0.00  0.00    +0.000 OA
ATOM     12  H   UNL     1       0.384   5.809  20.880  0.00  0.00    +0.000 HD
ATOM     13  H   UNL     1       3.477   5.170  18.536  0.00  0.00    +0.000 HD
ENDROOT
BRANCH  10  14
ATOM     14  C   UNL     1       4.836   3.991  16.601  0.00  0.00    +0.000 A 
ATOM     15  C   UNL     1       4.858   5.373  16.401  0.00  0.00    +0.000 A 
ATOM     16  C   UNL     1       5.616   5.912  15.354  0.00  0.00    +0.000 A 
ATOM     17  C   UNL     1       6.336   5.074  14.507  0.00  0.00    +0.000 A 
ATOM     18  F   UNL     1       7.064   5.601  13.514  0.00  0.00    +0.000 F 
ATOM     19  C   UNL     1       6.314   3.697  14.682  0.00  0.00    +0.000 A 
ATOM     20  C   UNL     1       5.568   3.155  15.729  0.00  0.00    +0.000 A 
ENDBRANCH  10  14
BRANCH   2  21
ATOM     21  C   UNL     1       1.539   8.099  20.272  0.00  0.00    +0.000 A 
ATOM     22  C   UNL     1       1.174   8.526  21.561  0.00  0.00    +0.000 A 
ATOM     23  C   UNL     1       0.733   9.833  21.780  0.00  0.00    +0.000 A 
ATOM     24  C   UNL     1       0.645  10.710  20.709  0.00  0.00    +0.000 A 
ATOM     25  F   UNL     1       0.248  11.971  20.919  0.00  0.00    +0.000 F 
ATOM     26  C   UNL     1       0.974  10.301  19.421  0.00  0.00    +0.000 A 
ATOM     27  C   UNL     1       1.423   8.994  19.196  0.00  0.00    +0.000 A 
ENDBRANCH   2  21
TORSDOF 2
ENDMDL
MODEL 9
REMARK VINA RESULT:      -7.7      7.787      9.911
REMARK  Name = 
REMARK  2 active torsions:
REMARK  status: ('A' for Active; 'I' for Inactive)
REMARK    1  A    between atoms: C_2  and  C_19
REMARK    2  A    between atoms: C_10  and  C_12
REMARK                            x       y       z     vdW  Elec       q    Type
REMARK                         _______ _______ _______ _____ _____    ______ ____
ROOT
ATOM      1  O   UNL     1       1.129   9.522  19.220  0.00  0.00    +0.000 OA
ATOM      2  C   UNL     1       1.562   8.608  19.918  0.00  0.00    +0.000 C 
ATOM      3  N   UNL     1       1.406   8.548  21.280  0.00  0.00    +0.000 N 
ATOM      4  C   UNL     1       0.672   9.479  21.997  0.00  0.00    +0.000 A 
ATOM      5  N   UNL     1       0.103   9.095  23.141  0.00  0.00    +0.000 NA
ATOM      6  O   UNL     1      -0.600  10.203  23.585  0.00  0.00    +0.000 OA
ATOM      7  N   UNL     1      -0.380  11.293  22.769  0.00  0.00    +0.000 NA
ATOM      8  C   UNL     1       0.429  10.874  21.794  0.00  0.00    +0.000 A 
ATOM      9  N   UNL     1       0.982  11.697  20.816  0.00  0.00    +0.000 N 
ATOM     10  C   UNL     1       1.041  13.075  20.959  0.00  0.00    +0.000 C 
ATOM     11  O   UNL     1       0.610  13.713  21.914  0.00  0.00    +0.000 OA
ATOM     12  H   UNL     1       1.550   7.686  21.785  0.00  0.00    +0.000 HD
ATOM     13  H   UNL     1       1.466  11.220  20.062  0.00  0.00    +0.000 HD
ENDROOT
BRANCH  10  14
ATOM     14  C   UNL     1       1.772  13.841  19.913  0.00  0.00    +0.000 A 
ATOM     15  C   UNL     1       2.595  13.243  18.956  0.00  0.00    +0.000 A 
ATOM     16  C   UNL     1       3.192  14.030  17.963  0.00  0.00    +0.000 A 
ATOM     17  C   UNL     1       2.977  15.406  17.937  0.00  0.00    +0.000 A 
ATOM     18  F   UNL     1       3.546  16.148  16.978  0.00  0.00    +0.000 F 
ATOM     19  C   UNL     1       2.173  16.019  18.889  0.00  0.00    +0.000 A 
ATOM     20  C   UNL     1       1.569  15.238  19.874  0.00  0.00    +0.000 A 
ENDBRANCH  10  14
BRANCH   2  21
ATOM     21  C   UNL     1       2.286   7.474  19.263  0.00  0.00    +0.000 A 
ATOM     22  C   UNL     1       2.974   7.750  18.068  0.00  0.00    +0.000 A 
ATOM     23  C   UNL     1       3.754   6.769  17.453  0.00  0.00    +0.000 A 
ATOM     24  C   UNL     1       3.837   5.507  18.023  0.00  0.00    +0.000 A 
ATOM     25  F   UNL     1       4.604   4.573  17.450  0.00  0.00    +0.000 F 
ATOM     26  C   UNL     1       3.142   5.204  19.189  0.00  0.00    +0.000 A 
ATOM     27  C   UNL     1       2.363   6.185  19.814  0.00  0.00    +0.000 A 
ENDBRANCH   2  21
TORSDOF 2
ENDMDL
