MODEL 1
REMARK VINA RESULT:      -7.3      0.000      0.000
REMARK  Name = 
REMARK  6 active torsions:
REMARK  status: ('A' for Active; 'I' for Inactive)
REMARK    1  A    between atoms: C_1  and  C_2
REMARK    2  A    between atoms: C_2  and  O_3
REMARK    3  A    between atoms: O_3  and  C_4
REMARK    4  A    between atoms: C_9  and  C_10
REMARK    5  A    between atoms: C_10  and  N_11
REMARK    6  A    between atoms: N_20  and  C_21
REMARK                            x       y       z     vdW  Elec       q    Type
REMARK                         _______ _______ _______ _____ _____    ______ ____
ROOT
ATOM      1  N   UNL     1       2.202   7.441  19.537  0.00  0.00    +0.000 N 
ATOM      2  C   UNL     1       1.483   8.317  20.266  0.00  0.00    +0.000 A 
ATOM      3  N   UNL     1       1.210   8.235  21.549  0.00  0.00    +0.000 NA
ATOM      4  C   UNL     1       0.395   9.297  21.837  0.00  0.00    +0.000 A 
ATOM      5  C   UNL     1      -0.179   9.672  23.061  0.00  0.00    +0.000 A 
ATOM      6  C   UNL     1      -1.006  10.801  23.104  0.00  0.00    +0.000 A 
ATOM      7  C   UNL     1      -1.266  11.534  21.946  0.00  0.00    +0.000 A 
ATOM      8  C   UNL     1      -0.694  11.181  20.717  0.00  0.00    +0.000 A 
ATOM      9  C   UNL     1       0.151  10.059  20.697  0.00  0.00    +0.000 A 
ATOM     10  N   UNL     1       0.907   9.443  19.723  0.00  0.00    +0.000 N 
ATOM     11  C   UNL     1       1.056   9.911  18.368  0.00  0.00    +0.000 C 
ATOM     12  H   UNL     1       2.552   7.626  18.607  0.00  0.00    +0.000 HD
ENDROOT
BRANCH   1  13
ATOM     13  C   UNL     1       2.732   6.263  20.201  0.00  0.00    +0.000 C 
BRANCH  13  19
ATOM     14  C   UNL     1       2.457   4.489  18.336  0.00  0.00    +0.000 A 
ATOM     15  C   UNL     1       1.897   3.279  17.900  0.00  0.00    +0.000 A 
ATOM     16  C   UNL     1       1.018   2.564  18.711  0.00  0.00    +0.000 A 
ATOM     17  C   UNL     1       0.715   3.038  19.980  0.00  0.00    +0.000 A 
ATOM     18  C   UNL     1       1.321   4.206  20.447  0.00  0.00    +0.000 A 
ATOM     19  C   UNL     1       2.221   4.942  19.647  0.00  0.00    +0.000 A 
BRANCH  14  20
ATOM     20  O   UNL     1       3.235   5.271  17.522  0.00  0.00    +0.000 OA
BRANCH  20  22
ATOM     21  C   UNL     1       5.452   4.492  17.968  0.00  0.00    +0.000 C 
ATOM     22  C   UNL     1       4.357   4.616  16.926  0.00  0.00    +0.000 C 
ENDBRANCH  20  22
ENDBRANCH  14  20
ENDBRANCH  13  19
ENDBRANCH   1  13
TORSDOF 4
ENDMDL
MODEL 2
REMARK VINA RESULT:      -7.2      4.333      8.014
REMARK  Name = 
REMARK  6 active torsions:
REMARK  status: ('A' for Active; 'I' for Inactive)
REMARK    1  A    between atoms: C_1  and  C_2
REMARK    2  A    between atoms: C_2  and  O_3
REMARK    3  A    between atoms: O_3  and  C_4
REMARK    4  A    between atoms: C_9  and  C_10
REMARK    5  A    between atoms: C_10  and  N_11
REMARK    6  A    between atoms: N_20  and  C_21
REMARK                            x       y       z     vdW  Elec       q    Type
REMARK                         _______ _______ _______ _____ _____    ______ ____
ROOT
ATOM      1  N   UNL     1       5.190   3.987  17.613  0.00  0.00    +0.000 N 
ATOM      2  C   UNL     1       5.633   4.148  16.351  0.00  0.00    +0.000 A 
ATOM      3  N   UNL     1       5.246   3.477  15.289  0.00  0.00    +0.000 NA
ATOM      4  C   UNL     1       6.016   3.924  14.249  0.00  0.00    +0.000 A 
ATOM      5  C   UNL     1       6.004   3.535  12.902  0.00  0.00    +0.000 A 
ATOM      6  C   UNL     1       6.913   4.128  12.017  0.00  0.00    +0.000 A 
ATOM      7  C   UNL     1       7.826   5.080  12.471  0.00  0.00    +0.000 A 
ATOM      8  C   UNL     1       7.846   5.489  13.811  0.00  0.00    +0.000 A 
ATOM      9  C   UNL     1       6.912   4.899  14.679  0.00  0.00    +0.000 A 
ATOM     10  N   UNL     1       6.603   5.064  16.013  0.00  0.00    +0.000 N 
ATOM     11  C   UNL     1       7.206   6.036  16.891  0.00  0.00    +0.000 C 
ATOM     12  H   UNL     1       5.364   4.639  18.365  0.00  0.00    +0.000 HD
ENDROOT
BRANCH   1  13
ATOM     13  C   UNL     1       4.192   2.962  17.868  0.00  0.00    +0.000 C 
BRANCH  13  19
ATOM     14  C   UNL     1       2.403   4.398  19.067  0.00  0.00    +0.000 A 
ATOM     15  C   UNL     1       1.604   4.629  20.198  0.00  0.00    +0.000 A 
ATOM     16  C   UNL     1       1.711   3.818  21.326  0.00  0.00    +0.000 A 
ATOM     17  C   UNL     1       2.597   2.749  21.322  0.00  0.00    +0.000 A 
ATOM     18  C   UNL     1       3.345   2.472  20.176  0.00  0.00    +0.000 A 
ATOM     19  C   UNL     1       3.247   3.274  19.019  0.00  0.00    +0.000 A 
BRANCH  14  20
ATOM     20  O   UNL     1       2.402   5.242  17.987  0.00  0.00    +0.000 OA
BRANCH  20  22
ATOM     21  C   UNL     1       3.714   7.207  17.615  0.00  0.00    +0.000 C 
ATOM     22  C   UNL     1       2.483   6.636  18.291  0.00  0.00    +0.000 C 
ENDBRANCH  20  22
ENDBRANCH  14  20
ENDBRANCH  13  19
ENDBRANCH   1  13
TORSDOF 4
ENDMDL
MODEL 3
REMARK VINA RESULT:      -7.2      1.100      2.292
REMARK  Name = 
REMARK  6 active torsions:
REMARK  status: ('A' for Active; 'I' for Inactive)
REMARK    1  A    between atoms: C_1  and  C_2
REMARK    2  A    between atoms: C_2  and  O_3
REMARK    3  A    between atoms: O_3  and  C_4
REMARK    4  A    between atoms: C_9  and  C_10
REMARK    5  A    between atoms: C_10  and  N_11
REMARK    6  A    between atoms: N_20  and  C_21
REMARK                            x       y       z     vdW  Elec       q    Type
REMARK                         _______ _______ _______ _____ _____    ______ ____
ROOT
ATOM      1  N   UNL     1       2.177   7.644  19.371  0.00  0.00    +0.000 N 
ATOM      2  C   UNL     1       1.458   8.456  20.171  0.00  0.00    +0.000 A 
ATOM      3  N   UNL     1       1.129   8.236  21.424  0.00  0.00    +0.000 NA
ATOM      4  C   UNL     1       0.339   9.288  21.804  0.00  0.00    +0.000 A 
ATOM      5  C   UNL     1      -0.273   9.539  23.041  0.00  0.00    +0.000 A 
ATOM      6  C   UNL     1      -1.062  10.687  23.186  0.00  0.00    +0.000 A 
ATOM      7  C   UNL     1      -1.249  11.559  22.114  0.00  0.00    +0.000 A 
ATOM      8  C   UNL     1      -0.638  11.330  20.873  0.00  0.00    +0.000 A 
ATOM      9  C   UNL     1       0.168  10.186  20.753  0.00  0.00    +0.000 A 
ATOM     10  N   UNL     1       0.944   9.659  19.743  0.00  0.00    +0.000 N 
ATOM     11  C   UNL     1       1.165  10.276  18.459  0.00  0.00    +0.000 C 
ATOM     12  H   UNL     1       2.571   7.922  18.483  0.00  0.00    +0.000 HD
ENDROOT
BRANCH   1  13
ATOM     13  C   UNL     1       2.639   6.377  19.911  0.00  0.00    +0.000 C 
BRANCH  13  19
ATOM     14  C   UNL     1       1.773   4.094  19.052  0.00  0.00    +0.000 A 
ATOM     15  C   UNL     1       1.853   3.051  18.116  0.00  0.00    +0.000 A 
ATOM     16  C   UNL     1       2.822   3.062  17.115  0.00  0.00    +0.000 A 
ATOM     17  C   UNL     1       3.702   4.131  17.022  0.00  0.00    +0.000 A 
ATOM     18  C   UNL     1       3.585   5.205  17.907  0.00  0.00    +0.000 A 
ATOM     19  C   UNL     1       2.605   5.220  18.924  0.00  0.00    +0.000 A 
BRANCH  14  20
ATOM     20  O   UNL     1       0.906   4.060  20.113  0.00  0.00    +0.000 OA
BRANCH  20  22
ATOM     21  C   UNL     1       2.303   2.953  21.709  0.00  0.00    +0.000 C 
ATOM     22  C   UNL     1       0.993   2.901  20.945  0.00  0.00    +0.000 C 
ENDBRANCH  20  22
ENDBRANCH  14  20
ENDBRANCH  13  19
ENDBRANCH   1  13
TORSDOF 4
ENDMDL
MODEL 4
REMARK VINA RESULT:      -7.1      4.694      6.404
REMARK  Name = 
REMARK  6 active torsions:
REMARK  status: ('A' for Active; 'I' for Inactive)
REMARK    1  A    between atoms: C_1  and  C_2
REMARK    2  A    between atoms: C_2  and  O_3
REMARK    3  A    between atoms: O_3  and  C_4
REMARK    4  A    between atoms: C_9  and  C_10
REMARK    5  A    between atoms: C_10  and  N_11
REMARK    6  A    between atoms: N_20  and  C_21
REMARK                            x       y       z     vdW  Elec       q    Type
REMARK                         _______ _______ _______ _____ _____    ______ ____
ROOT
ATOM      1  N   UNL     1       4.361   3.005  17.331  0.00  0.00    +0.000 N 
ATOM      2  C   UNL     1       5.282   3.955  17.587  0.00  0.00    +0.000 A 
ATOM      3  N   UNL     1       6.006   4.075  18.678  0.00  0.00    +0.000 NA
ATOM      4  C   UNL     1       6.741   5.220  18.527  0.00  0.00    +0.000 A 
ATOM      5  C   UNL     1       7.672   5.801  19.401  0.00  0.00    +0.000 A 
ATOM      6  C   UNL     1       8.291   7.001  19.031  0.00  0.00    +0.000 A 
ATOM      7  C   UNL     1       7.977   7.617  17.820  0.00  0.00    +0.000 A 
ATOM      8  C   UNL     1       7.057   7.047  16.930  0.00  0.00    +0.000 A 
ATOM      9  C   UNL     1       6.463   5.832  17.307  0.00  0.00    +0.000 A 
ATOM     10  N   UNL     1       5.573   4.969  16.703  0.00  0.00    +0.000 N 
ATOM     11  C   UNL     1       5.044   5.121  15.371  0.00  0.00    +0.000 C 
ATOM     12  H   UNL     1       3.964   2.829  16.418  0.00  0.00    +0.000 HD
ENDROOT
BRANCH   1  13
ATOM     13  C   UNL     1       4.101   2.003  18.349  0.00  0.00    +0.000 C 
BRANCH  13  19
ATOM     14  C   UNL     1       1.844   3.065  19.040  0.00  0.00    +0.000 A 
ATOM     15  C   UNL     1       0.947   3.431  20.054  0.00  0.00    +0.000 A 
ATOM     16  C   UNL     1       1.268   3.238  21.397  0.00  0.00    +0.000 A 
ATOM     17  C   UNL     1       2.478   2.647  21.736  0.00  0.00    +0.000 A 
ATOM     18  C   UNL     1       3.345   2.217  20.730  0.00  0.00    +0.000 A 
ATOM     19  C   UNL     1       3.038   2.395  19.363  0.00  0.00    +0.000 A 
BRANCH  14  20
ATOM     20  O   UNL     1       1.607   3.342  17.719  0.00  0.00    +0.000 OA
BRANCH  20  22
ATOM     21  C   UNL     1       2.201   5.649  17.937  0.00  0.00    +0.000 C 
ATOM     22  C   UNL     1       1.157   4.670  17.437  0.00  0.00    +0.000 C 
ENDBRANCH  20  22
ENDBRANCH  14  20
ENDBRANCH  13  19
ENDBRANCH   1  13
TORSDOF 4
ENDMDL
MODEL 5
REMARK VINA RESULT:      -7.0      1.240      2.524
REMARK  Name = 
REMARK  6 active torsions:
REMARK  status: ('A' for Active; 'I' for Inactive)
REMARK    1  A    between atoms: C_1  and  C_2
REMARK    2  A    between atoms: C_2  and  O_3
REMARK    3  A    between atoms: O_3  and  C_4
REMARK    4  A    between atoms: C_9  and  C_10
REMARK    5  A    between atoms: C_10  and  N_11
REMARK    6  A    between atoms: N_20  and  C_21
REMARK                            x       y       z     vdW  Elec       q    Type
REMARK                         _______ _______ _______ _____ _____    ______ ____
ROOT
ATOM      1  N   UNL     1       2.208   7.723  19.151  0.00  0.00    +0.000 N 
ATOM      2  C   UNL     1       1.507   8.483  20.015  0.00  0.00    +0.000 A 
ATOM      3  N   UNL     1       1.144   8.158  21.235  0.00  0.00    +0.000 NA
ATOM      4  C   UNL     1       0.389   9.201  21.702  0.00  0.00    +0.000 A 
ATOM      5  C   UNL     1      -0.237   9.357  22.948  0.00  0.00    +0.000 A 
ATOM      6  C   UNL     1      -0.983  10.517  23.190  0.00  0.00    +0.000 A 
ATOM      7  C   UNL     1      -1.113  11.495  22.205  0.00  0.00    +0.000 A 
ATOM      8  C   UNL     1      -0.487  11.361  20.958  0.00  0.00    +0.000 A 
ATOM      9  C   UNL     1       0.275  10.201  20.741  0.00  0.00    +0.000 A 
ATOM     10  N   UNL     1       1.049   9.742  19.696  0.00  0.00    +0.000 N 
ATOM     11  C   UNL     1       1.320  10.470  18.482  0.00  0.00    +0.000 C 
ATOM     12  H   UNL     1       2.631   8.068  18.301  0.00  0.00    +0.000 HD
ENDROOT
BRANCH   1  13
ATOM     13  C   UNL     1       2.609   6.392  19.574  0.00  0.00    +0.000 C 
BRANCH  13  19
ATOM     14  C   UNL     1       3.075   4.149  18.369  0.00  0.00    +0.000 A 
ATOM     15  C   UNL     1       3.734   3.444  17.350  0.00  0.00    +0.000 A 
ATOM     16  C   UNL     1       4.633   4.088  16.502  0.00  0.00    +0.000 A 
ATOM     17  C   UNL     1       4.857   5.451  16.645  0.00  0.00    +0.000 A 
ATOM     18  C   UNL     1       4.153   6.172  17.612  0.00  0.00    +0.000 A 
ATOM     19  C   UNL     1       3.232   5.543  18.477  0.00  0.00    +0.000 A 
BRANCH  14  20
ATOM     20  O   UNL     1       2.272   3.525  19.289  0.00  0.00    +0.000 OA
BRANCH  20  22
ATOM     21  C   UNL     1       2.117   2.894  21.591  0.00  0.00    +0.000 C 
ATOM     22  C   UNL     1       2.956   2.822  20.329  0.00  0.00    +0.000 C 
ENDBRANCH  20  22
ENDBRANCH  14  20
ENDBRANCH  13  19
ENDBRANCH   1  13
TORSDOF 4
ENDMDL
MODEL 6
REMARK VINA RESULT:      -6.9      0.915      1.052
REMARK  Name = 
REMARK  6 active torsions:
REMARK  status: ('A' for Active; 'I' for Inactive)
REMARK    1  A    between atoms: C_1  and  C_2
REMARK    2  A    between atoms: C_2  and  O_3
REMARK    3  A    between atoms: O_3  and  C_4
REMARK    4  A    between atoms: C_9  and  C_10
REMARK    5  A    between atoms: C_10  and  N_11
REMARK    6  A    between atoms: N_20  and  C_21
REMARK                            x       y       z     vdW  Elec       q    Type
REMARK                         _______ _______ _______ _____ _____    ______ ____
ROOT
ATOM      1  N   UNL     1       2.071   6.954  19.926  0.00  0.00    +0.000 N 
ATOM      2  C   UNL     1       1.432   7.971  20.539  0.00  0.00    +0.000 A 
ATOM      3  N   UNL     1       0.947   7.973  21.760  0.00  0.00    +0.000 NA
ATOM      4  C   UNL     1       0.322   9.181  21.923  0.00  0.00    +0.000 A 
ATOM      5  C   UNL     1      -0.356   9.688  23.042  0.00  0.00    +0.000 A 
ATOM      6  C   UNL     1      -0.939  10.958  22.962  0.00  0.00    +0.000 A 
ATOM      7  C   UNL     1      -0.861  11.702  21.785  0.00  0.00    +0.000 A 
ATOM      8  C   UNL     1      -0.180  11.216  20.661  0.00  0.00    +0.000 A 
ATOM      9  C   UNL     1       0.418   9.950  20.766  0.00  0.00    +0.000 A 
ATOM     10  N   UNL     1       1.184   9.175  19.921  0.00  0.00    +0.000 N 
ATOM     11  C   UNL     1       1.637   9.576  18.612  0.00  0.00    +0.000 C 
ATOM     12  H   UNL     1       2.595   7.046  19.067  0.00  0.00    +0.000 HD
ENDROOT
BRANCH   1  13
ATOM     13  C   UNL     1       2.245   5.710  20.655  0.00  0.00    +0.000 C 
BRANCH  13  19
ATOM     14  C   UNL     1       3.429   4.159  18.955  0.00  0.00    +0.000 A 
ATOM     15  C   UNL     1       3.393   3.017  18.139  0.00  0.00    +0.000 A 
ATOM     16  C   UNL     1       2.239   2.241  18.047  0.00  0.00    +0.000 A 
ATOM     17  C   UNL     1       1.120   2.581  18.795  0.00  0.00    +0.000 A 
ATOM     18  C   UNL     1       1.171   3.675  19.661  0.00  0.00    +0.000 A 
ATOM     19  C   UNL     1       2.331   4.471  19.777  0.00  0.00    +0.000 A 
BRANCH  14  20
ATOM     20  O   UNL     1       4.507   5.004  18.983  0.00  0.00    +0.000 OA
BRANCH  20  22
ATOM     21  C   UNL     1       4.398   6.579  17.186  0.00  0.00    +0.000 C 
ATOM     22  C   UNL     1       5.072   5.326  17.709  0.00  0.00    +0.000 C 
ENDBRANCH  20  22
ENDBRANCH  14  20
ENDBRANCH  13  19
ENDBRANCH   1  13
TORSDOF 4
ENDMDL
MODEL 7
REMARK VINA RESULT:      -6.8      4.711      7.381
REMARK  Name = 
REMARK  6 active torsions:
REMARK  status: ('A' for Active; 'I' for Inactive)
REMARK    1  A    between atoms: C_1  and  C_2
REMARK    2  A    between atoms: C_2  and  O_3
REMARK    3  A    between atoms: O_3  and  C_4
REMARK    4  A    between atoms: C_9  and  C_10
REMARK    5  A    between atoms: C_10  and  N_11
REMARK    6  A    between atoms: N_20  and  C_21
REMARK                            x       y       z     vdW  Elec       q    Type
REMARK                         _______ _______ _______ _____ _____    ______ ____
ROOT
ATOM      1  N   UNL     1       5.561   3.984  16.647  0.00  0.00    +0.000 N 
ATOM      2  C   UNL     1       4.533   3.826  17.504  0.00  0.00    +0.000 A 
ATOM      3  N   UNL     1       3.444   3.119  17.305  0.00  0.00    +0.000 NA
ATOM      4  C   UNL     1       2.653   3.312  18.407  0.00  0.00    +0.000 A 
ATOM      5  C   UNL     1       1.387   2.782  18.696  0.00  0.00    +0.000 A 
ATOM      6  C   UNL     1       0.758   3.146  19.893  0.00  0.00    +0.000 A 
ATOM      7  C   UNL     1       1.374   4.031  20.777  0.00  0.00    +0.000 A 
ATOM      8  C   UNL     1       2.643   4.563  20.510  0.00  0.00    +0.000 A 
ATOM      9  C   UNL     1       3.268   4.169  19.315  0.00  0.00    +0.000 A 
ATOM     10  N   UNL     1       4.493   4.433  18.739  0.00  0.00    +0.000 N 
ATOM     11  C   UNL     1       5.541   5.218  19.342  0.00  0.00    +0.000 C 
ATOM     12  H   UNL     1       6.459   4.372  16.900  0.00  0.00    +0.000 HD
ENDROOT
BRANCH   1  13
ATOM     13  C   UNL     1       5.485   3.331  15.352  0.00  0.00    +0.000 C 
BRANCH  13  19
ATOM     14  C   UNL     1       6.270   3.617  12.902  0.00  0.00    +0.000 A 
ATOM     15  C   UNL     1       7.063   4.295  11.964  0.00  0.00    +0.000 A 
ATOM     16  C   UNL     1       7.935   5.306  12.362  0.00  0.00    +0.000 A 
ATOM     17  C   UNL     1       7.998   5.672  13.700  0.00  0.00    +0.000 A 
ATOM     18  C   UNL     1       7.161   5.050  14.629  0.00  0.00    +0.000 A 
ATOM     19  C   UNL     1       6.264   4.028  14.247  0.00  0.00    +0.000 A 
BRANCH  14  20
ATOM     20  O   UNL     1       5.487   2.546  12.560  0.00  0.00    +0.000 OA
BRANCH  20  22
ATOM     21  C   UNL     1       3.738   3.222  11.074  0.00  0.00    +0.000 C 
ATOM     22  C   UNL     1       5.066   2.499  11.194  0.00  0.00    +0.000 C 
ENDBRANCH  20  22
ENDBRANCH  14  20
ENDBRANCH  13  19
ENDBRANCH   1  13
TORSDOF 4
ENDMDL
MODEL 8
REMARK VINA RESULT:      -6.8      4.168      6.866
REMARK  Name = 
REMARK  6 active torsions:
REMARK  status: ('A' for Active; 'I' for Inactive)
REMARK    1  A    between atoms: C_1  and  C_2
REMARK    2  A    between atoms: C_2  and  O_3
REMARK    3  A    between atoms: O_3  and  C_4
REMARK    4  A    between atoms: C_9  and  C_10
REMARK    5  A    between atoms: C_10  and  N_11
REMARK    6  A    between atoms: N_20  and  C_21
REMARK                            x       y       z     vdW  Elec       q    Type
REMARK                         _______ _______ _______ _____ _____    ______ ____
ROOT
ATOM      1  N   UNL     1       4.817   4.566  16.411  0.00  0.00    +0.000 N 
ATOM      2  C   UNL     1       4.044   4.228  17.462  0.00  0.00    +0.000 A 
ATOM      3  N   UNL     1       3.798   3.014  17.900  0.00  0.00    +0.000 NA
ATOM      4  C   UNL     1       2.907   3.150  18.931  0.00  0.00    +0.000 A 
ATOM      5  C   UNL     1       2.325   2.162  19.739  0.00  0.00    +0.000 A 
ATOM      6  C   UNL     1       1.413   2.548  20.728  0.00  0.00    +0.000 A 
ATOM      7  C   UNL     1       1.077   3.891  20.900  0.00  0.00    +0.000 A 
ATOM      8  C   UNL     1       1.656   4.892  20.108  0.00  0.00    +0.000 A 
ATOM      9  C   UNL     1       2.585   4.489  19.135  0.00  0.00    +0.000 A 
ATOM     10  N   UNL     1       3.372   5.158  18.223  0.00  0.00    +0.000 N 
ATOM     11  C   UNL     1       3.462   6.592  18.098  0.00  0.00    +0.000 C 
ATOM     12  H   UNL     1       5.137   5.505  16.218  0.00  0.00    +0.000 HD
ENDROOT
BRANCH   1  13
ATOM     13  C   UNL     1       5.449   3.503  15.650  0.00  0.00    +0.000 C 
BRANCH  13  19
ATOM     14  C   UNL     1       7.295   4.943  14.547  0.00  0.00    +0.000 A 
ATOM     15  C   UNL     1       7.965   5.358  13.386  0.00  0.00    +0.000 A 
ATOM     16  C   UNL     1       7.563   4.909  12.129  0.00  0.00    +0.000 A 
ATOM     17  C   UNL     1       6.505   4.016  12.025  0.00  0.00    +0.000 A 
ATOM     18  C   UNL     1       5.878   3.546  13.181  0.00  0.00    +0.000 A 
ATOM     19  C   UNL     1       6.274   3.979  14.464  0.00  0.00    +0.000 A 
BRANCH  14  20
ATOM     20  O   UNL     1       7.594   5.451  15.785  0.00  0.00    +0.000 OA
BRANCH  20  22
ATOM     21  C   UNL     1       7.387   7.093  17.511  0.00  0.00    +0.000 C 
ATOM     22  C   UNL     1       6.985   6.705  16.101  0.00  0.00    +0.000 C 
ENDBRANCH  20  22
ENDBRANCH  14  20
ENDBRANCH  13  19
ENDBRANCH   1  13
TORSDOF 4
ENDMDL
MODEL 9
REMARK VINA RESULT:      -6.7      1.544      2.736
REMARK  Name = 
REMARK  6 active torsions:
REMARK  status: ('A' for Active; 'I' for Inactive)
REMARK    1  A    between atoms: C_1  and  C_2
REMARK    2  A    between atoms: C_2  and  O_3
REMARK    3  A    between atoms: O_3  and  C_4
REMARK    4  A    between atoms: C_9  and  C_10
REMARK    5  A    between atoms: C_10  and  N_11
REMARK    6  A    between atoms: N_20  and  C_21
REMARK                            x       y       z     vdW  Elec       q    Type
REMARK                         _______ _______ _______ _____ _____    ______ ____
ROOT
ATOM      1  N   UNL     1       2.202   8.099  18.804  0.00  0.00    +0.000 N 
ATOM      2  C   UNL     1       1.520   8.736  19.776  0.00  0.00    +0.000 A 
ATOM      3  N   UNL     1       1.176   8.247  20.946  0.00  0.00    +0.000 NA
ATOM      4  C   UNL     1       0.435   9.218  21.566  0.00  0.00    +0.000 A 
ATOM      5  C   UNL     1      -0.169   9.203  22.832  0.00  0.00    +0.000 A 
ATOM      6  C   UNL     1      -0.903  10.321  23.245  0.00  0.00    +0.000 A 
ATOM      7  C   UNL     1      -1.044  11.427  22.407  0.00  0.00    +0.000 A 
ATOM      8  C   UNL     1      -0.440  11.464  21.143  0.00  0.00    +0.000 A 
ATOM      9  C   UNL     1       0.311  10.342  20.754  0.00  0.00    +0.000 A 
ATOM     10  N   UNL     1       1.065  10.029  19.643  0.00  0.00    +0.000 N 
ATOM     11  C   UNL     1       1.320  10.916  18.536  0.00  0.00    +0.000 C 
ATOM     12  H   UNL     1       2.613   8.558  18.002  0.00  0.00    +0.000 HD
ENDROOT
BRANCH   1  13
ATOM     13  C   UNL     1       2.601   6.722  19.031  0.00  0.00    +0.000 C 
BRANCH  13  19
ATOM     14  C   UNL     1       3.817   4.774  17.837  0.00  0.00    +0.000 A 
ATOM     15  C   UNL     1       4.703   4.339  16.839  0.00  0.00    +0.000 A 
ATOM     16  C   UNL     1       5.365   5.255  16.023  0.00  0.00    +0.000 A 
ATOM     17  C   UNL     1       5.124   6.613  16.178  0.00  0.00    +0.000 A 
ATOM     18  C   UNL     1       4.193   7.049  17.122  0.00  0.00    +0.000 A 
ATOM     19  C   UNL     1       3.503   6.140  17.953  0.00  0.00    +0.000 A 
BRANCH  14  20
ATOM     20  O   UNL     1       3.236   3.908  18.726  0.00  0.00    +0.000 OA
BRANCH  20  22
ATOM     21  C   UNL     1       3.294   1.520  18.610  0.00  0.00    +0.000 C 
ATOM     22  C   UNL     1       4.020   2.766  19.078  0.00  0.00    +0.000 C 
ENDBRANCH  20  22
ENDBRANCH  14  20
ENDBRANCH  13  19
ENDBRANCH   1  13
TORSDOF 4
ENDMDL
