MODEL 1
REMARK VINA RESULT:      -7.4      0.000      0.000
REMARK  Name = 
REMARK  6 active torsions:
REMARK  status: ('A' for Active; 'I' for Inactive)
REMARK    1  A    between atoms: C_1  and  C_2
REMARK    2  A    between atoms: C_2  and  C_3
REMARK    3  A    between atoms: C_2  and  C_4
REMARK    4  A    between atoms: C_4  and  N_5
REMARK    5  A    between atoms: C_8  and  N_9
REMARK    6  A    between atoms: C_10  and  C_12
REMARK                            x       y       z     vdW  Elec       q    Type
REMARK                         _______ _______ _______ _____ _____    ______ ____
ROOT
ATOM      1  N   UNL     1       4.805   5.796  17.838  0.00  0.00    +0.000 N 
ATOM      2  C   UNL     1       4.985   5.341  19.118  0.00  0.00    +0.000 C 
ATOM      3  O   UNL     1       6.013   5.503  19.765  0.00  0.00    +0.000 OA
ATOM      4  H   UNL     1       3.888   5.692  17.423  0.00  0.00    +0.000 HD
ENDROOT
BRANCH   2   5
ATOM      5  C   UNL     1       3.803   4.666  19.736  0.00  0.00    +0.000 A 
ATOM      6  C   UNL     1       3.903   3.278  19.944  0.00  0.00    +0.000 A 
ATOM      7  C   UNL     1       2.869   2.579  20.571  0.00  0.00    +0.000 A 
ATOM      8  C   UNL     1       1.736   3.262  20.988  0.00  0.00    +0.000 A 
ATOM      9  F   UNL     1       0.750   2.600  21.608  0.00  0.00    +0.000 F 
ATOM     10  C   UNL     1       1.601   4.629  20.768  0.00  0.00    +0.000 A 
ATOM     11  C   UNL     1       2.625   5.330  20.130  0.00  0.00    +0.000 A 
ATOM     12 CL   UNL     1       2.324   7.012  19.848  0.00  0.00    +0.000 Cl
ENDBRANCH   2   5
BRANCH   1  16
ATOM     13  N   UNL     1       6.436   4.671  14.759  0.00  0.00    +0.000 NA
ATOM     14  C   UNL     1       5.189   5.455  14.797  0.00  0.00    +0.000 C 
ATOM     15  C   UNL     1       5.331   6.737  15.621  0.00  0.00    +0.000 C 
ATOM     16  C   UNL     1       5.829   6.455  17.035  0.00  0.00    +0.000 C 
ATOM     17  C   UNL     1       7.091   5.591  16.975  0.00  0.00    +0.000 C 
ATOM     18  C   UNL     1       6.887   4.334  16.120  0.00  0.00    +0.000 C 
BRANCH  13  19
ATOM     19  C   UNL     1       6.296   3.443  13.943  0.00  0.00    +0.000 C 
BRANCH  19  21
ATOM     20  C   UNL     1       7.273   4.333  11.758  0.00  0.00    +0.000 C 
ATOM     21  C   UNL     1       6.054   3.700  12.434  0.00  0.00    +0.000 C 
ATOM     22  C   UNL     1       5.684   2.406  11.703  0.00  0.00    +0.000 C 
ENDBRANCH  19  21
ENDBRANCH  13  19
ENDBRANCH   1  16
TORSDOF 4
ENDMDL
MODEL 2
REMARK VINA RESULT:      -7.3      1.549      1.651
REMARK  Name = 
REMARK  6 active torsions:
REMARK  status: ('A' for Active; 'I' for Inactive)
REMARK    1  A    between atoms: C_1  and  C_2
REMARK    2  A    between atoms: C_2  and  C_3
REMARK    3  A    between atoms: C_2  and  C_4
REMARK    4  A    between atoms: C_4  and  N_5
REMARK    5  A    between atoms: C_8  and  N_9
REMARK    6  A    between atoms: C_10  and  C_12
REMARK                            x       y       z     vdW  Elec       q    Type
REMARK                         _______ _______ _______ _____ _____    ______ ____
ROOT
ATOM      1  N   UNL     1       4.673   5.774  18.119  0.00  0.00    +0.000 N 
ATOM      2  C   UNL     1       3.419   6.111  18.556  0.00  0.00    +0.000 C 
ATOM      3  O   UNL     1       2.862   7.170  18.292  0.00  0.00    +0.000 OA
ATOM      4  H   UNL     1       5.008   4.840  18.314  0.00  0.00    +0.000 HD
ENDROOT
BRANCH   2   5
ATOM      5  C   UNL     1       2.707   5.061  19.348  0.00  0.00    +0.000 A 
ATOM      6  C   UNL     1       2.897   5.084  20.742  0.00  0.00    +0.000 A 
ATOM      7  C   UNL     1       2.222   4.177  21.563  0.00  0.00    +0.000 A 
ATOM      8  C   UNL     1       1.361   3.248  20.995  0.00  0.00    +0.000 A 
ATOM      9  F   UNL     1       0.697   2.390  21.780  0.00  0.00    +0.000 F 
ATOM     10  C   UNL     1       1.180   3.188  19.618  0.00  0.00    +0.000 A 
ATOM     11  C   UNL     1       1.861   4.082  18.791  0.00  0.00    +0.000 A 
ATOM     12 CL   UNL     1       1.614   3.875  17.090  0.00  0.00    +0.000 Cl
ENDBRANCH   2   5
BRANCH   1  16
ATOM     13  N   UNL     1       6.558   5.099  15.054  0.00  0.00    +0.000 NA
ATOM     14  C   UNL     1       5.177   5.609  15.081  0.00  0.00    +0.000 C 
ATOM     15  C   UNL     1       5.037   6.868  15.940  0.00  0.00    +0.000 C 
ATOM     16  C   UNL     1       5.555   6.652  17.358  0.00  0.00    +0.000 C 
ATOM     17  C   UNL     1       6.968   6.067  17.307  0.00  0.00    +0.000 C 
ATOM     18  C   UNL     1       7.043   4.821  16.416  0.00  0.00    +0.000 C 
BRANCH  13  19
ATOM     19  C   UNL     1       6.689   3.893  14.203  0.00  0.00    +0.000 C 
BRANCH  19  21
ATOM     20  C   UNL     1       7.425   4.803  11.935  0.00  0.00    +0.000 C 
ATOM     21  C   UNL     1       6.308   4.111  12.718  0.00  0.00    +0.000 C 
ATOM     22  C   UNL     1       5.956   2.786  12.035  0.00  0.00    +0.000 C 
ENDBRANCH  19  21
ENDBRANCH  13  19
ENDBRANCH   1  16
TORSDOF 4
ENDMDL
MODEL 3
REMARK VINA RESULT:      -7.0      1.047      1.047
REMARK  Name = 
REMARK  6 active torsions:
REMARK  status: ('A' for Active; 'I' for Inactive)
REMARK    1  A    between atoms: C_1  and  C_2
REMARK    2  A    between atoms: C_2  and  C_3
REMARK    3  A    between atoms: C_2  and  C_4
REMARK    4  A    between atoms: C_4  and  N_5
REMARK    5  A    between atoms: C_8  and  N_9
REMARK    6  A    between atoms: C_10  and  C_12
REMARK                            x       y       z     vdW  Elec       q    Type
REMARK                         _______ _______ _______ _____ _____    ______ ____
ROOT
ATOM      1  N   UNL     1       5.036   5.539  18.004  0.00  0.00    +0.000 N 
ATOM      2  C   UNL     1       3.847   5.925  18.568  0.00  0.00    +0.000 C 
ATOM      3  O   UNL     1       3.280   6.981  18.316  0.00  0.00    +0.000 OA
ATOM      4  H   UNL     1       5.376   4.608  18.207  0.00  0.00    +0.000 HD
ENDROOT
BRANCH   2   5
ATOM      5  C   UNL     1       3.218   4.931  19.491  0.00  0.00    +0.000 A 
ATOM      6  C   UNL     1       3.642   3.596  19.368  0.00  0.00    +0.000 A 
ATOM      7  C   UNL     1       3.150   2.614  20.231  0.00  0.00    +0.000 A 
ATOM      8  C   UNL     1       2.234   2.963  21.213  0.00  0.00    +0.000 A 
ATOM      9  F   UNL     1       1.774   2.029  22.056  0.00  0.00    +0.000 F 
ATOM     10  C   UNL     1       1.777   4.271  21.336  0.00  0.00    +0.000 A 
ATOM     11  C   UNL     1       2.256   5.254  20.468  0.00  0.00    +0.000 A 
ATOM     12 CL   UNL     1       1.571   6.832  20.666  0.00  0.00    +0.000 Cl
ENDBRANCH   2   5
BRANCH   1  16
ATOM     13  N   UNL     1       6.410   4.719  14.711  0.00  0.00    +0.000 NA
ATOM     14  C   UNL     1       5.074   5.298  14.930  0.00  0.00    +0.000 C 
ATOM     15  C   UNL     1       5.123   6.577  15.770  0.00  0.00    +0.000 C 
ATOM     16  C   UNL     1       5.835   6.358  17.101  0.00  0.00    +0.000 C 
ATOM     17  C   UNL     1       7.196   5.702  16.856  0.00  0.00    +0.000 C 
ATOM     18  C   UNL     1       7.079   4.440  15.993  0.00  0.00    +0.000 C 
BRANCH  13  19
ATOM     19  C   UNL     1       6.356   3.494  13.880  0.00  0.00    +0.000 C 
BRANCH  19  21
ATOM     20  C   UNL     1       7.230   2.974  11.539  0.00  0.00    +0.000 C 
ATOM     21  C   UNL     1       6.204   3.756  12.361  0.00  0.00    +0.000 C 
ATOM     22  C   UNL     1       4.794   3.407  11.875  0.00  0.00    +0.000 C 
ENDBRANCH  19  21
ENDBRANCH  13  19
ENDBRANCH   1  16
TORSDOF 4
ENDMDL
MODEL 4
REMARK VINA RESULT:      -6.9      3.724      6.954
REMARK  Name = 
REMARK  6 active torsions:
REMARK  status: ('A' for Active; 'I' for Inactive)
REMARK    1  A    between atoms: C_1  and  C_2
REMARK    2  A    between atoms: C_2  and  C_3
REMARK    3  A    between atoms: C_2  and  C_4
REMARK    4  A    between atoms: C_4  and  N_5
REMARK    5  A    between atoms: C_8  and  N_9
REMARK    6  A    between atoms: C_10  and  C_12
REMARK                            x       y       z     vdW  Elec       q    Type
REMARK                         _______ _______ _______ _____ _____    ______ ____
ROOT
ATOM      1  N   UNL     1       5.471   5.784  16.182  0.00  0.00    +0.000 N 
ATOM      2  C   UNL     1       6.620   5.601  15.457  0.00  0.00    +0.000 C 
ATOM      3  O   UNL     1       7.716   6.036  15.788  0.00  0.00    +0.000 OA
ATOM      4  H   UNL     1       4.635   5.307  15.872  0.00  0.00    +0.000 HD
ENDROOT
BRANCH   2   5
ATOM      5  C   UNL     1       6.482   4.758  14.230  0.00  0.00    +0.000 A 
ATOM      6  C   UNL     1       5.427   3.828  14.216  0.00  0.00    +0.000 A 
ATOM      7  C   UNL     1       5.189   3.044  13.086  0.00  0.00    +0.000 A 
ATOM      8  C   UNL     1       6.003   3.184  11.971  0.00  0.00    +0.000 A 
ATOM      9  F   UNL     1       5.767   2.448  10.877  0.00  0.00    +0.000 F 
ATOM     10  C   UNL     1       7.071   4.075  11.971  0.00  0.00    +0.000 A 
ATOM     11  C   UNL     1       7.322   4.853  13.103  0.00  0.00    +0.000 A 
ATOM     12 CL   UNL     1       8.714   5.878  13.019  0.00  0.00    +0.000 Cl
ENDBRANCH   2   5
BRANCH   1  16
ATOM     13  N   UNL     1       3.767   5.049  19.337  0.00  0.00    +0.000 NA
ATOM     14  C   UNL     1       5.163   4.683  19.046  0.00  0.00    +0.000 C 
ATOM     15  C   UNL     1       5.997   5.883  18.589  0.00  0.00    +0.000 C 
ATOM     16  C   UNL     1       5.369   6.591  17.393  0.00  0.00    +0.000 C 
ATOM     17  C   UNL     1       3.903   6.910  17.694  0.00  0.00    +0.000 C 
ATOM     18  C   UNL     1       3.130   5.672  18.165  0.00  0.00    +0.000 C 
BRANCH  13  19
ATOM     19  C   UNL     1       2.972   3.887  19.800  0.00  0.00    +0.000 C 
BRANCH  19  21
ATOM     20  C   UNL     1       2.939   1.919  18.173  0.00  0.00    +0.000 C 
ATOM     21  C   UNL     1       2.193   3.156  18.678  0.00  0.00    +0.000 C 
ATOM     22  C   UNL     1       0.795   2.745  19.150  0.00  0.00    +0.000 C 
ENDBRANCH  19  21
ENDBRANCH  13  19
ENDBRANCH   1  16
TORSDOF 4
ENDMDL
MODEL 5
REMARK VINA RESULT:      -6.8      1.333      1.698
REMARK  Name = 
REMARK  6 active torsions:
REMARK  status: ('A' for Active; 'I' for Inactive)
REMARK    1  A    between atoms: C_1  and  C_2
REMARK    2  A    between atoms: C_2  and  C_3
REMARK    3  A    between atoms: C_2  and  C_4
REMARK    4  A    between atoms: C_4  and  N_5
REMARK    5  A    between atoms: C_8  and  N_9
REMARK    6  A    between atoms: C_10  and  C_12
REMARK                            x       y       z     vdW  Elec       q    Type
REMARK                         _______ _______ _______ _____ _____    ______ ____
ROOT
ATOM      1  N   UNL     1       4.814   5.701  17.991  0.00  0.00    +0.000 N 
ATOM      2  C   UNL     1       5.014   5.085  19.199  0.00  0.00    +0.000 C 
ATOM      3  O   UNL     1       6.077   5.099  19.807  0.00  0.00    +0.000 OA
ATOM      4  H   UNL     1       3.875   5.711  17.614  0.00  0.00    +0.000 HD
ENDROOT
BRANCH   2   5
ATOM      5  C   UNL     1       3.812   4.424  19.794  0.00  0.00    +0.000 A 
ATOM      6  C   UNL     1       2.728   5.259  20.120  0.00  0.00    +0.000 A 
ATOM      7  C   UNL     1       1.543   4.716  20.624  0.00  0.00    +0.000 A 
ATOM      8  C   UNL     1       1.442   3.345  20.805  0.00  0.00    +0.000 A 
ATOM      9  F   UNL     1       0.301   2.818  21.270  0.00  0.00    +0.000 F 
ATOM     10  C   UNL     1       2.510   2.502  20.518  0.00  0.00    +0.000 A 
ATOM     11  C   UNL     1       3.701   3.039  20.027  0.00  0.00    +0.000 A 
ATOM     12 CL   UNL     1       4.987   1.910  19.767  0.00  0.00    +0.000 Cl
ENDBRANCH   2   5
BRANCH   1  16
ATOM     13  N   UNL     1       6.418   4.700  14.856  0.00  0.00    +0.000 NA
ATOM     14  C   UNL     1       5.186   5.504  14.936  0.00  0.00    +0.000 C 
ATOM     15  C   UNL     1       5.355   6.741  15.822  0.00  0.00    +0.000 C 
ATOM     16  C   UNL     1       5.849   6.379  17.219  0.00  0.00    +0.000 C 
ATOM     17  C   UNL     1       7.094   5.496  17.112  0.00  0.00    +0.000 C 
ATOM     18  C   UNL     1       6.865   4.287  16.197  0.00  0.00    +0.000 C 
BRANCH  13  19
ATOM     19  C   UNL     1       6.253   3.516  13.980  0.00  0.00    +0.000 C 
BRANCH  19  21
ATOM     20  C   UNL     1       7.238   3.273  11.637  0.00  0.00    +0.000 C 
ATOM     21  C   UNL     1       6.094   3.849  12.476  0.00  0.00    +0.000 C 
ATOM     22  C   UNL     1       4.759   3.334  11.931  0.00  0.00    +0.000 C 
ENDBRANCH  19  21
ENDBRANCH  13  19
ENDBRANCH   1  16
TORSDOF 4
ENDMDL
MODEL 6
REMARK VINA RESULT:      -6.8      1.446      1.782
REMARK  Name = 
REMARK  6 active torsions:
REMARK  status: ('A' for Active; 'I' for Inactive)
REMARK    1  A    between atoms: C_1  and  C_2
REMARK    2  A    between atoms: C_2  and  C_3
REMARK    3  A    between atoms: C_2  and  C_4
REMARK    4  A    between atoms: C_4  and  N_5
REMARK    5  A    between atoms: C_8  and  N_9
REMARK    6  A    between atoms: C_10  and  C_12
REMARK                            x       y       z     vdW  Elec       q    Type
REMARK                         _______ _______ _______ _____ _____    ______ ____
ROOT
ATOM      1  N   UNL     1       4.891   5.718  17.917  0.00  0.00    +0.000 N 
ATOM      2  C   UNL     1       3.725   6.144  18.498  0.00  0.00    +0.000 C 
ATOM      3  O   UNL     1       3.203   7.229  18.273  0.00  0.00    +0.000 OA
ATOM      4  H   UNL     1       5.192   4.770  18.098  0.00  0.00    +0.000 HD
ENDROOT
BRANCH   2   5
ATOM      5  C   UNL     1       3.060   5.160  19.407  0.00  0.00    +0.000 A 
ATOM      6  C   UNL     1       1.810   5.532  19.935  0.00  0.00    +0.000 A 
ATOM      7  C   UNL     1       1.092   4.648  20.744  0.00  0.00    +0.000 A 
ATOM      8  C   UNL     1       1.620   3.397  21.027  0.00  0.00    +0.000 A 
ATOM      9  F   UNL     1       0.926   2.538  21.786  0.00  0.00    +0.000 F 
ATOM     10  C   UNL     1       2.867   3.017  20.541  0.00  0.00    +0.000 A 
ATOM     11  C   UNL     1       3.595   3.901  19.743  0.00  0.00    +0.000 A 
ATOM     12 CL   UNL     1       5.161   3.354  19.248  0.00  0.00    +0.000 Cl
ENDBRANCH   2   5
BRANCH   1  16
ATOM     13  N   UNL     1       6.428   4.813  14.720  0.00  0.00    +0.000 NA
ATOM     14  C   UNL     1       5.074   5.377  14.858  0.00  0.00    +0.000 C 
ATOM     15  C   UNL     1       5.066   6.684  15.655  0.00  0.00    +0.000 C 
ATOM     16  C   UNL     1       5.719   6.521  17.024  0.00  0.00    +0.000 C 
ATOM     17  C   UNL     1       7.100   5.880  16.863  0.00  0.00    +0.000 C 
ATOM     18  C   UNL     1       7.041   4.588  16.039  0.00  0.00    +0.000 C 
BRANCH  13  19
ATOM     19  C   UNL     1       6.431   3.560  13.929  0.00  0.00    +0.000 C 
BRANCH  19  21
ATOM     20  C   UNL     1       7.254   3.013  11.575  0.00  0.00    +0.000 C 
ATOM     21  C   UNL     1       6.211   3.761  12.409  0.00  0.00    +0.000 C 
ATOM     22  C   UNL     1       4.809   3.314  11.986  0.00  0.00    +0.000 C 
ENDBRANCH  19  21
ENDBRANCH  13  19
ENDBRANCH   1  16
TORSDOF 4
ENDMDL
MODEL 7
REMARK VINA RESULT:      -6.7      3.113      4.084
REMARK  Name = 
REMARK  6 active torsions:
REMARK  status: ('A' for Active; 'I' for Inactive)
REMARK    1  A    between atoms: C_1  and  C_2
REMARK    2  A    between atoms: C_2  and  C_3
REMARK    3  A    between atoms: C_2  and  C_4
REMARK    4  A    between atoms: C_4  and  N_5
REMARK    5  A    between atoms: C_8  and  N_9
REMARK    6  A    between atoms: C_10  and  C_12
REMARK                            x       y       z     vdW  Elec       q    Type
REMARK                         _______ _______ _______ _____ _____    ______ ____
ROOT
ATOM      1  N   UNL     1       3.861   5.981  19.325  0.00  0.00    +0.000 N 
ATOM      2  C   UNL     1       2.673   6.014  20.008  0.00  0.00    +0.000 C 
ATOM      3  O   UNL     1       2.227   5.073  20.653  0.00  0.00    +0.000 OA
ATOM      4  H   UNL     1       4.186   6.839  18.900  0.00  0.00    +0.000 HD
ENDROOT
BRANCH   2   5
ATOM      5  C   UNL     1       1.950   7.323  19.984  0.00  0.00    +0.000 A 
ATOM      6  C   UNL     1       1.202   7.654  21.129  0.00  0.00    +0.000 A 
ATOM      7  C   UNL     1       0.545   8.884  21.214  0.00  0.00    +0.000 A 
ATOM      8  C   UNL     1       0.630   9.780  20.158  0.00  0.00    +0.000 A 
ATOM      9  F   UNL     1       0.018  10.968  20.243  0.00  0.00    +0.000 F 
ATOM     10  C   UNL     1       1.339   9.463  19.004  0.00  0.00    +0.000 A 
ATOM     11  C   UNL     1       1.987   8.231  18.908  0.00  0.00    +0.000 A 
ATOM     12 CL   UNL     1       2.782   7.913  17.403  0.00  0.00    +0.000 Cl
ENDBRANCH   2   5
BRANCH   1  16
ATOM     13  N   UNL     1       5.767   4.799  16.432  0.00  0.00    +0.000 NA
ATOM     14  C   UNL     1       6.289   5.737  17.440  0.00  0.00    +0.000 C 
ATOM     15  C   UNL     1       6.152   5.196  18.865  0.00  0.00    +0.000 C 
ATOM     16  C   UNL     1       4.714   4.806  19.192  0.00  0.00    +0.000 C 
ATOM     17  C   UNL     1       4.171   3.879  18.102  0.00  0.00    +0.000 C 
ATOM     18  C   UNL     1       4.357   4.470  16.699  0.00  0.00    +0.000 C 
BRANCH  13  19
ATOM     19  C   UNL     1       5.923   5.320  15.054  0.00  0.00    +0.000 C 
BRANCH  19  21
ATOM     20  C   UNL     1       5.718   3.627  13.154  0.00  0.00    +0.000 C 
ATOM     21  C   UNL     1       6.675   4.370  14.090  0.00  0.00    +0.000 C 
ATOM     22  C   UNL     1       7.710   5.130  13.255  0.00  0.00    +0.000 C 
ENDBRANCH  19  21
ENDBRANCH  13  19
ENDBRANCH   1  16
TORSDOF 4
ENDMDL
MODEL 8
REMARK VINA RESULT:      -6.7      1.632      1.898
REMARK  Name = 
REMARK  6 active torsions:
REMARK  status: ('A' for Active; 'I' for Inactive)
REMARK    1  A    between atoms: C_1  and  C_2
REMARK    2  A    between atoms: C_2  and  C_3
REMARK    3  A    between atoms: C_2  and  C_4
REMARK    4  A    between atoms: C_4  and  N_5
REMARK    5  A    between atoms: C_8  and  N_9
REMARK    6  A    between atoms: C_10  and  C_12
REMARK                            x       y       z     vdW  Elec       q    Type
REMARK                         _______ _______ _______ _____ _____    ______ ____
ROOT
ATOM      1  N   UNL     1       5.198   5.161  18.293  0.00  0.00    +0.000 N 
ATOM      2  C   UNL     1       4.833   4.244  19.244  0.00  0.00    +0.000 C 
ATOM      3  O   UNL     1       5.536   3.926  20.196  0.00  0.00    +0.000 OA
ATOM      4  H   UNL     1       4.511   5.423  17.599  0.00  0.00    +0.000 HD
ENDROOT
BRANCH   2   5
ATOM      5  C   UNL     1       3.458   3.675  19.099  0.00  0.00    +0.000 A 
ATOM      6  C   UNL     1       3.302   2.624  18.176  0.00  0.00    +0.000 A 
ATOM      7  C   UNL     1       2.065   1.995  18.021  0.00  0.00    +0.000 A 
ATOM      8  C   UNL     1       0.984   2.414  18.783  0.00  0.00    +0.000 A 
ATOM      9  F   UNL     1      -0.200   1.801  18.653  0.00  0.00    +0.000 F 
ATOM     10  C   UNL     1       1.105   3.470  19.680  0.00  0.00    +0.000 A 
ATOM     11  C   UNL     1       2.336   4.111  19.830  0.00  0.00    +0.000 A 
ATOM     12 CL   UNL     1       2.357   5.454  20.923  0.00  0.00    +0.000 Cl
ENDBRANCH   2   5
BRANCH   1  16
ATOM     13  N   UNL     1       7.441   5.600  15.433  0.00  0.00    +0.000 NA
ATOM     14  C   UNL     1       6.374   6.546  15.801  0.00  0.00    +0.000 C 
ATOM     15  C   UNL     1       6.475   6.999  17.260  0.00  0.00    +0.000 C 
ATOM     16  C   UNL     1       6.498   5.818  18.225  0.00  0.00    +0.000 C 
ATOM     17  C   UNL     1       7.573   4.819  17.790  0.00  0.00    +0.000 C 
ATOM     18  C   UNL     1       7.427   4.422  16.316  0.00  0.00    +0.000 C 
BRANCH  13  19
ATOM     19  C   UNL     1       7.348   5.182  14.014  0.00  0.00    +0.000 C 
BRANCH  19  21
ATOM     20  C   UNL     1       4.988   4.220  14.152  0.00  0.00    +0.000 C 
ATOM     21  C   UNL     1       6.444   3.950  13.766  0.00  0.00    +0.000 C 
ATOM     22  C   UNL     1       6.504   3.502  12.302  0.00  0.00    +0.000 C 
ENDBRANCH  19  21
ENDBRANCH  13  19
ENDBRANCH   1  16
TORSDOF 4
ENDMDL
MODEL 9
REMARK VINA RESULT:      -6.5      3.643      4.884
REMARK  Name = 
REMARK  6 active torsions:
REMARK  status: ('A' for Active; 'I' for Inactive)
REMARK    1  A    between atoms: C_1  and  C_2
REMARK    2  A    between atoms: C_2  and  C_3
REMARK    3  A    between atoms: C_2  and  C_4
REMARK    4  A    between atoms: C_4  and  N_5
REMARK    5  A    between atoms: C_8  and  N_9
REMARK    6  A    between atoms: C_10  and  C_12
REMARK                            x       y       z     vdW  Elec       q    Type
REMARK                         _______ _______ _______ _____ _____    ______ ____
ROOT
ATOM      1  N   UNL     1       3.288   6.107  19.568  0.00  0.00    +0.000 N 
ATOM      2  C   UNL     1       2.109   6.608  20.055  0.00  0.00    +0.000 C 
ATOM      3  O   UNL     1       1.356   5.990  20.798  0.00  0.00    +0.000 OA
ATOM      4  H   UNL     1       3.883   6.729  19.036  0.00  0.00    +0.000 HD
ENDROOT
BRANCH   2   5
ATOM      5  C   UNL     1       1.801   8.021  19.675  0.00  0.00    +0.000 A 
ATOM      6  C   UNL     1       2.090   8.397  18.350  0.00  0.00    +0.000 A 
ATOM      7  C   UNL     1       1.779   9.680  17.894  0.00  0.00    +0.000 A 
ATOM      8  C   UNL     1       1.182  10.587  18.758  0.00  0.00    +0.000 A 
ATOM      9  F   UNL     1       0.863  11.812  18.320  0.00  0.00    +0.000 F 
ATOM     10  C   UNL     1       0.913  10.249  20.080  0.00  0.00    +0.000 A 
ATOM     11  C   UNL     1       1.234   8.973  20.545  0.00  0.00    +0.000 A 
ATOM     12 CL   UNL     1       0.918   8.680  22.222  0.00  0.00    +0.000 Cl
ENDBRANCH   2   5
BRANCH   1  16
ATOM     13  N   UNL     1       4.891   3.795  17.226  0.00  0.00    +0.000 NA
ATOM     14  C   UNL     1       5.619   4.770  18.055  0.00  0.00    +0.000 C 
ATOM     15  C   UNL     1       5.272   4.645  19.541  0.00  0.00    +0.000 C 
ATOM     16  C   UNL     1       3.771   4.749  19.788  0.00  0.00    +0.000 C 
ATOM     17  C   UNL     1       3.030   3.769  18.874  0.00  0.00    +0.000 C 
ATOM     18  C   UNL     1       3.436   3.933  17.405  0.00  0.00    +0.000 C 
BRANCH  13  19
ATOM     19  C   UNL     1       5.248   3.907  15.792  0.00  0.00    +0.000 C 
BRANCH  19  21
ATOM     20  C   UNL     1       6.989   4.888  14.204  0.00  0.00    +0.000 C 
ATOM     21  C   UNL     1       6.128   5.133  15.445  0.00  0.00    +0.000 C 
ATOM     22  C   UNL     1       5.275   6.387  15.230  0.00  0.00    +0.000 C 
ENDBRANCH  19  21
ENDBRANCH  13  19
ENDBRANCH   1  16
TORSDOF 4
ENDMDL
