MODEL 1
REMARK VINA RESULT:      -9.0      0.000      0.000
REMARK  Name = 
REMARK  4 active torsions:
REMARK  status: ('A' for Active; 'I' for Inactive)
REMARK    1  A    between atoms: C_1  and  O_2
REMARK    2  A    between atoms: O_2  and  C_3
REMARK    3  A    between atoms: C_15  and  C_16
REMARK    4  A    between atoms: C_16  and  C_18
REMARK                            x       y       z     vdW  Elec       q    Type
REMARK                         _______ _______ _______ _____ _____    ______ ____
ROOT
ATOM      1  C   UNL     1       1.701   3.687  20.229  0.00  0.00    +0.000 A 
ATOM      2  C   UNL     1       2.300   4.828  20.765  0.00  0.00    +0.000 A 
ATOM      3  C   UNL     1       3.243   5.571  20.014  0.00  0.00    +0.000 A 
ATOM      4  C   UNL     1       3.608   5.165  18.720  0.00  0.00    +0.000 A 
ATOM      5  C   UNL     1       2.905   4.049  18.165  0.00  0.00    +0.000 A 
ATOM      6  C   UNL     1       1.981   3.329  18.924  0.00  0.00    +0.000 A 
ATOM      7  C   UNL     1       3.271   3.427  16.837  0.00  0.00    +0.000 C 
ATOM      8  C   UNL     1       4.389   4.204  16.206  0.00  0.00    +0.000 C 
ATOM      9  N   UNL     1       5.365   4.468  17.277  0.00  0.00    +0.000 N 
ATOM     10  C   UNL     1       6.709   4.608  17.000  0.00  0.00    +0.000 C 
ATOM     11  O   UNL     1       7.627   4.333  17.750  0.00  0.00    +0.000 OA
ATOM     12  C   UNL     1       6.846   5.519  15.834  0.00  0.00    +0.000 C 
ATOM     13  C   UNL     1       7.248   4.730  14.821  0.00  0.00    +0.000 C 
ATOM     14  N   UNL     1       6.238   6.770  16.043  0.00  0.00    +0.000 N 
ATOM     15  C   UNL     1       5.170   6.923  17.184  0.00  0.00    +0.000 C 
ATOM     16  C   UNL     1       4.947   5.603  18.081  0.00  0.00    +0.000 C 
ATOM     17  H   UNL     1       7.000   7.424  16.253  0.00  0.00    +0.000 HD
ENDROOT
BRANCH   1  19
ATOM     18  C   UNL     1       1.341   2.304  22.124  0.00  0.00    +0.000 C 
ATOM     19  O   UNL     1       0.903   2.783  20.868  0.00  0.00    +0.000 OA
ENDBRANCH   1  19
BRANCH  13  20
ATOM     20  C   UNL     1       7.351   4.730  13.351  0.00  0.00    +0.000 C 
ATOM     21  O   UNL     1       7.984   5.646  12.821  0.00  0.00    +0.000 OA
BRANCH  20  22
ATOM     22  C   UNL     1       6.779   3.703  12.491  0.00  0.00    +0.000 A 
ATOM     23  C   UNL     1       7.695   2.839  11.877  0.00  0.00    +0.000 A 
ATOM     24  C   UNL     1       7.240   1.788  11.085  0.00  0.00    +0.000 A 
ATOM     25  C   UNL     1       5.871   1.597  10.912  0.00  0.00    +0.000 A 
ATOM     26  C   UNL     1       4.959   2.433  11.562  0.00  0.00    +0.000 A 
ATOM     27  C   UNL     1       5.417   3.468  12.370  0.00  0.00    +0.000 A 
ATOM     28  F   UNL     1       4.520   4.156  13.089  0.00  0.00    +0.000 F 
ENDBRANCH  20  22
ENDBRANCH  13  20
TORSDOF 3
ENDMDL
MODEL 2
REMARK VINA RESULT:      -8.8      0.916      1.321
REMARK  Name = 
REMARK  4 active torsions:
REMARK  status: ('A' for Active; 'I' for Inactive)
REMARK    1  A    between atoms: C_1  and  O_2
REMARK    2  A    between atoms: O_2  and  C_3
REMARK    3  A    between atoms: C_15  and  C_16
REMARK    4  A    between atoms: C_16  and  C_18
REMARK                            x       y       z     vdW  Elec       q    Type
REMARK                         _______ _______ _______ _____ _____    ______ ____
ROOT
ATOM      1  C   UNL     1       1.588   3.781  20.400  0.00  0.00    +0.000 A 
ATOM      2  C   UNL     1       2.166   4.962  20.868  0.00  0.00    +0.000 A 
ATOM      3  C   UNL     1       3.083   5.685  20.069  0.00  0.00    +0.000 A 
ATOM      4  C   UNL     1       3.445   5.219  18.795  0.00  0.00    +0.000 A 
ATOM      5  C   UNL     1       2.764   4.060  18.307  0.00  0.00    +0.000 A 
ATOM      6  C   UNL     1       1.863   3.360  19.113  0.00  0.00    +0.000 A 
ATOM      7  C   UNL     1       3.131   3.377  17.010  0.00  0.00    +0.000 C 
ATOM      8  C   UNL     1       4.224   4.144  16.327  0.00  0.00    +0.000 C 
ATOM      9  N   UNL     1       5.205   4.486  17.372  0.00  0.00    +0.000 N 
ATOM     10  C   UNL     1       6.542   4.642  17.074  0.00  0.00    +0.000 C 
ATOM     11  O   UNL     1       7.473   4.427  17.827  0.00  0.00    +0.000 OA
ATOM     12  C   UNL     1       6.647   5.493  15.859  0.00  0.00    +0.000 C 
ATOM     13  C   UNL     1       7.057   4.660  14.885  0.00  0.00    +0.000 C 
ATOM     14  N   UNL     1       6.012   6.739  16.009  0.00  0.00    +0.000 N 
ATOM     15  C   UNL     1       4.952   6.928  17.152  0.00  0.00    +0.000 C 
ATOM     16  C   UNL     1       4.768   5.653  18.119  0.00  0.00    +0.000 C 
ATOM     17  H   UNL     1       6.761   7.420  16.176  0.00  0.00    +0.000 HD
ENDROOT
BRANCH   1  19
ATOM     18  C   UNL     1       1.415   2.233  22.192  0.00  0.00    +0.000 C 
ATOM     19  O   UNL     1       0.817   2.894  21.094  0.00  0.00    +0.000 OA
ENDBRANCH   1  19
BRANCH  13  20
ATOM     20  C   UNL     1       7.146   4.585  13.416  0.00  0.00    +0.000 C 
ATOM     21  O   UNL     1       7.971   5.309  12.855  0.00  0.00    +0.000 OA
BRANCH  20  22
ATOM     22  C   UNL     1       6.344   3.691  12.593  0.00  0.00    +0.000 A 
ATOM     23  C   UNL     1       4.979   3.997  12.508  0.00  0.00    +0.000 A 
ATOM     24  C   UNL     1       4.142   3.237  11.697  0.00  0.00    +0.000 A 
ATOM     25  C   UNL     1       4.668   2.174  10.967  0.00  0.00    +0.000 A 
ATOM     26  C   UNL     1       6.037   1.897  11.019  0.00  0.00    +0.000 A 
ATOM     27  C   UNL     1       6.875   2.673  11.814  0.00  0.00    +0.000 A 
ATOM     28  F   UNL     1       8.196   2.472  11.728  0.00  0.00    +0.000 F 
ENDBRANCH  20  22
ENDBRANCH  13  20
TORSDOF 3
ENDMDL
MODEL 3
REMARK VINA RESULT:      -8.2      3.025      4.157
REMARK  Name = 
REMARK  4 active torsions:
REMARK  status: ('A' for Active; 'I' for Inactive)
REMARK    1  A    between atoms: C_1  and  O_2
REMARK    2  A    between atoms: O_2  and  C_3
REMARK    3  A    between atoms: C_15  and  C_16
REMARK    4  A    between atoms: C_16  and  C_18
REMARK                            x       y       z     vdW  Elec       q    Type
REMARK                         _______ _______ _______ _____ _____    ______ ____
ROOT
ATOM      1  C   UNL     1       0.385   9.298  20.016  0.00  0.00    +0.000 A 
ATOM      2  C   UNL     1       0.438   8.298  20.988  0.00  0.00    +0.000 A 
ATOM      3  C   UNL     1       1.371   7.238  20.886  0.00  0.00    +0.000 A 
ATOM      4  C   UNL     1       2.252   7.162  19.795  0.00  0.00    +0.000 A 
ATOM      5  C   UNL     1       2.237   8.252  18.869  0.00  0.00    +0.000 A 
ATOM      6  C   UNL     1       1.307   9.287  18.986  0.00  0.00    +0.000 A 
ATOM      7  C   UNL     1       3.040   8.252  17.588  0.00  0.00    +0.000 C 
ATOM      8  C   UNL     1       3.870   7.005  17.512  0.00  0.00    +0.000 C 
ATOM      9  N   UNL     1       2.990   5.896  17.922  0.00  0.00    +0.000 N 
ATOM     10  C   UNL     1       3.178   4.619  17.437  0.00  0.00    +0.000 C 
ATOM     11  O   UNL     1       2.313   3.780  17.276  0.00  0.00    +0.000 OA
ATOM     12  C   UNL     1       4.626   4.297  17.538  0.00  0.00    +0.000 C 
ATOM     13  C   UNL     1       5.071   4.288  16.268  0.00  0.00    +0.000 C 
ATOM     14  N   UNL     1       5.124   4.421  18.848  0.00  0.00    +0.000 N 
ATOM     15  C   UNL     1       4.311   5.255  19.902  0.00  0.00    +0.000 C 
ATOM     16  C   UNL     1       2.901   5.824  19.369  0.00  0.00    +0.000 C 
ATOM     17  H   UNL     1       5.199   3.465  19.214  0.00  0.00    +0.000 HD
ENDROOT
BRANCH   1  19
ATOM     18  C   UNL     1      -1.129  10.465  18.608  0.00  0.00    +0.000 C 
ATOM     19  O   UNL     1      -0.545  10.289  19.884  0.00  0.00    +0.000 OA
ENDBRANCH   1  19
BRANCH  13  20
ATOM     20  C   UNL     1       6.329   4.336  15.503  0.00  0.00    +0.000 C 
ATOM     21  O   UNL     1       7.372   4.541  16.128  0.00  0.00    +0.000 OA
BRANCH  20  22
ATOM     22  C   UNL     1       6.419   4.129  14.064  0.00  0.00    +0.000 A 
ATOM     23  C   UNL     1       5.388   3.375  13.489  0.00  0.00    +0.000 A 
ATOM     24  C   UNL     1       5.355   3.174  12.112  0.00  0.00    +0.000 A 
ATOM     25  C   UNL     1       6.347   3.732  11.309  0.00  0.00    +0.000 A 
ATOM     26  C   UNL     1       7.349   4.521  11.880  0.00  0.00    +0.000 A 
ATOM     27  C   UNL     1       7.367   4.738  13.254  0.00  0.00    +0.000 A 
ATOM     28  F   UNL     1       8.253   5.613  13.747  0.00  0.00    +0.000 F 
ENDBRANCH  20  22
ENDBRANCH  13  20
TORSDOF 3
ENDMDL
MODEL 4
REMARK VINA RESULT:      -7.9      6.602      8.777
REMARK  Name = 
REMARK  4 active torsions:
REMARK  status: ('A' for Active; 'I' for Inactive)
REMARK    1  A    between atoms: C_1  and  O_2
REMARK    2  A    between atoms: O_2  and  C_3
REMARK    3  A    between atoms: C_15  and  C_16
REMARK    4  A    between atoms: C_16  and  C_18
REMARK                            x       y       z     vdW  Elec       q    Type
REMARK                         _______ _______ _______ _____ _____    ______ ____
ROOT
ATOM      1  C   UNL     1      -1.899  13.059  22.609  0.00  0.00    +0.000 A 
ATOM      2  C   UNL     1      -2.390  13.460  21.366  0.00  0.00    +0.000 A 
ATOM      3  C   UNL     1      -2.052  12.748  20.190  0.00  0.00    +0.000 A 
ATOM      4  C   UNL     1      -1.200  11.633  20.247  0.00  0.00    +0.000 A 
ATOM      5  C   UNL     1      -0.792  11.192  21.545  0.00  0.00    +0.000 A 
ATOM      6  C   UNL     1      -1.135  11.910  22.692  0.00  0.00    +0.000 A 
ATOM      7  C   UNL     1       0.216  10.085  21.756  0.00  0.00    +0.000 C 
ATOM      8  C   UNL     1       0.622   9.512  20.431  0.00  0.00    +0.000 C 
ATOM      9  N   UNL     1       0.851  10.661  19.536  0.00  0.00    +0.000 N 
ATOM     10  C   UNL     1       1.755  10.589  18.499  0.00  0.00    +0.000 C 
ATOM     11  O   UNL     1       2.389  11.518  18.035  0.00  0.00    +0.000 OA
ATOM     12  C   UNL     1       1.527   9.310  17.776  0.00  0.00    +0.000 C 
ATOM     13  C   UNL     1       2.593   8.545  18.075  0.00  0.00    +0.000 C 
ATOM     14  N   UNL     1       0.207   9.174  17.309  0.00  0.00    +0.000 N 
ATOM     15  C   UNL     1      -0.922  10.073  17.928  0.00  0.00    +0.000 C 
ATOM     16  C   UNL     1      -0.409  11.154  19.008  0.00  0.00    +0.000 C 
ATOM     17  H   UNL     1       0.239   9.380  16.305  0.00  0.00    +0.000 HD
ENDROOT
BRANCH   1  19
ATOM     18  C   UNL     1      -1.162  14.839  23.996  0.00  0.00    +0.000 C 
ATOM     19  O   UNL     1      -1.999  13.716  23.801  0.00  0.00    +0.000 OA
ENDBRANCH   1  19
BRANCH  13  20
ATOM     20  C   UNL     1       3.034   7.140  18.030  0.00  0.00    +0.000 C 
ATOM     21  O   UNL     1       4.088   6.888  17.442  0.00  0.00    +0.000 OA
BRANCH  20  22
ATOM     22  C   UNL     1       2.318   6.039  18.661  0.00  0.00    +0.000 A 
ATOM     23  C   UNL     1       2.045   4.938  17.839  0.00  0.00    +0.000 A 
ATOM     24  C   UNL     1       1.419   3.812  18.367  0.00  0.00    +0.000 A 
ATOM     25  C   UNL     1       1.072   3.784  19.715  0.00  0.00    +0.000 A 
ATOM     26  C   UNL     1       1.386   4.865  20.542  0.00  0.00    +0.000 A 
ATOM     27  C   UNL     1       2.031   5.980  20.017  0.00  0.00    +0.000 A 
ATOM     28  F   UNL     1       2.444   6.932  20.863  0.00  0.00    +0.000 F 
ENDBRANCH  20  22
ENDBRANCH  13  20
TORSDOF 3
ENDMDL
MODEL 5
REMARK VINA RESULT:      -7.7      6.441      8.729
REMARK  Name = 
REMARK  4 active torsions:
REMARK  status: ('A' for Active; 'I' for Inactive)
REMARK    1  A    between atoms: C_1  and  O_2
REMARK    2  A    between atoms: O_2  and  C_3
REMARK    3  A    between atoms: C_15  and  C_16
REMARK    4  A    between atoms: C_16  and  C_18
REMARK                            x       y       z     vdW  Elec       q    Type
REMARK                         _______ _______ _______ _____ _____    ______ ____
ROOT
ATOM      1  C   UNL     1      -1.929  12.989  22.626  0.00  0.00    +0.000 A 
ATOM      2  C   UNL     1      -2.425  13.390  21.385  0.00  0.00    +0.000 A 
ATOM      3  C   UNL     1      -2.079  12.688  20.206  0.00  0.00    +0.000 A 
ATOM      4  C   UNL     1      -1.214  11.583  20.258  0.00  0.00    +0.000 A 
ATOM      5  C   UNL     1      -0.801  11.140  21.554  0.00  0.00    +0.000 A 
ATOM      6  C   UNL     1      -1.152  11.848  22.704  0.00  0.00    +0.000 A 
ATOM      7  C   UNL     1       0.219  10.044  21.760  0.00  0.00    +0.000 C 
ATOM      8  C   UNL     1       0.632   9.482  20.432  0.00  0.00    +0.000 C 
ATOM      9  N   UNL     1       0.847  10.637  19.542  0.00  0.00    +0.000 N 
ATOM     10  C   UNL     1       1.752  10.580  18.504  0.00  0.00    +0.000 C 
ATOM     11  O   UNL     1       2.375  11.518  18.045  0.00  0.00    +0.000 OA
ATOM     12  C   UNL     1       1.538   9.301  17.776  0.00  0.00    +0.000 C 
ATOM     13  C   UNL     1       2.613   8.548  18.071  0.00  0.00    +0.000 C 
ATOM     14  N   UNL     1       0.220   9.153  17.308  0.00  0.00    +0.000 N 
ATOM     15  C   UNL     1      -0.920  10.036  17.932  0.00  0.00    +0.000 C 
ATOM     16  C   UNL     1      -0.418  11.118  19.016  0.00  0.00    +0.000 C 
ATOM     17  H   UNL     1       0.250   9.364  16.305  0.00  0.00    +0.000 HD
ENDROOT
BRANCH   1  19
ATOM     18  C   UNL     1      -3.323  13.721  24.402  0.00  0.00    +0.000 C 
ATOM     19  O   UNL     1      -2.037  13.640  23.821  0.00  0.00    +0.000 OA
ENDBRANCH   1  19
BRANCH  13  20
ATOM     20  C   UNL     1       3.070   7.148  18.020  0.00  0.00    +0.000 C 
ATOM     21  O   UNL     1       4.019   6.882  17.279  0.00  0.00    +0.000 OA
BRANCH  20  22
ATOM     22  C   UNL     1       2.490   6.070  18.809  0.00  0.00    +0.000 A 
ATOM     23  C   UNL     1       2.149   6.393  20.129  0.00  0.00    +0.000 A 
ATOM     24  C   UNL     1       1.533   5.447  20.942  0.00  0.00    +0.000 A 
ATOM     25  C   UNL     1       1.252   4.180  20.436  0.00  0.00    +0.000 A 
ATOM     26  C   UNL     1       1.552   3.874  19.106  0.00  0.00    +0.000 A 
ATOM     27  C   UNL     1       2.148   4.830  18.289  0.00  0.00    +0.000 A 
ATOM     28  F   UNL     1       2.289   4.552  16.986  0.00  0.00    +0.000 F 
ENDBRANCH  20  22
ENDBRANCH  13  20
TORSDOF 3
ENDMDL
MODEL 6
REMARK VINA RESULT:      -7.6      7.907     11.845
REMARK  Name = 
REMARK  4 active torsions:
REMARK  status: ('A' for Active; 'I' for Inactive)
REMARK    1  A    between atoms: C_1  and  O_2
REMARK    2  A    between atoms: O_2  and  C_3
REMARK    3  A    between atoms: C_15  and  C_16
REMARK    4  A    between atoms: C_16  and  C_18
REMARK                            x       y       z     vdW  Elec       q    Type
REMARK                         _______ _______ _______ _____ _____    ______ ____
ROOT
ATOM      1  C   UNL     1       2.840   5.953  19.163  0.00  0.00    +0.000 A 
ATOM      2  C   UNL     1       3.123   6.696  18.015  0.00  0.00    +0.000 A 
ATOM      3  C   UNL     1       2.679   8.034  17.891  0.00  0.00    +0.000 A 
ATOM      4  C   UNL     1       1.928   8.638  18.913  0.00  0.00    +0.000 A 
ATOM      5  C   UNL     1       1.738   7.883  20.114  0.00  0.00    +0.000 A 
ATOM      6  C   UNL     1       2.183   6.564  20.215  0.00  0.00    +0.000 A 
ATOM      7  C   UNL     1       0.855   8.353  21.247  0.00  0.00    +0.000 C 
ATOM      8  C   UNL     1       0.312   9.715  20.934  0.00  0.00    +0.000 C 
ATOM      9  N   UNL     1      -0.123   9.673  19.526  0.00  0.00    +0.000 N 
ATOM     10  C   UNL     1      -1.155  10.468  19.074  0.00  0.00    +0.000 C 
ATOM     11  O   UNL     1      -1.914  10.204  18.161  0.00  0.00    +0.000 OA
ATOM     12  C   UNL     1      -0.935  11.846  19.587  0.00  0.00    +0.000 C 
ATOM     13  C   UNL     1      -1.890  12.028  20.517  0.00  0.00    +0.000 C 
ATOM     14  N   UNL     1       0.314  12.375  19.213  0.00  0.00    +0.000 N 
ATOM     15  C   UNL     1       1.448  11.399  18.734  0.00  0.00    +0.000 C 
ATOM     16  C   UNL     1       1.011   9.851  18.636  0.00  0.00    +0.000 C 
ATOM     17  H   UNL     1       0.127  13.022  18.439  0.00  0.00    +0.000 HD
ENDROOT
BRANCH   1  19
ATOM     18  C   UNL     1       2.082   3.722  18.885  0.00  0.00    +0.000 C 
ATOM     19  O   UNL     1       3.056   4.622  19.373  0.00  0.00    +0.000 OA
ENDBRANCH   1  19
BRANCH  13  20
ATOM     20  C   UNL     1      -2.226  12.918  21.642  0.00  0.00    +0.000 C 
ATOM     21  O   UNL     1      -1.423  13.809  21.928  0.00  0.00    +0.000 OA
BRANCH  20  22
ATOM     22  C   UNL     1      -3.457  12.829  22.415  0.00  0.00    +0.000 A 
ATOM     23  C   UNL     1      -3.305  12.526  23.774  0.00  0.00    +0.000 A 
ATOM     24  C   UNL     1      -4.418  12.478  24.608  0.00  0.00    +0.000 A 
ATOM     25  C   UNL     1      -5.683  12.739  24.086  0.00  0.00    +0.000 A 
ATOM     26  C   UNL     1      -5.827  13.084  22.740  0.00  0.00    +0.000 A 
ATOM     27  C   UNL     1      -4.710  13.153  21.914  0.00  0.00    +0.000 A 
ATOM     28  F   UNL     1      -4.867  13.625  20.671  0.00  0.00    +0.000 F 
ENDBRANCH  20  22
ENDBRANCH  13  20
TORSDOF 3
ENDMDL
MODEL 7
REMARK VINA RESULT:      -7.6      8.220     12.104
REMARK  Name = 
REMARK  4 active torsions:
REMARK  status: ('A' for Active; 'I' for Inactive)
REMARK    1  A    between atoms: C_1  and  O_2
REMARK    2  A    between atoms: O_2  and  C_3
REMARK    3  A    between atoms: C_15  and  C_16
REMARK    4  A    between atoms: C_16  and  C_18
REMARK                            x       y       z     vdW  Elec       q    Type
REMARK                         _______ _______ _______ _____ _____    ______ ____
ROOT
ATOM      1  C   UNL     1       2.503   6.503  19.465  0.00  0.00    +0.000 A 
ATOM      2  C   UNL     1       2.813   7.161  18.274  0.00  0.00    +0.000 A 
ATOM      3  C   UNL     1       2.351   8.476  18.031  0.00  0.00    +0.000 A 
ATOM      4  C   UNL     1       1.554   9.141  18.977  0.00  0.00    +0.000 A 
ATOM      5  C   UNL     1       1.334   8.478  20.225  0.00  0.00    +0.000 A 
ATOM      6  C   UNL     1       1.798   7.179  20.444  0.00  0.00    +0.000 A 
ATOM      7  C   UNL     1       0.403   9.015  21.288  0.00  0.00    +0.000 C 
ATOM      8  C   UNL     1      -0.152  10.338  20.851  0.00  0.00    +0.000 C 
ATOM      9  N   UNL     1      -0.536  10.180  19.437  0.00  0.00    +0.000 N 
ATOM     10  C   UNL     1      -1.565  10.916  18.890  0.00  0.00    +0.000 C 
ATOM     11  O   UNL     1      -2.286  10.568  17.974  0.00  0.00    +0.000 OA
ATOM     12  C   UNL     1      -1.386  12.334  19.301  0.00  0.00    +0.000 C 
ATOM     13  C   UNL     1      -2.377  12.568  20.182  0.00  0.00    +0.000 C 
ATOM     14  N   UNL     1      -0.135  12.857  18.930  0.00  0.00    +0.000 N 
ATOM     15  C   UNL     1       1.033  11.871  18.568  0.00  0.00    +0.000 C 
ATOM     16  C   UNL     1       0.626  10.312  18.576  0.00  0.00    +0.000 C 
ATOM     17  H   UNL     1      -0.305  13.439  18.103  0.00  0.00    +0.000 HD
ENDROOT
BRANCH   1  19
ATOM     18  C   UNL     1       2.187   4.718  20.998  0.00  0.00    +0.000 C 
ATOM     19  O   UNL     1       2.734   5.197  19.785  0.00  0.00    +0.000 OA
ENDBRANCH   1  19
BRANCH  13  20
ATOM     20  C   UNL     1      -2.769  13.535  21.221  0.00  0.00    +0.000 C 
ATOM     21  O   UNL     1      -2.329  14.684  21.131  0.00  0.00    +0.000 OA
BRANCH  20  22
ATOM     22  C   UNL     1      -3.662  13.227  22.330  0.00  0.00    +0.000 A 
ATOM     23  C   UNL     1      -5.012  13.547  22.134  0.00  0.00    +0.000 A 
ATOM     24  C   UNL     1      -5.952  13.234  23.111  0.00  0.00    +0.000 A 
ATOM     25  C   UNL     1      -5.545  12.597  24.281  0.00  0.00    +0.000 A 
ATOM     26  C   UNL     1      -4.206  12.240  24.455  0.00  0.00    +0.000 A 
ATOM     27  C   UNL     1      -3.272  12.533  23.466  0.00  0.00    +0.000 A 
ATOM     28  F   UNL     1      -2.031  12.050  23.602  0.00  0.00    +0.000 F 
ENDBRANCH  20  22
ENDBRANCH  13  20
TORSDOF 3
ENDMDL
MODEL 8
REMARK VINA RESULT:      -7.6      7.523     11.284
REMARK  Name = 
REMARK  4 active torsions:
REMARK  status: ('A' for Active; 'I' for Inactive)
REMARK    1  A    between atoms: C_1  and  O_2
REMARK    2  A    between atoms: O_2  and  C_3
REMARK    3  A    between atoms: C_15  and  C_16
REMARK    4  A    between atoms: C_16  and  C_18
REMARK                            x       y       z     vdW  Elec       q    Type
REMARK                         _______ _______ _______ _____ _____    ______ ____
ROOT
ATOM      1  C   UNL     1       2.833   5.640  19.459  0.00  0.00    +0.000 A 
ATOM      2  C   UNL     1       3.258   6.193  18.250  0.00  0.00    +0.000 A 
ATOM      3  C   UNL     1       2.938   7.530  17.914  0.00  0.00    +0.000 A 
ATOM      4  C   UNL     1       2.171   8.324  18.782  0.00  0.00    +0.000 A 
ATOM      5  C   UNL     1       1.833   7.759  20.052  0.00  0.00    +0.000 A 
ATOM      6  C   UNL     1       2.157   6.438  20.364  0.00  0.00    +0.000 A 
ATOM      7  C   UNL     1       0.915   8.446  21.037  0.00  0.00    +0.000 C 
ATOM      8  C   UNL     1       0.513   9.788  20.502  0.00  0.00    +0.000 C 
ATOM      9  N   UNL     1       0.176   9.583  19.082  0.00  0.00    +0.000 N 
ATOM     10  C   UNL     1      -0.751  10.381  18.446  0.00  0.00    +0.000 C 
ATOM     11  O   UNL     1      -1.463  10.050  17.517  0.00  0.00    +0.000 OA
ATOM     12  C   UNL     1      -0.451  11.797  18.787  0.00  0.00    +0.000 C 
ATOM     13  C   UNL     1      -1.451  12.178  19.604  0.00  0.00    +0.000 C 
ATOM     14  N   UNL     1       0.860  12.175  18.449  0.00  0.00    +0.000 N 
ATOM     15  C   UNL     1       1.939  11.061  18.198  0.00  0.00    +0.000 C 
ATOM     16  C   UNL     1       1.381   9.552  18.272  0.00  0.00    +0.000 C 
ATOM     17  H   UNL     1       0.784  12.721  17.584  0.00  0.00    +0.000 HD
ENDROOT
BRANCH   1  19
ATOM     18  C   UNL     1       2.657   3.341  18.895  0.00  0.00    +0.000 C 
ATOM     19  O   UNL     1       2.920   4.339  19.862  0.00  0.00    +0.000 OA
ENDBRANCH   1  19
BRANCH  13  20
ATOM     20  C   UNL     1      -1.790  13.238  20.569  0.00  0.00    +0.000 C 
ATOM     21  O   UNL     1      -1.257  14.340  20.420  0.00  0.00    +0.000 OA
BRANCH  20  22
ATOM     22  C   UNL     1      -2.733  13.073  21.667  0.00  0.00    +0.000 A 
ATOM     23  C   UNL     1      -4.042  13.505  21.418  0.00  0.00    +0.000 A 
ATOM     24  C   UNL     1      -5.029  13.333  22.385  0.00  0.00    +0.000 A 
ATOM     25  C   UNL     1      -4.709  12.725  23.597  0.00  0.00    +0.000 A 
ATOM     26  C   UNL     1      -3.413  12.256  23.825  0.00  0.00    +0.000 A 
ATOM     27  C   UNL     1      -2.435  12.409  22.848  0.00  0.00    +0.000 A 
ATOM     28  F   UNL     1      -1.247  11.821  23.042  0.00  0.00    +0.000 F 
ENDBRANCH  20  22
ENDBRANCH  13  20
TORSDOF 3
ENDMDL
MODEL 9
REMARK VINA RESULT:      -7.5      8.862     12.672
REMARK  Name = 
REMARK  4 active torsions:
REMARK  status: ('A' for Active; 'I' for Inactive)
REMARK    1  A    between atoms: C_1  and  O_2
REMARK    2  A    between atoms: O_2  and  C_3
REMARK    3  A    between atoms: C_15  and  C_16
REMARK    4  A    between atoms: C_16  and  C_18
REMARK                            x       y       z     vdW  Elec       q    Type
REMARK                         _______ _______ _______ _____ _____    ______ ____
ROOT
ATOM      1  C   UNL     1       2.493   7.270  19.235  0.00  0.00    +0.000 A 
ATOM      2  C   UNL     1       2.678   8.012  18.068  0.00  0.00    +0.000 A 
ATOM      3  C   UNL     1       2.029   9.258  17.892  0.00  0.00    +0.000 A 
ATOM      4  C   UNL     1       1.172   9.765  18.881  0.00  0.00    +0.000 A 
ATOM      5  C   UNL     1       1.079   9.027  20.103  0.00  0.00    +0.000 A 
ATOM      6  C   UNL     1       1.726   7.800  20.256  0.00  0.00    +0.000 A 
ATOM      7  C   UNL     1       0.109   9.385  21.206  0.00  0.00    +0.000 C 
ATOM      8  C   UNL     1      -0.636  10.633  20.839  0.00  0.00    +0.000 C 
ATOM      9  N   UNL     1      -1.030  10.479  19.427  0.00  0.00    +0.000 N 
ATOM     10  C   UNL     1      -2.166  11.084  18.932  0.00  0.00    +0.000 C 
ATOM     11  O   UNL     1      -2.855  10.674  18.017  0.00  0.00    +0.000 OA
ATOM     12  C   UNL     1      -2.178  12.495  19.401  0.00  0.00    +0.000 C 
ATOM     13  C   UNL     1      -3.169  12.551  20.310  0.00  0.00    +0.000 C 
ATOM     14  N   UNL     1      -1.022  13.204  19.029  0.00  0.00    +0.000 N 
ATOM     15  C   UNL     1       0.263  12.408  18.601  0.00  0.00    +0.000 C 
ATOM     16  C   UNL     1       0.079  10.808  18.549  0.00  0.00    +0.000 C 
ATOM     17  H   UNL     1      -1.293  13.789  18.231  0.00  0.00    +0.000 HD
ENDROOT
BRANCH   1  19
ATOM     18  C   UNL     1       2.090   5.196  20.318  0.00  0.00    +0.000 C 
ATOM     19  O   UNL     1       2.914   5.997  19.494  0.00  0.00    +0.000 OA
ENDBRANCH   1  19
BRANCH  13  20
ATOM     20  C   UNL     1      -3.666  13.411  21.399  0.00  0.00    +0.000 C 
ATOM     21  O   UNL     1      -3.027  14.432  21.659  0.00  0.00    +0.000 OA
BRANCH  20  22
ATOM     22  C   UNL     1      -4.876  13.143  22.164  0.00  0.00    +0.000 A 
ATOM     23  C   UNL     1      -6.031  12.891  21.412  0.00  0.00    +0.000 A 
ATOM     24  C   UNL     1      -7.223  12.565  22.053  0.00  0.00    +0.000 A 
ATOM     25  C   UNL     1      -7.260  12.486  23.443  0.00  0.00    +0.000 A 
ATOM     26  C   UNL     1      -6.096  12.695  24.188  0.00  0.00    +0.000 A 
ATOM     27  C   UNL     1      -4.901  12.999  23.544  0.00  0.00    +0.000 A 
ATOM     28  F   UNL     1      -3.781  13.050  24.275  0.00  0.00    +0.000 F 
ENDBRANCH  20  22
ENDBRANCH  13  20
TORSDOF 3
ENDMDL
