MODEL 1
REMARK VINA RESULT:      -7.5      0.000      0.000
REMARK  Name = 
REMARK  2 active torsions:
REMARK  status: ('A' for Active; 'I' for Inactive)
REMARK    1  A    between atoms: C_2  and  C_3
REMARK    2  A    between atoms: C_17  and  C_18
REMARK                            x       y       z     vdW  Elec       q    Type
REMARK                         _______ _______ _______ _____ _____    ______ ____
ROOT
ATOM      1  O   UNL     1       0.539  12.496  21.794  0.00  0.00    +0.000 OA
ATOM      2  C   UNL     1      -0.553  11.964  22.033  0.00  0.00    +0.000 C 
ATOM      3  N   UNL     1      -1.693  12.737  22.166  0.00  0.00    +0.000 N 
ATOM      4  C   UNL     1      -1.671  14.152  21.898  0.00  0.00    +0.000 C 
ATOM      5  C   UNL     1      -3.074  14.466  21.397  0.00  0.00    +0.000 C 
ATOM      6  C   UNL     1      -3.989  13.328  21.930  0.00  0.00    +0.000 C 
ATOM      7  C   UNL     1      -4.983  13.917  22.946  0.00  0.00    +0.000 C 
ATOM      8  O   UNL     1      -5.937  12.933  23.343  0.00  0.00    +0.000 OA
ATOM      9  C   UNL     1      -6.833  12.635  22.269  0.00  0.00    +0.000 C 
ATOM     10  C   UNL     1      -6.088  12.256  21.033  0.00  0.00    +0.000 A 
ATOM     11  C   UNL     1      -6.700  11.563  20.010  0.00  0.00    +0.000 A 
ATOM     12  N   UNL     1      -6.069  11.179  18.890  0.00  0.00    +0.000 NA
ATOM     13  C   UNL     1      -4.770  11.513  18.784  0.00  0.00    +0.000 A 
ATOM     14  N   UNL     1      -4.092  12.221  19.715  0.00  0.00    +0.000 NA
ATOM     15  C   UNL     1      -4.761  12.600  20.829  0.00  0.00    +0.000 A 
ATOM     16  C   UNL     1      -3.021  12.322  22.592  0.00  0.00    +0.000 C 
ENDROOT
BRANCH  13  17
ATOM     17  C   UNL     1      -4.051  11.067  17.583  0.00  0.00    +0.000 A 
ATOM     18  C   UNL     1      -2.965  10.184  17.633  0.00  0.00    +0.000 A 
ATOM     19  C   UNL     1      -2.299   9.801  16.466  0.00  0.00    +0.000 A 
ATOM     20  C   UNL     1      -2.744  10.315  15.259  0.00  0.00    +0.000 A 
ATOM     21  N   UNL     1      -3.793  11.152  15.149  0.00  0.00    +0.000 NA
ATOM     22  C   UNL     1      -4.416  11.502  16.305  0.00  0.00    +0.000 A 
ENDBRANCH  13  17
BRANCH   2  23
ATOM     23  C   UNL     1      -0.738  10.425  22.134  0.00  0.00    +0.000 C 
ATOM     24  C   UNL     1      -0.203   9.608  20.925  0.00  0.00    +0.000 C 
ATOM     25  C   UNL     1       0.286   8.542  21.915  0.00  0.00    +0.000 C 
ATOM     26  C   UNL     1       0.282   9.630  23.001  0.00  0.00    +0.000 C 
ENDBRANCH   2  23
TORSDOF 2
ENDMDL
MODEL 2
REMARK VINA RESULT:      -6.8      9.284     12.916
REMARK  Name = 
REMARK  2 active torsions:
REMARK  status: ('A' for Active; 'I' for Inactive)
REMARK    1  A    between atoms: C_2  and  C_3
REMARK    2  A    between atoms: C_17  and  C_18
REMARK                            x       y       z     vdW  Elec       q    Type
REMARK                         _______ _______ _______ _____ _____    ______ ____
ROOT
ATOM      1  O   UNL     1       5.715  17.462  19.027  0.00  0.00    +0.000 OA
ATOM      2  C   UNL     1       6.070  16.340  18.646  0.00  0.00    +0.000 C 
ATOM      3  N   UNL     1       7.415  16.037  18.521  0.00  0.00    +0.000 N 
ATOM      4  C   UNL     1       8.431  16.959  18.957  0.00  0.00    +0.000 C 
ATOM      5  C   UNL     1       9.591  16.072  19.387  0.00  0.00    +0.000 C 
ATOM      6  C   UNL     1       9.393  14.716  18.656  0.00  0.00    +0.000 C 
ATOM      7  C   UNL     1      10.537  14.517  17.646  0.00  0.00    +0.000 C 
ATOM      8  O   UNL     1      10.473  13.215  17.064  0.00  0.00    +0.000 OA
ATOM      9  C   UNL     1      10.819  12.214  18.025  0.00  0.00    +0.000 C 
ATOM     10  C   UNL     1       9.989  12.340  19.260  0.00  0.00    +0.000 A 
ATOM     11  C   UNL     1       9.854  11.291  20.144  0.00  0.00    +0.000 A 
ATOM     12  N   UNL     1       9.102  11.347  21.254  0.00  0.00    +0.000 NA
ATOM     13  C   UNL     1       8.465  12.507  21.496  0.00  0.00    +0.000 A 
ATOM     14  N   UNL     1       8.564  13.602  20.709  0.00  0.00    +0.000 NA
ATOM     15  C   UNL     1       9.337  13.515  19.601  0.00  0.00    +0.000 A 
ATOM     16  C   UNL     1       8.023  14.844  17.952  0.00  0.00    +0.000 C 
ENDROOT
BRANCH  13  17
ATOM     17  C   UNL     1       7.606  12.574  22.684  0.00  0.00    +0.000 A 
ATOM     18  C   UNL     1       7.884  11.868  23.863  0.00  0.00    +0.000 A 
ATOM     19  C   UNL     1       7.029  11.948  24.964  0.00  0.00    +0.000 A 
ATOM     20  C   UNL     1       5.901  12.746  24.861  0.00  0.00    +0.000 A 
ATOM     21  N   UNL     1       5.593  13.461  23.762  0.00  0.00    +0.000 NA
ATOM     22  C   UNL     1       6.450  13.359  22.711  0.00  0.00    +0.000 A 
ENDBRANCH  13  17
BRANCH   2  23
ATOM     23  C   UNL     1       5.067  15.192  18.348  0.00  0.00    +0.000 C 
ATOM     24  C   UNL     1       4.110  14.822  19.517  0.00  0.00    +0.000 C 
ATOM     25  C   UNL     1       2.990  14.632  18.484  0.00  0.00    +0.000 C 
ATOM     26  C   UNL     1       3.786  15.544  17.537  0.00  0.00    +0.000 C 
ENDBRANCH   2  23
TORSDOF 2
ENDMDL
MODEL 3
REMARK VINA RESULT:      -6.6      1.184      1.493
REMARK  Name = 
REMARK  2 active torsions:
REMARK  status: ('A' for Active; 'I' for Inactive)
REMARK    1  A    between atoms: C_2  and  C_3
REMARK    2  A    between atoms: C_17  and  C_18
REMARK                            x       y       z     vdW  Elec       q    Type
REMARK                         _______ _______ _______ _____ _____    ______ ____
ROOT
ATOM      1  O   UNL     1       1.622  12.112  21.190  0.00  0.00    +0.000 OA
ATOM      2  C   UNL     1       0.538  11.699  21.621  0.00  0.00    +0.000 C 
ATOM      3  N   UNL     1      -0.433  12.590  22.041  0.00  0.00    +0.000 N 
ATOM      4  C   UNL     1      -0.269  14.010  21.865  0.00  0.00    +0.000 C 
ATOM      5  C   UNL     1      -1.687  14.538  21.692  0.00  0.00    +0.000 C 
ATOM      6  C   UNL     1      -2.624  13.478  22.333  0.00  0.00    +0.000 C 
ATOM      7  C   UNL     1      -3.302  14.090  23.572  0.00  0.00    +0.000 C 
ATOM      8  O   UNL     1      -4.284  13.198  24.100  0.00  0.00    +0.000 OA
ATOM      9  C   UNL     1      -5.411  13.111  23.223  0.00  0.00    +0.000 C 
ATOM     10  C   UNL     1      -4.990  12.757  21.835  0.00  0.00    +0.000 A 
ATOM     11  C   UNL     1      -5.886  12.241  20.924  0.00  0.00    +0.000 A 
ATOM     12  N   UNL     1      -5.553  11.886  19.673  0.00  0.00    +0.000 NA
ATOM     13  C   UNL     1      -4.268  12.065  19.315  0.00  0.00    +0.000 A 
ATOM     14  N   UNL     1      -3.324  12.598  20.125  0.00  0.00    +0.000 NA
ATOM     15  C   UNL     1      -3.696  12.953  21.377  0.00  0.00    +0.000 A 
ATOM     16  C   UNL     1      -1.693  12.304  22.710  0.00  0.00    +0.000 C 
ENDROOT
BRANCH  13  17
ATOM     17  C   UNL     1      -3.875  11.646  17.964  0.00  0.00    +0.000 A 
ATOM     18  C   UNL     1      -4.795  11.502  16.917  0.00  0.00    +0.000 A 
ATOM     19  C   UNL     1      -4.378  11.083  15.651  0.00  0.00    +0.000 A 
ATOM     20  C   UNL     1      -3.032  10.817  15.459  0.00  0.00    +0.000 A 
ATOM     21  N   UNL     1      -2.102  10.955  16.422  0.00  0.00    +0.000 NA
ATOM     22  C   UNL     1      -2.544  11.366  17.640  0.00  0.00    +0.000 A 
ENDBRANCH  13  17
BRANCH   2  23
ATOM     23  C   UNL     1       0.165  10.191  21.661  0.00  0.00    +0.000 C 
ATOM     24  C   UNL     1       0.601   9.362  20.419  0.00  0.00    +0.000 C 
ATOM     25  C   UNL     1       0.951   8.206  21.367  0.00  0.00    +0.000 C 
ATOM     26  C   UNL     1       1.076   9.243  22.495  0.00  0.00    +0.000 C 
ENDBRANCH   2  23
TORSDOF 2
ENDMDL
MODEL 4
REMARK VINA RESULT:      -6.6      2.739      5.669
REMARK  Name = 
REMARK  2 active torsions:
REMARK  status: ('A' for Active; 'I' for Inactive)
REMARK    1  A    between atoms: C_2  and  C_3
REMARK    2  A    between atoms: C_17  and  C_18
REMARK                            x       y       z     vdW  Elec       q    Type
REMARK                         _______ _______ _______ _____ _____    ______ ____
ROOT
ATOM      1  O   UNL     1      -7.689  10.611  21.063  0.00  0.00    +0.000 OA
ATOM      2  C   UNL     1      -7.102  11.682  20.861  0.00  0.00    +0.000 C 
ATOM      3  N   UNL     1      -6.900  12.575  21.900  0.00  0.00    +0.000 N 
ATOM      4  C   UNL     1      -7.240  12.231  23.256  0.00  0.00    +0.000 C 
ATOM      5  C   UNL     1      -6.242  13.006  24.106  0.00  0.00    +0.000 C 
ATOM      6  C   UNL     1      -5.744  14.183  23.223  0.00  0.00    +0.000 C 
ATOM      7  C   UNL     1      -6.225  15.510  23.836  0.00  0.00    +0.000 C 
ATOM      8  O   UNL     1      -5.660  16.620  23.138  0.00  0.00    +0.000 OA
ATOM      9  C   UNL     1      -4.258  16.722  23.402  0.00  0.00    +0.000 C 
ATOM     10  C   UNL     1      -3.558  15.436  23.112  0.00  0.00    +0.000 A 
ATOM     11  C   UNL     1      -2.195  15.391  22.912  0.00  0.00    +0.000 A 
ATOM     12  N   UNL     1      -1.522  14.265  22.627  0.00  0.00    +0.000 NA
ATOM     13  C   UNL     1      -2.245  13.133  22.548  0.00  0.00    +0.000 A 
ATOM     14  N   UNL     1      -3.578  13.069  22.764  0.00  0.00    +0.000 NA
ATOM     15  C   UNL     1      -4.224  14.222  23.059  0.00  0.00    +0.000 A 
ATOM     16  C   UNL     1      -6.376  13.930  21.836  0.00  0.00    +0.000 C 
ENDROOT
BRANCH  13  17
ATOM     17  C   UNL     1      -1.533  11.897  22.198  0.00  0.00    +0.000 A 
ATOM     18  C   UNL     1      -1.214  10.912  23.142  0.00  0.00    +0.000 A 
ATOM     19  C   UNL     1      -0.519   9.760  22.766  0.00  0.00    +0.000 A 
ATOM     20  C   UNL     1      -0.158   9.616  21.436  0.00  0.00    +0.000 A 
ATOM     21  N   UNL     1      -0.454  10.521  20.484  0.00  0.00    +0.000 NA
ATOM     22  C   UNL     1      -1.131  11.628  20.886  0.00  0.00    +0.000 A 
ENDBRANCH  13  17
BRANCH   2  23
ATOM     23  C   UNL     1      -6.502  12.070  19.482  0.00  0.00    +0.000 C 
ATOM     24  C   UNL     1      -4.979  11.805  19.318  0.00  0.00    +0.000 C 
ATOM     25  C   UNL     1      -5.254  11.356  17.877  0.00  0.00    +0.000 C 
ATOM     26  C   UNL     1      -6.705  11.076  18.301  0.00  0.00    +0.000 C 
ENDBRANCH   2  23
TORSDOF 2
ENDMDL
MODEL 5
REMARK VINA RESULT:      -6.6     10.335     13.109
REMARK  Name = 
REMARK  2 active torsions:
REMARK  status: ('A' for Active; 'I' for Inactive)
REMARK    1  A    between atoms: C_2  and  C_3
REMARK    2  A    between atoms: C_17  and  C_18
REMARK                            x       y       z     vdW  Elec       q    Type
REMARK                         _______ _______ _______ _____ _____    ______ ____
ROOT
ATOM      1  O   UNL     1       9.201  10.686  20.580  0.00  0.00    +0.000 OA
ATOM      2  C   UNL     1       9.522  11.868  20.756  0.00  0.00    +0.000 C 
ATOM      3  N   UNL     1      10.159  12.576  19.752  0.00  0.00    +0.000 N 
ATOM      4  C   UNL     1      10.343  12.010  18.441  0.00  0.00    +0.000 C 
ATOM      5  C   UNL     1      10.318  13.209  17.503  0.00  0.00    +0.000 C 
ATOM      6  C   UNL     1      10.681  14.445  18.371  0.00  0.00    +0.000 C 
ATOM      7  C   UNL     1      12.038  15.004  17.908  0.00  0.00    +0.000 C 
ATOM      8  O   UNL     1      12.333  16.228  18.580  0.00  0.00    +0.000 OA
ATOM      9  C   UNL     1      11.471  17.275  18.125  0.00  0.00    +0.000 C 
ATOM     10  C   UNL     1      10.035  16.881  18.238  0.00  0.00    +0.000 A 
ATOM     11  C   UNL     1       9.030  17.824  18.239  0.00  0.00    +0.000 A 
ATOM     12  N   UNL     1       7.728  17.523  18.362  0.00  0.00    +0.000 NA
ATOM     13  C   UNL     1       7.417  16.219  18.478  0.00  0.00    +0.000 A 
ATOM     14  N   UNL     1       8.327  15.219  18.451  0.00  0.00    +0.000 NA
ATOM     15  C   UNL     1       9.631  15.557  18.318  0.00  0.00    +0.000 A 
ATOM     16  C   UNL     1      10.745  13.906  19.817  0.00  0.00    +0.000 C 
ENDROOT
BRANCH  13  17
ATOM     17  C   UNL     1       6.002  15.872  18.653  0.00  0.00    +0.000 A 
ATOM     18  C   UNL     1       5.367  14.871  17.904  0.00  0.00    +0.000 A 
ATOM     19  C   UNL     1       4.012  14.588  18.092  0.00  0.00    +0.000 A 
ATOM     20  C   UNL     1       3.315  15.318  19.039  0.00  0.00    +0.000 A 
ATOM     21  N   UNL     1       3.876  16.277  19.800  0.00  0.00    +0.000 NA
ATOM     22  C   UNL     1       5.196  16.525  19.590  0.00  0.00    +0.000 A 
ENDBRANCH  13  17
BRANCH   2  23
ATOM     23  C   UNL     1       9.187  12.650  22.055  0.00  0.00    +0.000 C 
ATOM     24  C   UNL     1       7.923  13.554  21.983  0.00  0.00    +0.000 C 
ATOM     25  C   UNL     1       7.590  13.131  23.421  0.00  0.00    +0.000 C 
ATOM     26  C   UNL     1       8.455  11.881  23.193  0.00  0.00    +0.000 C 
ENDBRANCH   2  23
TORSDOF 2
ENDMDL
MODEL 6
REMARK VINA RESULT:      -6.6     10.010     12.754
REMARK  Name = 
REMARK  2 active torsions:
REMARK  status: ('A' for Active; 'I' for Inactive)
REMARK    1  A    between atoms: C_2  and  C_3
REMARK    2  A    between atoms: C_17  and  C_18
REMARK                            x       y       z     vdW  Elec       q    Type
REMARK                         _______ _______ _______ _____ _____    ______ ____
ROOT
ATOM      1  O   UNL     1       9.318  10.432  20.371  0.00  0.00    +0.000 OA
ATOM      2  C   UNL     1       9.550  11.628  20.586  0.00  0.00    +0.000 C 
ATOM      3  N   UNL     1      10.068  12.431  19.585  0.00  0.00    +0.000 N 
ATOM      4  C   UNL     1      10.222  11.941  18.240  0.00  0.00    +0.000 C 
ATOM      5  C   UNL     1      10.045  13.173  17.363  0.00  0.00    +0.000 C 
ATOM      6  C   UNL     1      10.353  14.397  18.270  0.00  0.00    +0.000 C 
ATOM      7  C   UNL     1      11.631  15.089  17.763  0.00  0.00    +0.000 C 
ATOM      8  O   UNL     1      11.861  16.303  18.477  0.00  0.00    +0.000 OA
ATOM      9  C   UNL     1      10.890  17.291  18.119  0.00  0.00    +0.000 C 
ATOM     10  C   UNL     1       9.501  16.771  18.290  0.00  0.00    +0.000 A 
ATOM     11  C   UNL     1       8.423  17.624  18.390  0.00  0.00    +0.000 A 
ATOM     12  N   UNL     1       7.160  17.208  18.567  0.00  0.00    +0.000 NA
ATOM     13  C   UNL     1       6.965  15.878  18.637  0.00  0.00    +0.000 A 
ATOM     14  N   UNL     1       7.952  14.962  18.513  0.00  0.00    +0.000 NA
ATOM     15  C   UNL     1       9.214  15.416  18.327  0.00  0.00    +0.000 A 
ATOM     16  C   UNL     1      10.544  13.802  19.683  0.00  0.00    +0.000 C 
ENDROOT
BRANCH  13  17
ATOM     17  C   UNL     1       5.595  15.405  18.870  0.00  0.00    +0.000 A 
ATOM     18  C   UNL     1       5.081  15.170  20.152  0.00  0.00    +0.000 A 
ATOM     19  C   UNL     1       3.777  14.702  20.326  0.00  0.00    +0.000 A 
ATOM     20  C   UNL     1       3.005  14.479  19.198  0.00  0.00    +0.000 A 
ATOM     21  N   UNL     1       3.439  14.704  17.943  0.00  0.00    +0.000 NA
ATOM     22  C   UNL     1       4.713  15.160  17.814  0.00  0.00    +0.000 A 
ENDBRANCH  13  17
BRANCH   2  23
ATOM     23  C   UNL     1       9.226  12.322  21.938  0.00  0.00    +0.000 C 
ATOM     24  C   UNL     1       8.056  13.345  21.899  0.00  0.00    +0.000 C 
ATOM     25  C   UNL     1       7.616  12.831  23.278  0.00  0.00    +0.000 C 
ATOM     26  C   UNL     1       8.372  11.528  22.970  0.00  0.00    +0.000 C 
ENDBRANCH   2  23
TORSDOF 2
ENDMDL
MODEL 7
REMARK VINA RESULT:      -6.5      2.108      5.474
REMARK  Name = 
REMARK  2 active torsions:
REMARK  status: ('A' for Active; 'I' for Inactive)
REMARK    1  A    between atoms: C_2  and  C_3
REMARK    2  A    between atoms: C_17  and  C_18
REMARK                            x       y       z     vdW  Elec       q    Type
REMARK                         _______ _______ _______ _____ _____    ______ ____
ROOT
ATOM      1  O   UNL     1      -6.277  10.362  18.558  0.00  0.00    +0.000 OA
ATOM      2  C   UNL     1      -5.639  11.417  18.663  0.00  0.00    +0.000 C 
ATOM      3  N   UNL     1      -5.854  12.261  19.739  0.00  0.00    +0.000 N 
ATOM      4  C   UNL     1      -6.715  11.877  20.828  0.00  0.00    +0.000 C 
ATOM      5  C   UNL     1      -6.127  12.580  22.043  0.00  0.00    +0.000 C 
ATOM      6  C   UNL     1      -5.295  13.772  21.494  0.00  0.00    +0.000 C 
ATOM      7  C   UNL     1      -5.956  15.091  21.931  0.00  0.00    +0.000 C 
ATOM      8  O   UNL     1      -5.139  16.205  21.574  0.00  0.00    +0.000 OA
ATOM      9  C   UNL     1      -3.959  16.245  22.381  0.00  0.00    +0.000 C 
ATOM     10  C   UNL     1      -3.225  14.946  22.330  0.00  0.00    +0.000 A 
ATOM     11  C   UNL     1      -1.897  14.858  22.688  0.00  0.00    +0.000 A 
ATOM     12  N   UNL     1      -1.187  13.720  22.638  0.00  0.00    +0.000 NA
ATOM     13  C   UNL     1      -1.839  12.619  22.221  0.00  0.00    +0.000 A 
ATOM     14  N   UNL     1      -3.147  12.597  21.883  0.00  0.00    +0.000 NA
ATOM     15  C   UNL     1      -3.836  13.760  21.953  0.00  0.00    +0.000 A 
ATOM     16  C   UNL     1      -5.323  13.597  19.959  0.00  0.00    +0.000 C 
ENDROOT
BRANCH  13  17
ATOM     17  C   UNL     1      -1.069  11.372  22.121  0.00  0.00    +0.000 A 
ATOM     18  C   UNL     1      -0.883  10.507  23.207  0.00  0.00    +0.000 A 
ATOM     19  C   UNL     1      -0.127   9.340  23.071  0.00  0.00    +0.000 A 
ATOM     20  C   UNL     1       0.429   9.060  21.834  0.00  0.00    +0.000 A 
ATOM     21  N   UNL     1       0.269   9.845  20.752  0.00  0.00    +0.000 NA
ATOM     22  C   UNL     1      -0.473  10.971  20.922  0.00  0.00    +0.000 A 
ENDBRANCH  13  17
BRANCH   2  23
ATOM     23  C   UNL     1      -4.530  11.837  17.659  0.00  0.00    +0.000 C 
ATOM     24  C   UNL     1      -3.083  11.422  18.053  0.00  0.00    +0.000 C 
ATOM     25  C   UNL     1      -2.816  11.110  16.574  0.00  0.00    +0.000 C 
ATOM     26  C   UNL     1      -4.334  10.957  16.390  0.00  0.00    +0.000 C 
ENDBRANCH   2  23
TORSDOF 2
ENDMDL
MODEL 8
REMARK VINA RESULT:      -6.5      2.710      5.794
REMARK  Name = 
REMARK  2 active torsions:
REMARK  status: ('A' for Active; 'I' for Inactive)
REMARK    1  A    between atoms: C_2  and  C_3
REMARK    2  A    between atoms: C_17  and  C_18
REMARK                            x       y       z     vdW  Elec       q    Type
REMARK                         _______ _______ _______ _____ _____    ______ ____
ROOT
ATOM      1  O   UNL     1      -7.104  11.231  21.143  0.00  0.00    +0.000 OA
ATOM      2  C   UNL     1      -6.320  12.173  20.974  0.00  0.00    +0.000 C 
ATOM      3  N   UNL     1      -5.933  12.962  22.045  0.00  0.00    +0.000 N 
ATOM      4  C   UNL     1      -6.319  12.631  23.392  0.00  0.00    +0.000 C 
ATOM      5  C   UNL     1      -5.179  13.156  24.253  0.00  0.00    +0.000 C 
ATOM      6  C   UNL     1      -4.467  14.250  23.410  0.00  0.00    +0.000 C 
ATOM      7  C   UNL     1      -4.669  15.617  24.087  0.00  0.00    +0.000 C 
ATOM      8  O   UNL     1      -3.904  16.623  23.425  0.00  0.00    +0.000 OA
ATOM      9  C   UNL     1      -2.507  16.436  23.666  0.00  0.00    +0.000 C 
ATOM     10  C   UNL     1      -2.077  15.051  23.309  0.00  0.00    +0.000 A 
ATOM     11  C   UNL     1      -0.753  14.747  23.080  0.00  0.00    +0.000 A 
ATOM     12  N   UNL     1      -0.319  13.524  22.735  0.00  0.00    +0.000 NA
ATOM     13  C   UNL     1      -1.252  12.561  22.624  0.00  0.00    +0.000 A 
ATOM     14  N   UNL     1      -2.569  12.752  22.863  0.00  0.00    +0.000 NA
ATOM     15  C   UNL     1      -2.972  13.995  23.218  0.00  0.00    +0.000 A 
ATOM     16  C   UNL     1      -5.152  14.188  22.027  0.00  0.00    +0.000 C 
ENDROOT
BRANCH  13  17
ATOM     17  C   UNL     1      -0.803  11.227  22.209  0.00  0.00    +0.000 A 
ATOM     18  C   UNL     1      -0.789  10.126  23.077  0.00  0.00    +0.000 A 
ATOM     19  C   UNL     1      -0.336   8.878  22.643  0.00  0.00    +0.000 A 
ATOM     20  C   UNL     1       0.095   8.757  21.332  0.00  0.00    +0.000 A 
ATOM     21  N   UNL     1       0.087   9.774  20.450  0.00  0.00    +0.000 NA
ATOM     22  C   UNL     1      -0.361  10.972  20.907  0.00  0.00    +0.000 A 
ENDBRANCH  13  17
BRANCH   2  23
ATOM     23  C   UNL     1      -5.670  12.496  19.601  0.00  0.00    +0.000 C 
ATOM     24  C   UNL     1      -5.517  11.288  18.634  0.00  0.00    +0.000 C 
ATOM     25  C   UNL     1      -5.893  12.221  17.475  0.00  0.00    +0.000 C 
ATOM     26  C   UNL     1      -6.575  13.134  18.506  0.00  0.00    +0.000 C 
ENDBRANCH   2  23
TORSDOF 2
ENDMDL
MODEL 9
REMARK VINA RESULT:      -6.4      9.970     12.947
REMARK  Name = 
REMARK  2 active torsions:
REMARK  status: ('A' for Active; 'I' for Inactive)
REMARK    1  A    between atoms: C_2  and  C_3
REMARK    2  A    between atoms: C_17  and  C_18
REMARK                            x       y       z     vdW  Elec       q    Type
REMARK                         _______ _______ _______ _____ _____    ______ ____
ROOT
ATOM      1  O   UNL     1       7.977  11.114  22.767  0.00  0.00    +0.000 OA
ATOM      2  C   UNL     1       8.670  12.057  22.364  0.00  0.00    +0.000 C 
ATOM      3  N   UNL     1       9.338  11.967  21.154  0.00  0.00    +0.000 N 
ATOM      4  C   UNL     1       9.140  10.844  20.275  0.00  0.00    +0.000 C 
ATOM      5  C   UNL     1       9.348  11.414  18.878  0.00  0.00    +0.000 C 
ATOM      6  C   UNL     1      10.198  12.701  19.058  0.00  0.00    +0.000 C 
ATOM      7  C   UNL     1      11.577  12.488  18.409  0.00  0.00    +0.000 C 
ATOM      8  O   UNL     1      12.332  13.699  18.421  0.00  0.00    +0.000 OA
ATOM      9  C   UNL     1      11.776  14.649  17.507  0.00  0.00    +0.000 C 
ATOM     10  C   UNL     1      10.323  14.867  17.770  0.00  0.00    +0.000 A 
ATOM     11  C   UNL     1       9.670  15.987  17.304  0.00  0.00    +0.000 A 
ATOM     12  N   UNL     1       8.372  16.241  17.533  0.00  0.00    +0.000 NA
ATOM     13  C   UNL     1       7.695  15.326  18.251  0.00  0.00    +0.000 A 
ATOM     14  N   UNL     1       8.238  14.179  18.720  0.00  0.00    +0.000 NA
ATOM     15  C   UNL     1       9.547  13.951  18.464  0.00  0.00    +0.000 A 
ATOM     16  C   UNL     1      10.308  12.891  20.588  0.00  0.00    +0.000 C 
ENDROOT
BRANCH  13  17
ATOM     17  C   UNL     1       6.284  15.604  18.546  0.00  0.00    +0.000 A 
ATOM     18  C   UNL     1       5.263  14.672  18.315  0.00  0.00    +0.000 A 
ATOM     19  C   UNL     1       3.931  14.987  18.593  0.00  0.00    +0.000 A 
ATOM     20  C   UNL     1       3.647  16.242  19.107  0.00  0.00    +0.000 A 
ATOM     21  N   UNL     1       4.588  17.169  19.365  0.00  0.00    +0.000 NA
ATOM     22  C   UNL     1       5.873  16.827  19.082  0.00  0.00    +0.000 A 
ENDBRANCH  13  17
BRANCH   2  23
ATOM     23  C   UNL     1       8.789  13.405  23.127  0.00  0.00    +0.000 C 
ATOM     24  C   UNL     1       7.808  14.521  22.669  0.00  0.00    +0.000 C 
ATOM     25  C   UNL     1       7.646  14.925  24.141  0.00  0.00    +0.000 C 
ATOM     26  C   UNL     1       8.105  13.508  24.521  0.00  0.00    +0.000 C 
ENDBRANCH   2  23
TORSDOF 2
ENDMDL
