MODEL 1
REMARK VINA RESULT:      -9.2      0.000      0.000
REMARK  Name = 
REMARK  5 active torsions:
REMARK  status: ('A' for Active; 'I' for Inactive)
REMARK    1  A    between atoms: C_1  and  N_2
REMARK    2  A    between atoms: C_4  and  C_5
REMARK    3  A    between atoms: C_5  and  N_6
REMARK    4  A    between atoms: C_11  and  C_12
REMARK    5  A    between atoms: C_15  and  C_16
REMARK                            x       y       z     vdW  Elec       q    Type
REMARK                         _______ _______ _______ _____ _____    ______ ____
ROOT
ATOM      1  N   UNL     1       4.233   3.767  18.428  0.00  0.00    +0.000 NA
ATOM      2  C   UNL     1       3.829   3.062  19.647  0.00  0.00    +0.000 C 
ATOM      3  C   UNL     1       2.599   2.185  19.424  0.00  0.00    +0.000 C 
ATOM      4  C   UNL     1       1.482   2.895  18.671  0.00  0.00    +0.000 C 
ATOM      5  C   UNL     1       2.019   3.632  17.446  0.00  0.00    +0.000 C 
ATOM      6  C   UNL     1       3.181   4.589  17.797  0.00  0.00    +0.000 C 
ENDROOT
BRANCH   6   7
ATOM      7  C   UNL     1       2.719   5.864  18.498  0.00  0.00    +0.000 A 
ATOM      8  C   UNL     1       2.599   7.112  17.892  0.00  0.00    +0.000 A 
ATOM      9  C   UNL     1       2.110   8.212  18.594  0.00  0.00    +0.000 A 
ATOM     10  C   UNL     1       1.706   8.066  19.916  0.00  0.00    +0.000 A 
ATOM     11  N   UNL     1       1.819   6.875  20.539  0.00  0.00    +0.000 NA
ATOM     12  C   UNL     1       2.316   5.821  19.833  0.00  0.00    +0.000 A 
BRANCH  10  13
ATOM     13  C   UNL     1       1.035   9.162  20.654  0.00  0.00    +0.000 A 
ATOM     14  C   UNL     1       0.662  10.371  20.028  0.00  0.00    +0.000 A 
ATOM     15  C   UNL     1      -0.103  11.338  20.688  0.00  0.00    +0.000 A 
ATOM     16  C   UNL     1      -0.493  11.127  22.004  0.00  0.00    +0.000 A 
ATOM     17  C   UNL     1      -0.088   9.969  22.655  0.00  0.00    +0.000 A 
ATOM     18  F   UNL     1      -0.457   9.770  23.928  0.00  0.00    +0.000 F 
ATOM     19  C   UNL     1       0.665   9.000  21.999  0.00  0.00    +0.000 A 
ENDBRANCH  10  13
ENDBRANCH   6   7
BRANCH   1  20
ATOM     20  C   UNL     1       5.564   4.378  18.441  0.00  0.00    +0.000 C 
BRANCH  20  24
ATOM     21  C   UNL     1       6.523   3.938  13.559  0.00  0.00    +0.000 C 
ATOM     22  N   UNL     1       6.396   4.488  14.885  0.00  0.00    +0.000 N 
ATOM     23  C   UNL     1       5.570   4.043  15.871  0.00  0.00    +0.000 A 
ATOM     24  C   UNL     1       6.001   4.647  17.038  0.00  0.00    +0.000 A 
ATOM     25  C   UNL     1       7.003   5.546  16.601  0.00  0.00    +0.000 A 
ATOM     26  N   UNL     1       7.238   5.456  15.289  0.00  0.00    +0.000 NA
ENDBRANCH  20  24
ENDBRANCH   1  20
TORSDOF 4
ENDMDL
MODEL 2
REMARK VINA RESULT:      -9.1      1.154      1.466
REMARK  Name = 
REMARK  5 active torsions:
REMARK  status: ('A' for Active; 'I' for Inactive)
REMARK    1  A    between atoms: C_1  and  N_2
REMARK    2  A    between atoms: C_4  and  C_5
REMARK    3  A    between atoms: C_5  and  N_6
REMARK    4  A    between atoms: C_11  and  C_12
REMARK    5  A    between atoms: C_15  and  C_16
REMARK                            x       y       z     vdW  Elec       q    Type
REMARK                         _______ _______ _______ _____ _____    ______ ____
ROOT
ATOM      1  N   UNL     1       3.957   4.099  18.882  0.00  0.00    +0.000 NA
ATOM      2  C   UNL     1       3.379   3.323  19.982  0.00  0.00    +0.000 C 
ATOM      3  C   UNL     1       2.181   2.490  19.532  0.00  0.00    +0.000 C 
ATOM      4  C   UNL     1       1.189   3.272  18.681  0.00  0.00    +0.000 C 
ATOM      5  C   UNL     1       1.900   4.076  17.596  0.00  0.00    +0.000 C 
ATOM      6  C   UNL     1       3.013   4.983  18.170  0.00  0.00    +0.000 C 
ENDROOT
BRANCH   6   7
ATOM      7  C   UNL     1       2.473   6.218  18.885  0.00  0.00    +0.000 A 
ATOM      8  C   UNL     1       2.342   7.481  18.312  0.00  0.00    +0.000 A 
ATOM      9  C   UNL     1       1.781   8.541  19.023  0.00  0.00    +0.000 A 
ATOM     10  C   UNL     1       1.316   8.338  20.317  0.00  0.00    +0.000 A 
ATOM     11  N   UNL     1       1.437   7.132  20.907  0.00  0.00    +0.000 NA
ATOM     12  C   UNL     1       2.005   6.119  20.196  0.00  0.00    +0.000 A 
BRANCH  10  13
ATOM     13  C   UNL     1       0.571   9.387  21.053  0.00  0.00    +0.000 A 
ATOM     14  C   UNL     1      -0.210   9.095  22.192  0.00  0.00    +0.000 A 
ATOM     15  C   UNL     1      -0.787  10.105  22.970  0.00  0.00    +0.000 A 
ATOM     16  C   UNL     1      -0.614  11.435  22.609  0.00  0.00    +0.000 A 
ATOM     17  C   UNL     1       0.104  11.739  21.459  0.00  0.00    +0.000 A 
ATOM     18  F   UNL     1       0.262  13.023  21.107  0.00  0.00    +0.000 F 
ATOM     19  C   UNL     1       0.687  10.739  20.689  0.00  0.00    +0.000 A 
ENDBRANCH  10  13
ENDBRANCH   6   7
BRANCH   1  20
ATOM     20  C   UNL     1       5.281   4.679  19.121  0.00  0.00    +0.000 C 
BRANCH  20  24
ATOM     21  C   UNL     1       6.629   4.201  14.336  0.00  0.00    +0.000 C 
ATOM     22  N   UNL     1       6.654   4.528  15.739  0.00  0.00    +0.000 N 
ATOM     23  C   UNL     1       5.575   4.719  16.547  0.00  0.00    +0.000 A 
ATOM     24  C   UNL     1       6.055   4.694  17.844  0.00  0.00    +0.000 A 
ATOM     25  C   UNL     1       7.459   4.627  17.683  0.00  0.00    +0.000 A 
ATOM     26  N   UNL     1       7.826   4.534  16.401  0.00  0.00    +0.000 NA
ENDBRANCH  20  24
ENDBRANCH   1  20
TORSDOF 4
ENDMDL
MODEL 3
REMARK VINA RESULT:      -8.9      0.772      1.121
REMARK  Name = 
REMARK  5 active torsions:
REMARK  status: ('A' for Active; 'I' for Inactive)
REMARK    1  A    between atoms: C_1  and  N_2
REMARK    2  A    between atoms: C_4  and  C_5
REMARK    3  A    between atoms: C_5  and  N_6
REMARK    4  A    between atoms: C_11  and  C_12
REMARK    5  A    between atoms: C_15  and  C_16
REMARK                            x       y       z     vdW  Elec       q    Type
REMARK                         _______ _______ _______ _____ _____    ______ ____
ROOT
ATOM      1  N   UNL     1       4.385   3.857  18.692  0.00  0.00    +0.000 NA
ATOM      2  C   UNL     1       3.926   2.971  19.764  0.00  0.00    +0.000 C 
ATOM      3  C   UNL     1       2.866   1.984  19.282  0.00  0.00    +0.000 C 
ATOM      4  C   UNL     1       1.770   2.636  18.449  0.00  0.00    +0.000 C 
ATOM      5  C   UNL     1       2.356   3.570  17.393  0.00  0.00    +0.000 C 
ATOM      6  C   UNL     1       3.322   4.613  18.000  0.00  0.00    +0.000 C 
ENDROOT
BRANCH   6   7
ATOM      7  C   UNL     1       2.604   5.732  18.750  0.00  0.00    +0.000 A 
ATOM      8  C   UNL     1       2.096   5.632  20.043  0.00  0.00    +0.000 A 
ATOM      9  C   UNL     1       1.507   6.726  20.674  0.00  0.00    +0.000 A 
ATOM     10  C   UNL     1       1.446   7.952  20.021  0.00  0.00    +0.000 A 
ATOM     11  N   UNL     1       1.917   8.083  18.764  0.00  0.00    +0.000 NA
ATOM     12  C   UNL     1       2.472   6.992  18.165  0.00  0.00    +0.000 A 
BRANCH  10  13
ATOM     13  C   UNL     1       0.976   9.179  20.705  0.00  0.00    +0.000 A 
ATOM     14  C   UNL     1       1.037  10.450  20.095  0.00  0.00    +0.000 A 
ATOM     15  C   UNL     1       0.456  11.580  20.682  0.00  0.00    +0.000 A 
ATOM     16  C   UNL     1      -0.181  11.466  21.911  0.00  0.00    +0.000 A 
ATOM     17  C   UNL     1      -0.203  10.234  22.553  0.00  0.00    +0.000 A 
ATOM     18  F   UNL     1      -0.810  10.127  23.743  0.00  0.00    +0.000 F 
ATOM     19  C   UNL     1       0.365   9.107  21.968  0.00  0.00    +0.000 A 
ENDBRANCH  10  13
ENDBRANCH   6   7
BRANCH   1  20
ATOM     20  C   UNL     1       5.608   4.618  18.956  0.00  0.00    +0.000 C 
BRANCH  20  24
ATOM     21  C   UNL     1       7.321   4.866  14.271  0.00  0.00    +0.000 C 
ATOM     22  N   UNL     1       6.900   5.244  15.597  0.00  0.00    +0.000 N 
ATOM     23  C   UNL     1       6.046   4.556  16.403  0.00  0.00    +0.000 A 
ATOM     24  C   UNL     1       6.179   5.106  17.665  0.00  0.00    +0.000 A 
ATOM     25  C   UNL     1       7.036   6.213  17.461  0.00  0.00    +0.000 A 
ATOM     26  N   UNL     1       7.469   6.303  16.201  0.00  0.00    +0.000 NA
ENDBRANCH  20  24
ENDBRANCH   1  20
TORSDOF 4
ENDMDL
MODEL 4
REMARK VINA RESULT:      -8.9      1.223      1.574
REMARK  Name = 
REMARK  5 active torsions:
REMARK  status: ('A' for Active; 'I' for Inactive)
REMARK    1  A    between atoms: C_1  and  N_2
REMARK    2  A    between atoms: C_4  and  C_5
REMARK    3  A    between atoms: C_5  and  N_6
REMARK    4  A    between atoms: C_11  and  C_12
REMARK    5  A    between atoms: C_15  and  C_16
REMARK                            x       y       z     vdW  Elec       q    Type
REMARK                         _______ _______ _______ _____ _____    ______ ____
ROOT
ATOM      1  N   UNL     1       3.986   4.746  18.885  0.00  0.00    +0.000 NA
ATOM      2  C   UNL     1       3.552   3.883  19.987  0.00  0.00    +0.000 C 
ATOM      3  C   UNL     1       2.458   2.908  19.557  0.00  0.00    +0.000 C 
ATOM      4  C   UNL     1       1.344   3.568  18.755  0.00  0.00    +0.000 C 
ATOM      5  C   UNL     1       1.907   4.476  17.665  0.00  0.00    +0.000 C 
ATOM      6  C   UNL     1       2.912   5.510  18.222  0.00  0.00    +0.000 C 
ENDROOT
BRANCH   6   7
ATOM      7  C   UNL     1       2.240   6.653  18.980  0.00  0.00    +0.000 A 
ATOM      8  C   UNL     1       1.877   6.617  20.324  0.00  0.00    +0.000 A 
ATOM      9  C   UNL     1       1.323   7.730  20.952  0.00  0.00    +0.000 A 
ATOM     10  C   UNL     1       1.149   8.912  20.241  0.00  0.00    +0.000 A 
ATOM     11  N   UNL     1       1.478   8.980  18.935  0.00  0.00    +0.000 NA
ATOM     12  C   UNL     1       2.003   7.871  18.342  0.00  0.00    +0.000 A 
BRANCH  10  13
ATOM     13  C   UNL     1       0.714  10.164  20.901  0.00  0.00    +0.000 A 
ATOM     14  C   UNL     1       1.117  11.437  20.441  0.00  0.00    +0.000 A 
ATOM     15  C   UNL     1       0.584  12.617  20.972  0.00  0.00    +0.000 A 
ATOM     16  C   UNL     1      -0.350  12.550  21.997  0.00  0.00    +0.000 A 
ATOM     17  C   UNL     1      -0.717  11.308  22.502  0.00  0.00    +0.000 A 
ATOM     18  F   UNL     1      -1.612  11.245  23.498  0.00  0.00    +0.000 F 
ATOM     19  C   UNL     1      -0.197  10.132  21.970  0.00  0.00    +0.000 A 
ENDBRANCH  10  13
ENDBRANCH   6   7
BRANCH   1  20
ATOM     20  C   UNL     1       5.231   5.490  19.094  0.00  0.00    +0.000 C 
BRANCH  20  24
ATOM     21  C   UNL     1       7.016   4.859  14.473  0.00  0.00    +0.000 C 
ATOM     22  N   UNL     1       6.947   5.038  15.901  0.00  0.00    +0.000 N 
ATOM     23  C   UNL     1       5.921   5.598  16.599  0.00  0.00    +0.000 A 
ATOM     24  C   UNL     1       6.139   5.279  17.927  0.00  0.00    +0.000 A 
ATOM     25  C   UNL     1       7.405   4.649  17.919  0.00  0.00    +0.000 A 
ATOM     26  N   UNL     1       7.902   4.509  16.687  0.00  0.00    +0.000 NA
ENDBRANCH  20  24
ENDBRANCH   1  20
TORSDOF 4
ENDMDL
MODEL 5
REMARK VINA RESULT:      -8.7      0.729      1.029
REMARK  Name = 
REMARK  5 active torsions:
REMARK  status: ('A' for Active; 'I' for Inactive)
REMARK    1  A    between atoms: C_1  and  N_2
REMARK    2  A    between atoms: C_4  and  C_5
REMARK    3  A    between atoms: C_5  and  N_6
REMARK    4  A    between atoms: C_11  and  C_12
REMARK    5  A    between atoms: C_15  and  C_16
REMARK                            x       y       z     vdW  Elec       q    Type
REMARK                         _______ _______ _______ _____ _____    ______ ____
ROOT
ATOM      1  N   UNL     1       4.608   4.112  17.890  0.00  0.00    +0.000 NA
ATOM      2  C   UNL     1       4.618   3.395  19.168  0.00  0.00    +0.000 C 
ATOM      3  C   UNL     1       3.537   2.319  19.233  0.00  0.00    +0.000 C 
ATOM      4  C   UNL     1       2.174   2.805  18.760  0.00  0.00    +0.000 C 
ATOM      5  C   UNL     1       2.284   3.575  17.446  0.00  0.00    +0.000 C 
ATOM      6  C   UNL     1       3.315   4.724  17.522  0.00  0.00    +0.000 C 
ENDROOT
BRANCH   6   7
ATOM      7  C   UNL     1       2.815   5.929  18.313  0.00  0.00    +0.000 A 
ATOM      8  C   UNL     1       2.680   7.220  17.806  0.00  0.00    +0.000 A 
ATOM      9  C   UNL     1       2.157   8.250  18.585  0.00  0.00    +0.000 A 
ATOM     10  C   UNL     1       1.733   7.991  19.883  0.00  0.00    +0.000 A 
ATOM     11  N   UNL     1       1.860   6.757  20.411  0.00  0.00    +0.000 NA
ATOM     12  C   UNL     1       2.390   5.772  19.633  0.00  0.00    +0.000 A 
BRANCH  10  13
ATOM     13  C   UNL     1       1.027   9.011  20.693  0.00  0.00    +0.000 A 
ATOM     14  C   UNL     1       0.408  10.138  20.109  0.00  0.00    +0.000 A 
ATOM     15  C   UNL     1      -0.384  11.015  20.857  0.00  0.00    +0.000 A 
ATOM     16  C   UNL     1      -0.554  10.798  22.218  0.00  0.00    +0.000 A 
ATOM     17  C   UNL     1       0.093   9.727  22.821  0.00  0.00    +0.000 A 
ATOM     18  F   UNL     1      -0.065   9.524  24.137  0.00  0.00    +0.000 F 
ATOM     19  C   UNL     1       0.873   8.846  22.079  0.00  0.00    +0.000 A 
ENDBRANCH  10  13
ENDBRANCH   6   7
BRANCH   1  20
ATOM     20  C   UNL     1       5.783   4.936  17.597  0.00  0.00    +0.000 C 
BRANCH  20  24
ATOM     21  C   UNL     1       7.865   5.331  13.074  0.00  0.00    +0.000 C 
ATOM     22  N   UNL     1       7.199   4.790  14.233  0.00  0.00    +0.000 N 
ATOM     23  C   UNL     1       7.281   5.259  15.508  0.00  0.00    +0.000 A 
ATOM     24  C   UNL     1       6.257   4.650  16.210  0.00  0.00    +0.000 A 
ATOM     25  C   UNL     1       5.719   3.725  15.285  0.00  0.00    +0.000 A 
ATOM     26  N   UNL     1       6.297   3.803  14.083  0.00  0.00    +0.000 NA
ENDBRANCH  20  24
ENDBRANCH   1  20
TORSDOF 4
ENDMDL
MODEL 6
REMARK VINA RESULT:      -8.6      1.225      1.526
REMARK  Name = 
REMARK  5 active torsions:
REMARK  status: ('A' for Active; 'I' for Inactive)
REMARK    1  A    between atoms: C_1  and  N_2
REMARK    2  A    between atoms: C_4  and  C_5
REMARK    3  A    between atoms: C_5  and  N_6
REMARK    4  A    between atoms: C_11  and  C_12
REMARK    5  A    between atoms: C_15  and  C_16
REMARK                            x       y       z     vdW  Elec       q    Type
REMARK                         _______ _______ _______ _____ _____    ______ ____
ROOT
ATOM      1  N   UNL     1       4.179   5.642  18.122  0.00  0.00    +0.000 NA
ATOM      2  C   UNL     1       4.387   5.075  19.456  0.00  0.00    +0.000 C 
ATOM      3  C   UNL     1       3.421   3.930  19.753  0.00  0.00    +0.000 C 
ATOM      4  C   UNL     1       1.978   4.250  19.387  0.00  0.00    +0.000 C 
ATOM      5  C   UNL     1       1.881   4.874  17.998  0.00  0.00    +0.000 C 
ATOM      6  C   UNL     1       2.805   6.103  17.839  0.00  0.00    +0.000 C 
ENDROOT
BRANCH   6   7
ATOM      7  C   UNL     1       2.281   7.346  18.554  0.00  0.00    +0.000 A 
ATOM      8  C   UNL     1       1.941   8.545  17.931  0.00  0.00    +0.000 A 
ATOM      9  C   UNL     1       1.412   9.610  18.656  0.00  0.00    +0.000 A 
ATOM     10  C   UNL     1       1.189   9.476  20.021  0.00  0.00    +0.000 A 
ATOM     11  N   UNL     1       1.516   8.335  20.660  0.00  0.00    +0.000 NA
ATOM     12  C   UNL     1       2.048   7.315  19.929  0.00  0.00    +0.000 A 
BRANCH  10  13
ATOM     13  C   UNL     1       0.484  10.518  20.804  0.00  0.00    +0.000 A 
ATOM     14  C   UNL     1       0.498  11.879  20.427  0.00  0.00    +0.000 A 
ATOM     15  C   UNL     1      -0.290  12.834  21.080  0.00  0.00    +0.000 A 
ATOM     16  C   UNL     1      -1.094  12.450  22.145  0.00  0.00    +0.000 A 
ATOM     17  C   UNL     1      -1.078  11.127  22.566  0.00  0.00    +0.000 A 
ATOM     18  F   UNL     1      -1.848  10.760  23.601  0.00  0.00    +0.000 F 
ATOM     19  C   UNL     1      -0.304  10.172  21.914  0.00  0.00    +0.000 A 
ENDBRANCH  10  13
ENDBRANCH   6   7
BRANCH   1  20
ATOM     20  C   UNL     1       5.238   6.519  17.615  0.00  0.00    +0.000 C 
BRANCH  20  24
ATOM     21  C   UNL     1       6.409   3.938  13.503  0.00  0.00    +0.000 C 
ATOM     22  N   UNL     1       6.525   4.719  14.709  0.00  0.00    +0.000 N 
ATOM     23  C   UNL     1       5.573   5.532  15.243  0.00  0.00    +0.000 A 
ATOM     24  C   UNL     1       5.989   5.818  16.531  0.00  0.00    +0.000 A 
ATOM     25  C   UNL     1       7.277   5.239  16.606  0.00  0.00    +0.000 A 
ATOM     26  N   UNL     1       7.609   4.576  15.494  0.00  0.00    +0.000 NA
ENDBRANCH  20  24
ENDBRANCH   1  20
TORSDOF 4
ENDMDL
MODEL 7
REMARK VINA RESULT:      -8.6      1.719      1.972
REMARK  Name = 
REMARK  5 active torsions:
REMARK  status: ('A' for Active; 'I' for Inactive)
REMARK    1  A    between atoms: C_1  and  N_2
REMARK    2  A    between atoms: C_4  and  C_5
REMARK    3  A    between atoms: C_5  and  N_6
REMARK    4  A    between atoms: C_11  and  C_12
REMARK    5  A    between atoms: C_15  and  C_16
REMARK                            x       y       z     vdW  Elec       q    Type
REMARK                         _______ _______ _______ _____ _____    ______ ____
ROOT
ATOM      1  N   UNL     1       4.105   5.025  18.924  0.00  0.00    +0.000 NA
ATOM      2  C   UNL     1       3.571   4.473  20.171  0.00  0.00    +0.000 C 
ATOM      3  C   UNL     1       2.430   3.488  19.923  0.00  0.00    +0.000 C 
ATOM      4  C   UNL     1       1.396   4.003  18.931  0.00  0.00    +0.000 C 
ATOM      5  C   UNL     1       2.061   4.595  17.691  0.00  0.00    +0.000 C 
ATOM      6  C   UNL     1       3.112   5.671  18.044  0.00  0.00    +0.000 C 
ENDROOT
BRANCH   6   7
ATOM      7  C   UNL     1       2.492   6.997  18.478  0.00  0.00    +0.000 A 
ATOM      8  C   UNL     1       2.178   8.052  17.624  0.00  0.00    +0.000 A 
ATOM      9  C   UNL     1       1.556   9.205  18.099  0.00  0.00    +0.000 A 
ATOM     10  C   UNL     1       1.214   9.304  19.443  0.00  0.00    +0.000 A 
ATOM     11  N   UNL     1       1.512   8.308  20.301  0.00  0.00    +0.000 NA
ATOM     12  C   UNL     1       2.136   7.199  19.812  0.00  0.00    +0.000 A 
BRANCH  10  13
ATOM     13  C   UNL     1       0.413  10.436  19.963  0.00  0.00    +0.000 A 
ATOM     14  C   UNL     1       0.951  11.390  20.855  0.00  0.00    +0.000 A 
ATOM     15  C   UNL     1       0.241  12.538  21.224  0.00  0.00    +0.000 A 
ATOM     16  C   UNL     1      -1.038  12.745  20.727  0.00  0.00    +0.000 A 
ATOM     17  C   UNL     1      -1.606  11.790  19.893  0.00  0.00    +0.000 A 
ATOM     18  F   UNL     1      -2.846  11.987  19.421  0.00  0.00    +0.000 F 
ATOM     19  C   UNL     1      -0.901  10.652  19.516  0.00  0.00    +0.000 A 
ENDBRANCH  10  13
ENDBRANCH   6   7
BRANCH   1  20
ATOM     20  C   UNL     1       5.389   5.724  19.020  0.00  0.00    +0.000 C 
BRANCH  20  24
ATOM     21  C   UNL     1       6.909   4.834  14.346  0.00  0.00    +0.000 C 
ATOM     22  N   UNL     1       6.918   5.045  15.772  0.00  0.00    +0.000 N 
ATOM     23  C   UNL     1       5.983   5.718  16.498  0.00  0.00    +0.000 A 
ATOM     24  C   UNL     1       6.222   5.401  17.823  0.00  0.00    +0.000 A 
ATOM     25  C   UNL     1       7.417   4.646  17.779  0.00  0.00    +0.000 A 
ATOM     26  N   UNL     1       7.846   4.434  16.531  0.00  0.00    +0.000 NA
ENDBRANCH  20  24
ENDBRANCH   1  20
TORSDOF 4
ENDMDL
MODEL 8
REMARK VINA RESULT:      -8.6      4.891      7.399
REMARK  Name = 
REMARK  5 active torsions:
REMARK  status: ('A' for Active; 'I' for Inactive)
REMARK    1  A    between atoms: C_1  and  N_2
REMARK    2  A    between atoms: C_4  and  C_5
REMARK    3  A    between atoms: C_5  and  N_6
REMARK    4  A    between atoms: C_11  and  C_12
REMARK    5  A    between atoms: C_15  and  C_16
REMARK                            x       y       z     vdW  Elec       q    Type
REMARK                         _______ _______ _______ _____ _____    ______ ____
ROOT
ATOM      1  N   UNL     1       5.021   5.524  17.151  0.00  0.00    +0.000 NA
ATOM      2  C   UNL     1       4.934   5.886  15.734  0.00  0.00    +0.000 C 
ATOM      3  C   UNL     1       5.772   4.963  14.851  0.00  0.00    +0.000 C 
ATOM      4  C   UNL     1       7.177   4.729  15.389  0.00  0.00    +0.000 C 
ATOM      5  C   UNL     1       7.155   4.403  16.880  0.00  0.00    +0.000 C 
ATOM      6  C   UNL     1       6.389   5.463  17.703  0.00  0.00    +0.000 C 
ENDROOT
BRANCH   6   7
ATOM      7  C   UNL     1       7.171   6.761  17.887  0.00  0.00    +0.000 A 
ATOM      8  C   UNL     1       6.960   7.932  17.161  0.00  0.00    +0.000 A 
ATOM      9  C   UNL     1       7.681   9.092  17.437  0.00  0.00    +0.000 A 
ATOM     10  C   UNL     1       8.610   9.100  18.471  0.00  0.00    +0.000 A 
ATOM     11  N   UNL     1       8.848   7.983  19.187  0.00  0.00    +0.000 NA
ATOM     12  C   UNL     1       8.141   6.858  18.884  0.00  0.00    +0.000 A 
BRANCH  10  13
ATOM     13  C   UNL     1       9.284  10.346  18.906  0.00  0.00    +0.000 A 
ATOM     14  C   UNL     1       9.486  10.656  20.268  0.00  0.00    +0.000 A 
ATOM     15  C   UNL     1      10.254  11.755  20.669  0.00  0.00    +0.000 A 
ATOM     16  C   UNL     1      10.818  12.586  19.711  0.00  0.00    +0.000 A 
ATOM     17  C   UNL     1      10.583  12.330  18.366  0.00  0.00    +0.000 A 
ATOM     18  F   UNL     1      11.121  13.140  17.442  0.00  0.00    +0.000 F 
ATOM     19  C   UNL     1       9.829  11.233  17.962  0.00  0.00    +0.000 A 
ENDBRANCH  10  13
ENDBRANCH   6   7
BRANCH   1  20
ATOM     20  C   UNL     1       4.027   6.130  18.039  0.00  0.00    +0.000 C 
BRANCH  20  24
ATOM     21  C   UNL     1       1.464   2.759  20.686  0.00  0.00    +0.000 C 
ATOM     22  N   UNL     1       1.875   3.636  19.619  0.00  0.00    +0.000 N 
ATOM     23  C   UNL     1       2.635   4.759  19.741  0.00  0.00    +0.000 A 
ATOM     24  C   UNL     1       3.038   5.093  18.461  0.00  0.00    +0.000 A 
ATOM     25  C   UNL     1       2.337   4.181  17.638  0.00  0.00    +0.000 A 
ATOM     26  N   UNL     1       1.622   3.298  18.342  0.00  0.00    +0.000 NA
ENDBRANCH  20  24
ENDBRANCH   1  20
TORSDOF 4
ENDMDL
MODEL 9
REMARK VINA RESULT:      -8.6      1.309      2.023
REMARK  Name = 
REMARK  5 active torsions:
REMARK  status: ('A' for Active; 'I' for Inactive)
REMARK    1  A    between atoms: C_1  and  N_2
REMARK    2  A    between atoms: C_4  and  C_5
REMARK    3  A    between atoms: C_5  and  N_6
REMARK    4  A    between atoms: C_11  and  C_12
REMARK    5  A    between atoms: C_15  and  C_16
REMARK                            x       y       z     vdW  Elec       q    Type
REMARK                         _______ _______ _______ _____ _____    ______ ____
ROOT
ATOM      1  N   UNL     1       4.846   3.599  18.652  0.00  0.00    +0.000 NA
ATOM      2  C   UNL     1       4.092   2.567  19.368  0.00  0.00    +0.000 C 
ATOM      3  C   UNL     1       3.166   1.783  18.441  0.00  0.00    +0.000 C 
ATOM      4  C   UNL     1       2.350   2.672  17.512  0.00  0.00    +0.000 C 
ATOM      5  C   UNL     1       3.224   3.737  16.853  0.00  0.00    +0.000 C 
ATOM      6  C   UNL     1       4.028   4.560  17.886  0.00  0.00    +0.000 C 
ENDROOT
BRANCH   6   7
ATOM      7  C   UNL     1       3.173   5.573  18.643  0.00  0.00    +0.000 A 
ATOM      8  C   UNL     1       2.577   5.349  19.882  0.00  0.00    +0.000 A 
ATOM      9  C   UNL     1       1.862   6.354  20.531  0.00  0.00    +0.000 A 
ATOM     10  C   UNL     1       1.758   7.614  19.953  0.00  0.00    +0.000 A 
ATOM     11  N   UNL     1       2.313   7.863  18.749  0.00  0.00    +0.000 NA
ATOM     12  C   UNL     1       2.991   6.857  18.130  0.00  0.00    +0.000 A 
BRANCH  10  13
ATOM     13  C   UNL     1       1.147   8.756  20.673  0.00  0.00    +0.000 A 
ATOM     14  C   UNL     1       0.745   9.935  20.008  0.00  0.00    +0.000 A 
ATOM     15  C   UNL     1       0.033  10.945  20.664  0.00  0.00    +0.000 A 
ATOM     16  C   UNL     1      -0.272  10.809  22.012  0.00  0.00    +0.000 A 
ATOM     17  C   UNL     1       0.165   9.681  22.696  0.00  0.00    +0.000 A 
ATOM     18  F   UNL     1      -0.122   9.555  24.000  0.00  0.00    +0.000 F 
ATOM     19  C   UNL     1       0.864   8.670  22.046  0.00  0.00    +0.000 A 
ENDBRANCH  10  13
ENDBRANCH   6   7
BRANCH   1  20
ATOM     20  C   UNL     1       5.979   4.191  19.367  0.00  0.00    +0.000 C 
BRANCH  20  24
ATOM     21  C   UNL     1       7.913   8.358  17.408  0.00  0.00    +0.000 C 
ATOM     22  N   UNL     1       7.570   6.974  17.615  0.00  0.00    +0.000 N 
ATOM     23  C   UNL     1       7.219   6.393  18.795  0.00  0.00    +0.000 A 
ATOM     24  C   UNL     1       6.680   5.160  18.473  0.00  0.00    +0.000 A 
ATOM     25  C   UNL     1       6.896   5.052  17.079  0.00  0.00    +0.000 A 
ATOM     26  N   UNL     1       7.445   6.152  16.557  0.00  0.00    +0.000 NA
ENDBRANCH  20  24
ENDBRANCH   1  20
TORSDOF 4
ENDMDL
