MODEL 1
REMARK VINA RESULT:      -7.7      0.000      0.000
REMARK  Name = 
REMARK  11 active torsions:
REMARK  status: ('A' for Active; 'I' for Inactive)
REMARK    1  A    between atoms: C_1  and  O_2
REMARK    2  A    between atoms: O_2  and  C_3
REMARK    3  A    between atoms: C_5  and  C_6
REMARK    4  A    between atoms: N_7  and  O_8
REMARK    5  A    between atoms: O_8  and  C_9
REMARK    6  A    between atoms: C_9  and  C_10
REMARK    7  A    between atoms: N_12  and  C_13
REMARK    8  A    between atoms: C_18  and  C_19
REMARK    9  A    between atoms: C_22  and  O_23
REMARK   10  A    between atoms: O_23  and  C_24
REMARK   11  A    between atoms: C_24  and  C_25
REMARK                            x       y       z     vdW  Elec       q    Type
REMARK                         _______ _______ _______ _____ _____    ______ ____
ROOT
ATOM      1  C   UNL     1       0.960   9.726  20.507  0.00  0.00    +0.000 A 
ATOM      2  C   UNL     1       1.425   8.659  19.728  0.00  0.00    +0.000 A 
ATOM      3  C   UNL     1       1.913   8.889  18.444  0.00  0.00    +0.000 A 
ATOM      4  C   UNL     1       1.893  10.168  17.891  0.00  0.00    +0.000 A 
ATOM      5  C   UNL     1       1.371  11.214  18.637  0.00  0.00    +0.000 A 
ATOM      6  C   UNL     1       0.852  11.009  19.932  0.00  0.00    +0.000 A 
ENDROOT
BRANCH   1   8
ATOM      7  C   UNL     1      -0.483   8.654  22.045  0.00  0.00    +0.000 C 
ATOM      8  O   UNL     1       0.614   9.550  21.818  0.00  0.00    +0.000 OA
ENDBRANCH   1   8
BRANCH   3   9
ATOM      9  C   UNL     1       2.553   7.794  17.705  0.00  0.00    +0.000 C 
ATOM     10  N   UNL     1       3.688   7.309  18.073  0.00  0.00    +0.000 NA
BRANCH  10  11
ATOM     11  O   UNL     1       4.029   6.252  17.222  0.00  0.00    +0.000 OA
BRANCH  11  12
ATOM     12  C   UNL     1       5.303   5.749  17.614  0.00  0.00    +0.000 C 
BRANCH  12  13
ATOM     13  C   UNL     1       5.134   4.666  18.678  0.00  0.00    +0.000 C 
ATOM     14  O   UNL     1       6.089   4.122  19.205  0.00  0.00    +0.000 OA
ATOM     15  N   UNL     1       3.809   4.429  19.017  0.00  0.00    +0.000 N 
ATOM     16  H   UNL     1       3.145   4.739  18.315  0.00  0.00    +0.000 HD
BRANCH  15  17
ATOM     17  C   UNL     1       3.411   3.370  19.937  0.00  0.00    +0.000 C 
ATOM     18  C   UNL     1       2.483   3.892  21.053  0.00  0.00    +0.000 C 
ATOM     19  C   UNL     1       1.090   4.257  20.544  0.00  0.00    +0.000 C 
ATOM     20  C   UNL     1       0.439   3.092  19.810  0.00  0.00    +0.000 C 
ATOM     21  C   UNL     1       1.328   2.569  18.687  0.00  0.00    +0.000 C 
ATOM     22  C   UNL     1       2.724   2.188  19.205  0.00  0.00    +0.000 C 
ATOM     23  C   UNL     1       3.571   1.598  18.074  0.00  0.00    +0.000 C 
ENDBRANCH  15  17
ENDBRANCH  12  13
ENDBRANCH  11  12
ENDBRANCH  10  11
ENDBRANCH   3   9
BRANCH   6  24
ATOM     24  O   UNL     1       0.244  12.025  20.640  0.00  0.00    +0.000 OA
BRANCH  24  25
ATOM     25  C   UNL     1      -1.024  12.423  20.095  0.00  0.00    +0.000 C 
BRANCH  25  26
ATOM     26  C   UNL     1      -2.188  12.486  21.056  0.00  0.00    +0.000 A 
ATOM     27  C   UNL     1      -3.476  12.864  20.676  0.00  0.00    +0.000 A 
ATOM     28  C   UNL     1      -4.490  12.943  21.637  0.00  0.00    +0.000 A 
ATOM     29  C   UNL     1      -4.221  12.635  22.971  0.00  0.00    +0.000 A 
ATOM     30 CL   UNL     1      -5.463  12.779  24.154  0.00  0.00    +0.000 Cl
ATOM     31  C   UNL     1      -2.951  12.217  23.356  0.00  0.00    +0.000 A 
ATOM     32  C   UNL     1      -1.942  12.135  22.400  0.00  0.00    +0.000 A 
ENDBRANCH  25  26
ENDBRANCH  24  25
ENDBRANCH   6  24
TORSDOF 9
ENDMDL
MODEL 2
REMARK VINA RESULT:      -7.5      1.442      2.121
REMARK  Name = 
REMARK  11 active torsions:
REMARK  status: ('A' for Active; 'I' for Inactive)
REMARK    1  A    between atoms: C_1  and  O_2
REMARK    2  A    between atoms: O_2  and  C_3
REMARK    3  A    between atoms: C_5  and  C_6
REMARK    4  A    between atoms: N_7  and  O_8
REMARK    5  A    between atoms: O_8  and  C_9
REMARK    6  A    between atoms: C_9  and  C_10
REMARK    7  A    between atoms: N_12  and  C_13
REMARK    8  A    between atoms: C_18  and  C_19
REMARK    9  A    between atoms: C_22  and  O_23
REMARK   10  A    between atoms: O_23  and  C_24
REMARK   11  A    between atoms: C_24  and  C_25
REMARK                            x       y       z     vdW  Elec       q    Type
REMARK                         _______ _______ _______ _____ _____    ______ ____
ROOT
ATOM      1  C   UNL     1       0.445   9.907  18.904  0.00  0.00    +0.000 A 
ATOM      2  C   UNL     1       1.498   9.504  18.074  0.00  0.00    +0.000 A 
ATOM      3  C   UNL     1       2.324   8.449  18.452  0.00  0.00    +0.000 A 
ATOM      4  C   UNL     1       2.157   7.817  19.683  0.00  0.00    +0.000 A 
ATOM      5  C   UNL     1       1.156   8.260  20.535  0.00  0.00    +0.000 A 
ATOM      6  C   UNL     1       0.317   9.338  20.188  0.00  0.00    +0.000 A 
ENDROOT
BRANCH   1   8
ATOM      7  C   UNL     1      -0.047  12.204  18.622  0.00  0.00    +0.000 C 
ATOM      8  O   UNL     1      -0.469  10.839  18.493  0.00  0.00    +0.000 OA
ENDBRANCH   1   8
BRANCH   3   9
ATOM      9  C   UNL     1       3.312   7.926  17.502  0.00  0.00    +0.000 C 
ATOM     10  N   UNL     1       4.227   7.098  17.871  0.00  0.00    +0.000 NA
BRANCH  10  11
ATOM     11  O   UNL     1       4.989   6.733  16.755  0.00  0.00    +0.000 OA
BRANCH  11  12
ATOM     12  C   UNL     1       4.865   5.327  16.563  0.00  0.00    +0.000 C 
BRANCH  12  13
ATOM     13  C   UNL     1       4.926   4.607  17.909  0.00  0.00    +0.000 C 
ATOM     14  O   UNL     1       5.982   4.382  18.475  0.00  0.00    +0.000 OA
ATOM     15  N   UNL     1       3.675   4.308  18.431  0.00  0.00    +0.000 N 
ATOM     16  H   UNL     1       2.934   4.298  17.739  0.00  0.00    +0.000 HD
BRANCH  15  17
ATOM     17  C   UNL     1       3.500   3.536  19.656  0.00  0.00    +0.000 C 
ATOM     18  C   UNL     1       2.646   4.290  20.697  0.00  0.00    +0.000 C 
ATOM     19  C   UNL     1       1.174   4.384  20.300  0.00  0.00    +0.000 C 
ATOM     20  C   UNL     1       0.581   3.010  20.017  0.00  0.00    +0.000 C 
ATOM     21  C   UNL     1       1.395   2.252  18.975  0.00  0.00    +0.000 C 
ATOM     22  C   UNL     1       2.872   2.144  19.384  0.00  0.00    +0.000 C 
ATOM     23  C   UNL     1       3.652   1.316  18.359  0.00  0.00    +0.000 C 
ENDBRANCH  15  17
ENDBRANCH  12  13
ENDBRANCH  11  12
ENDBRANCH  10  11
ENDBRANCH   3   9
BRANCH   6  24
ATOM     24  O   UNL     1      -0.616   9.845  21.070  0.00  0.00    +0.000 OA
BRANCH  24  25
ATOM     25  C   UNL     1      -0.043  10.672  22.096  0.00  0.00    +0.000 C 
BRANCH  25  26
ATOM     26  C   UNL     1      -0.819  11.908  22.486  0.00  0.00    +0.000 A 
ATOM     27  C   UNL     1      -0.366  13.205  22.245  0.00  0.00    +0.000 A 
ATOM     28  C   UNL     1      -1.124  14.298  22.681  0.00  0.00    +0.000 A 
ATOM     29  C   UNL     1      -2.333  14.096  23.347  0.00  0.00    +0.000 A 
ATOM     30 CL   UNL     1      -3.235  15.446  23.921  0.00  0.00    +0.000 Cl
ATOM     31  C   UNL     1      -2.815  12.808  23.557  0.00  0.00    +0.000 A 
ATOM     32  C   UNL     1      -2.065  11.719  23.121  0.00  0.00    +0.000 A 
ENDBRANCH  25  26
ENDBRANCH  24  25
ENDBRANCH   6  24
TORSDOF 9
ENDMDL
MODEL 3
REMARK VINA RESULT:      -7.5      1.941      2.501
REMARK  Name = 
REMARK  11 active torsions:
REMARK  status: ('A' for Active; 'I' for Inactive)
REMARK    1  A    between atoms: C_1  and  O_2
REMARK    2  A    between atoms: O_2  and  C_3
REMARK    3  A    between atoms: C_5  and  C_6
REMARK    4  A    between atoms: N_7  and  O_8
REMARK    5  A    between atoms: O_8  and  C_9
REMARK    6  A    between atoms: C_9  and  C_10
REMARK    7  A    between atoms: N_12  and  C_13
REMARK    8  A    between atoms: C_18  and  C_19
REMARK    9  A    between atoms: C_22  and  O_23
REMARK   10  A    between atoms: O_23  and  C_24
REMARK   11  A    between atoms: C_24  and  C_25
REMARK                            x       y       z     vdW  Elec       q    Type
REMARK                         _______ _______ _______ _____ _____    ______ ____
ROOT
ATOM      1  C   UNL     1       0.936   8.820  20.219  0.00  0.00    +0.000 A 
ATOM      2  C   UNL     1       1.788   7.963  19.513  0.00  0.00    +0.000 A 
ATOM      3  C   UNL     1       2.241   8.314  18.244  0.00  0.00    +0.000 A 
ATOM      4  C   UNL     1       1.811   9.491  17.632  0.00  0.00    +0.000 A 
ATOM      5  C   UNL     1       0.915  10.308  18.305  0.00  0.00    +0.000 A 
ATOM      6  C   UNL     1       0.424   9.969  19.582  0.00  0.00    +0.000 A 
ENDROOT
BRANCH   1   8
ATOM      7  C   UNL     1       1.461   9.156  22.501  0.00  0.00    +0.000 C 
ATOM      8  O   UNL     1       0.595   8.570  21.520  0.00  0.00    +0.000 OA
ENDBRANCH   1   8
BRANCH   3   9
ATOM      9  C   UNL     1       3.265   7.493  17.587  0.00  0.00    +0.000 C 
ATOM     10  N   UNL     1       4.505   7.568  17.924  0.00  0.00    +0.000 NA
BRANCH  10  11
ATOM     11  O   UNL     1       5.239   6.643  17.173  0.00  0.00    +0.000 OA
BRANCH  11  12
ATOM     12  C   UNL     1       5.748   5.646  18.054  0.00  0.00    +0.000 C 
BRANCH  12  13
ATOM     13  C   UNL     1       4.963   4.346  17.881  0.00  0.00    +0.000 C 
ATOM     14  O   UNL     1       5.209   3.555  16.986  0.00  0.00    +0.000 OA
ATOM     15  N   UNL     1       4.013   4.140  18.872  0.00  0.00    +0.000 N 
ATOM     16  H   UNL     1       3.740   4.987  19.359  0.00  0.00    +0.000 HD
BRANCH  15  17
ATOM     17  C   UNL     1       3.085   3.016  18.848  0.00  0.00    +0.000 C 
ATOM     18  C   UNL     1       3.248   2.106  20.083  0.00  0.00    +0.000 C 
ATOM     19  C   UNL     1       2.747   2.760  21.370  0.00  0.00    +0.000 C 
ATOM     20  C   UNL     1       1.303   3.226  21.237  0.00  0.00    +0.000 C 
ATOM     21  C   UNL     1       1.119   4.144  20.033  0.00  0.00    +0.000 C 
ATOM     22  C   UNL     1       1.609   3.478  18.737  0.00  0.00    +0.000 C 
ATOM     23  C   UNL     1       1.346   4.390  17.536  0.00  0.00    +0.000 C 
ENDBRANCH  15  17
ENDBRANCH  12  13
ENDBRANCH  11  12
ENDBRANCH  10  11
ENDBRANCH   3   9
BRANCH   6  24
ATOM     24  O   UNL     1      -0.540  10.727  20.213  0.00  0.00    +0.000 OA
BRANCH  24  25
ATOM     25  C   UNL     1      -0.996  11.842  19.431  0.00  0.00    +0.000 C 
BRANCH  25  26
ATOM     26  C   UNL     1      -2.464  11.870  19.075  0.00  0.00    +0.000 A 
ATOM     27  C   UNL     1      -3.435  12.477  19.872  0.00  0.00    +0.000 A 
ATOM     28  C   UNL     1      -4.781  12.418  19.494  0.00  0.00    +0.000 A 
ATOM     29  C   UNL     1      -5.155  11.763  18.321  0.00  0.00    +0.000 A 
ATOM     30 CL   UNL     1      -6.819  11.654  17.889  0.00  0.00    +0.000 Cl
ATOM     31  C   UNL     1      -4.193  11.188  17.497  0.00  0.00    +0.000 A 
ATOM     32  C   UNL     1      -2.852  11.249  17.869  0.00  0.00    +0.000 A 
ENDBRANCH  25  26
ENDBRANCH  24  25
ENDBRANCH   6  24
TORSDOF 9
ENDMDL
MODEL 4
REMARK VINA RESULT:      -7.4      1.421      1.966
REMARK  Name = 
REMARK  11 active torsions:
REMARK  status: ('A' for Active; 'I' for Inactive)
REMARK    1  A    between atoms: C_1  and  O_2
REMARK    2  A    between atoms: O_2  and  C_3
REMARK    3  A    between atoms: C_5  and  C_6
REMARK    4  A    between atoms: N_7  and  O_8
REMARK    5  A    between atoms: O_8  and  C_9
REMARK    6  A    between atoms: C_9  and  C_10
REMARK    7  A    between atoms: N_12  and  C_13
REMARK    8  A    between atoms: C_18  and  C_19
REMARK    9  A    between atoms: C_22  and  O_23
REMARK   10  A    between atoms: O_23  and  C_24
REMARK   11  A    between atoms: C_24  and  C_25
REMARK                            x       y       z     vdW  Elec       q    Type
REMARK                         _______ _______ _______ _____ _____    ______ ____
ROOT
ATOM      1  C   UNL     1      -0.268  10.212  19.353  0.00  0.00    +0.000 A 
ATOM      2  C   UNL     1       0.676   9.712  18.449  0.00  0.00    +0.000 A 
ATOM      3  C   UNL     1       1.621   8.777  18.866  0.00  0.00    +0.000 A 
ATOM      4  C   UNL     1       1.682   8.370  20.198  0.00  0.00    +0.000 A 
ATOM      5  C   UNL     1       0.789   8.915  21.109  0.00  0.00    +0.000 A 
ATOM      6  C   UNL     1      -0.165   9.877  20.719  0.00  0.00    +0.000 A 
ENDROOT
BRANCH   1   8
ATOM      7  C   UNL     1      -1.920  10.619  17.710  0.00  0.00    +0.000 C 
ATOM      8  O   UNL     1      -1.294  11.016  18.938  0.00  0.00    +0.000 OA
ENDBRANCH   1   8
BRANCH   3   9
ATOM      9  C   UNL     1       2.491   8.134  17.875  0.00  0.00    +0.000 C 
ATOM     10  N   UNL     1       3.256   7.147  18.192  0.00  0.00    +0.000 NA
BRANCH  10  11
ATOM     11  O   UNL     1       3.929   6.705  17.047  0.00  0.00    +0.000 OA
BRANCH  11  12
ATOM     12  C   UNL     1       5.164   6.118  17.446  0.00  0.00    +0.000 C 
BRANCH  12  13
ATOM     13  C   UNL     1       4.967   5.305  18.725  0.00  0.00    +0.000 C 
ATOM     14  O   UNL     1       5.692   5.441  19.696  0.00  0.00    +0.000 OA
ATOM     15  N   UNL     1       3.861   4.468  18.682  0.00  0.00    +0.000 N 
ATOM     16  H   UNL     1       3.541   4.260  17.742  0.00  0.00    +0.000 HD
BRANCH  15  17
ATOM     17  C   UNL     1       3.543   3.531  19.752  0.00  0.00    +0.000 C 
ATOM     18  C   UNL     1       2.684   4.184  20.856  0.00  0.00    +0.000 C 
ATOM     19  C   UNL     1       1.254   4.471  20.402  0.00  0.00    +0.000 C 
ATOM     20  C   UNL     1       0.573   3.218  19.867  0.00  0.00    +0.000 C 
ATOM     21  C   UNL     1       1.393   2.564  18.759  0.00  0.00    +0.000 C 
ATOM     22  C   UNL     1       2.826   2.261  19.224  0.00  0.00    +0.000 C 
ATOM     23  C   UNL     1       3.604   1.539  18.120  0.00  0.00    +0.000 C 
ENDBRANCH  15  17
ENDBRANCH  12  13
ENDBRANCH  11  12
ENDBRANCH  10  11
ENDBRANCH   3   9
BRANCH   6  24
ATOM     24  O   UNL     1      -0.989  10.495  21.637  0.00  0.00    +0.000 OA
BRANCH  24  25
ATOM     25  C   UNL     1      -0.526  11.793  22.042  0.00  0.00    +0.000 C 
BRANCH  25  26
ATOM     26  C   UNL     1      -1.540  12.709  22.685  0.00  0.00    +0.000 A 
ATOM     27  C   UNL     1      -2.917  12.507  22.601  0.00  0.00    +0.000 A 
ATOM     28  C   UNL     1      -3.793  13.429  23.185  0.00  0.00    +0.000 A 
ATOM     29  C   UNL     1      -3.293  14.544  23.860  0.00  0.00    +0.000 A 
ATOM     30 CL   UNL     1      -4.378  15.697  24.536  0.00  0.00    +0.000 Cl
ATOM     31  C   UNL     1      -1.921  14.735  23.986  0.00  0.00    +0.000 A 
ATOM     32  C   UNL     1      -1.049  13.816  23.408  0.00  0.00    +0.000 A 
ENDBRANCH  25  26
ENDBRANCH  24  25
ENDBRANCH   6  24
TORSDOF 9
ENDMDL
MODEL 5
REMARK VINA RESULT:      -7.4      2.412      2.988
REMARK  Name = 
REMARK  11 active torsions:
REMARK  status: ('A' for Active; 'I' for Inactive)
REMARK    1  A    between atoms: C_1  and  O_2
REMARK    2  A    between atoms: O_2  and  C_3
REMARK    3  A    between atoms: C_5  and  C_6
REMARK    4  A    between atoms: N_7  and  O_8
REMARK    5  A    between atoms: O_8  and  C_9
REMARK    6  A    between atoms: C_9  and  C_10
REMARK    7  A    between atoms: N_12  and  C_13
REMARK    8  A    between atoms: C_18  and  C_19
REMARK    9  A    between atoms: C_22  and  O_23
REMARK   10  A    between atoms: O_23  and  C_24
REMARK   11  A    between atoms: C_24  and  C_25
REMARK                            x       y       z     vdW  Elec       q    Type
REMARK                         _______ _______ _______ _____ _____    ______ ____
ROOT
ATOM      1  C   UNL     1       0.956   9.251  20.252  0.00  0.00    +0.000 A 
ATOM      2  C   UNL     1       1.523   8.114  19.663  0.00  0.00    +0.000 A 
ATOM      3  C   UNL     1       2.185   8.214  18.442  0.00  0.00    +0.000 A 
ATOM      4  C   UNL     1       2.245   9.427  17.759  0.00  0.00    +0.000 A 
ATOM      5  C   UNL     1       1.627  10.539  18.311  0.00  0.00    +0.000 A 
ATOM      6  C   UNL     1       0.933  10.465  19.535  0.00  0.00    +0.000 A 
ENDROOT
BRANCH   1   8
ATOM      7  C   UNL     1       1.389   9.303  22.578  0.00  0.00    +0.000 C 
ATOM      8  O   UNL     1       0.430   9.210  21.515  0.00  0.00    +0.000 OA
ENDBRANCH   1   8
BRANCH   3   9
ATOM      9  C   UNL     1       2.920   7.056  17.920  0.00  0.00    +0.000 C 
ATOM     10  N   UNL     1       4.078   7.186  17.371  0.00  0.00    +0.000 NA
BRANCH  10  11
ATOM     11  O   UNL     1       4.559   5.921  17.015  0.00  0.00    +0.000 OA
BRANCH  11  12
ATOM     12  C   UNL     1       5.738   5.657  17.770  0.00  0.00    +0.000 C 
BRANCH  12  13
ATOM     13  C   UNL     1       5.399   4.790  18.982  0.00  0.00    +0.000 C 
ATOM     14  O   UNL     1       6.181   4.634  19.904  0.00  0.00    +0.000 OA
ATOM     15  N   UNL     1       4.112   4.272  18.947  0.00  0.00    +0.000 N 
ATOM     16  H   UNL     1       3.704   4.253  18.019  0.00  0.00    +0.000 HD
BRANCH  15  17
ATOM     17  C   UNL     1       3.614   3.339  19.950  0.00  0.00    +0.000 C 
ATOM     18  C   UNL     1       2.686   4.030  20.971  0.00  0.00    +0.000 C 
ATOM     19  C   UNL     1       1.338   4.428  20.373  0.00  0.00    +0.000 C 
ATOM     20  C   UNL     1       0.635   3.237  19.733  0.00  0.00    +0.000 C 
ATOM     21  C   UNL     1       1.525   2.549  18.703  0.00  0.00    +0.000 C 
ATOM     22  C   UNL     1       2.874   2.135  19.312  0.00  0.00    +0.000 C 
ATOM     23  C   UNL     1       3.717   1.381  18.281  0.00  0.00    +0.000 C 
ENDBRANCH  15  17
ENDBRANCH  12  13
ENDBRANCH  11  12
ENDBRANCH  10  11
ENDBRANCH   3   9
BRANCH   6  24
ATOM     24  O   UNL     1       0.234  11.542  20.041  0.00  0.00    +0.000 OA
BRANCH  24  25
ATOM     25  C   UNL     1      -1.185  11.326  20.102  0.00  0.00    +0.000 C 
BRANCH  25  26
ATOM     26  C   UNL     1      -1.883  11.009  18.801  0.00  0.00    +0.000 A 
ATOM     27  C   UNL     1      -1.471   9.995  17.937  0.00  0.00    +0.000 A 
ATOM     28  C   UNL     1      -2.144   9.796  16.726  0.00  0.00    +0.000 A 
ATOM     29  C   UNL     1      -3.231  10.601  16.384  0.00  0.00    +0.000 A 
ATOM     30 CL   UNL     1      -4.024  10.379  14.872  0.00  0.00    +0.000 Cl
ATOM     31  C   UNL     1      -3.678  11.589  17.255  0.00  0.00    +0.000 A 
ATOM     32  C   UNL     1      -3.011  11.786  18.462  0.00  0.00    +0.000 A 
ENDBRANCH  25  26
ENDBRANCH  24  25
ENDBRANCH   6  24
TORSDOF 9
ENDMDL
MODEL 6
REMARK VINA RESULT:      -7.3      2.959      4.533
REMARK  Name = 
REMARK  11 active torsions:
REMARK  status: ('A' for Active; 'I' for Inactive)
REMARK    1  A    between atoms: C_1  and  O_2
REMARK    2  A    between atoms: O_2  and  C_3
REMARK    3  A    between atoms: C_5  and  C_6
REMARK    4  A    between atoms: N_7  and  O_8
REMARK    5  A    between atoms: O_8  and  C_9
REMARK    6  A    between atoms: C_9  and  C_10
REMARK    7  A    between atoms: N_12  and  C_13
REMARK    8  A    between atoms: C_18  and  C_19
REMARK    9  A    between atoms: C_22  and  O_23
REMARK   10  A    between atoms: O_23  and  C_24
REMARK   11  A    between atoms: C_24  and  C_25
REMARK                            x       y       z     vdW  Elec       q    Type
REMARK                         _______ _______ _______ _____ _____    ______ ____
ROOT
ATOM      1  C   UNL     1       0.820   9.442  21.056  0.00  0.00    +0.000 A 
ATOM      2  C   UNL     1       1.265   8.128  21.240  0.00  0.00    +0.000 A 
ATOM      3  C   UNL     1       1.844   7.429  20.184  0.00  0.00    +0.000 A 
ATOM      4  C   UNL     1       1.937   8.000  18.916  0.00  0.00    +0.000 A 
ATOM      5  C   UNL     1       1.435   9.278  18.716  0.00  0.00    +0.000 A 
ATOM      6  C   UNL     1       0.827  10.002  19.762  0.00  0.00    +0.000 A 
ENDROOT
BRANCH   1   8
ATOM      7  C   UNL     1      -0.239   9.464  23.171  0.00  0.00    +0.000 C 
ATOM      8  O   UNL     1       0.384  10.199  22.108  0.00  0.00    +0.000 OA
ENDBRANCH   1   8
BRANCH   3   9
ATOM      9  C   UNL     1       2.460   6.120  20.431  0.00  0.00    +0.000 C 
ATOM     10  N   UNL     1       2.182   5.097  19.700  0.00  0.00    +0.000 NA
BRANCH  10  11
ATOM     11  O   UNL     1       2.947   4.007  20.130  0.00  0.00    +0.000 OA
BRANCH  11  12
ATOM     12  C   UNL     1       3.011   3.055  19.073  0.00  0.00    +0.000 C 
BRANCH  12  13
ATOM     13  C   UNL     1       3.165   3.771  17.732  0.00  0.00    +0.000 C 
ATOM     14  O   UNL     1       2.376   3.608  16.817  0.00  0.00    +0.000 OA
ATOM     15  N   UNL     1       4.234   4.655  17.699  0.00  0.00    +0.000 N 
ATOM     16  H   UNL     1       4.939   4.473  18.405  0.00  0.00    +0.000 HD
BRANCH  15  17
ATOM     17  C   UNL     1       4.625   5.370  16.489  0.00  0.00    +0.000 C 
ATOM     18  C   UNL     1       4.788   6.883  16.739  0.00  0.00    +0.000 C 
ATOM     19  C   UNL     1       6.019   7.215  17.582  0.00  0.00    +0.000 C 
ATOM     20  C   UNL     1       7.288   6.635  16.972  0.00  0.00    +0.000 C 
ATOM     21  C   UNL     1       7.160   5.134  16.734  0.00  0.00    +0.000 C 
ATOM     22  C   UNL     1       5.930   4.804  15.872  0.00  0.00    +0.000 C 
ATOM     23  C   UNL     1       5.866   3.302  15.586  0.00  0.00    +0.000 C 
ENDBRANCH  15  17
ENDBRANCH  12  13
ENDBRANCH  11  12
ENDBRANCH  10  11
ENDBRANCH   3   9
BRANCH   6  24
ATOM     24  O   UNL     1       0.240  11.232  19.547  0.00  0.00    +0.000 OA
BRANCH  24  25
ATOM     25  C   UNL     1      -1.194  11.205  19.631  0.00  0.00    +0.000 C 
BRANCH  25  26
ATOM     26  C   UNL     1      -1.949  10.991  18.341  0.00  0.00    +0.000 A 
ATOM     27  C   UNL     1      -3.134  11.656  18.026  0.00  0.00    +0.000 A 
ATOM     28  C   UNL     1      -3.798  11.366  16.829  0.00  0.00    +0.000 A 
ATOM     29  C   UNL     1      -3.274  10.423  15.944  0.00  0.00    +0.000 A 
ATOM     30 CL   UNL     1      -4.122  10.039  14.496  0.00  0.00    +0.000 Cl
ATOM     31  C   UNL     1      -2.072   9.783  16.227  0.00  0.00    +0.000 A 
ATOM     32  C   UNL     1      -1.408  10.073  17.416  0.00  0.00    +0.000 A 
ENDBRANCH  25  26
ENDBRANCH  24  25
ENDBRANCH   6  24
TORSDOF 9
ENDMDL
MODEL 7
REMARK VINA RESULT:      -7.2      1.166      1.234
REMARK  Name = 
REMARK  11 active torsions:
REMARK  status: ('A' for Active; 'I' for Inactive)
REMARK    1  A    between atoms: C_1  and  O_2
REMARK    2  A    between atoms: O_2  and  C_3
REMARK    3  A    between atoms: C_5  and  C_6
REMARK    4  A    between atoms: N_7  and  O_8
REMARK    5  A    between atoms: O_8  and  C_9
REMARK    6  A    between atoms: C_9  and  C_10
REMARK    7  A    between atoms: N_12  and  C_13
REMARK    8  A    between atoms: C_18  and  C_19
REMARK    9  A    between atoms: C_22  and  O_23
REMARK   10  A    between atoms: O_23  and  C_24
REMARK   11  A    between atoms: C_24  and  C_25
REMARK                            x       y       z     vdW  Elec       q    Type
REMARK                         _______ _______ _______ _____ _____    ______ ____
ROOT
ATOM      1  C   UNL     1       1.073   8.666  20.329  0.00  0.00    +0.000 A 
ATOM      2  C   UNL     1       2.029   8.060  19.506  0.00  0.00    +0.000 A 
ATOM      3  C   UNL     1       2.301   8.583  18.245  0.00  0.00    +0.000 A 
ATOM      4  C   UNL     1       1.588   9.677  17.756  0.00  0.00    +0.000 A 
ATOM      5  C   UNL     1       0.593  10.236  18.545  0.00  0.00    +0.000 A 
ATOM      6  C   UNL     1       0.283   9.716  19.818  0.00  0.00    +0.000 A 
ENDROOT
BRANCH   1   8
ATOM      7  C   UNL     1       1.420   9.152  22.618  0.00  0.00    +0.000 C 
ATOM      8  O   UNL     1       0.892   8.263  21.624  0.00  0.00    +0.000 OA
ENDBRANCH   1   8
BRANCH   3   9
ATOM      9  C   UNL     1       3.421   8.047  17.463  0.00  0.00    +0.000 C 
ATOM     10  N   UNL     1       3.844   6.842  17.634  0.00  0.00    +0.000 NA
BRANCH  10  11
ATOM     11  O   UNL     1       4.878   6.588  16.727  0.00  0.00    +0.000 OA
BRANCH  11  12
ATOM     12  C   UNL     1       5.064   5.179  16.635  0.00  0.00    +0.000 C 
BRANCH  12  13
ATOM     13  C   UNL     1       5.061   4.559  18.031  0.00  0.00    +0.000 C 
ATOM     14  O   UNL     1       6.078   4.459  18.697  0.00  0.00    +0.000 OA
ATOM     15  N   UNL     1       3.795   4.197  18.471  0.00  0.00    +0.000 N 
ATOM     16  H   UNL     1       3.120   4.080  17.723  0.00  0.00    +0.000 HD
BRANCH  15  17
ATOM     17  C   UNL     1       3.572   3.498  19.730  0.00  0.00    +0.000 C 
ATOM     18  C   UNL     1       2.759   4.349  20.728  0.00  0.00    +0.000 C 
ATOM     19  C   UNL     1       1.296   4.507  20.317  0.00  0.00    +0.000 C 
ATOM     20  C   UNL     1       0.626   3.156  20.099  0.00  0.00    +0.000 C 
ATOM     21  C   UNL     1       1.400   2.302  19.100  0.00  0.00    +0.000 C 
ATOM     22  C   UNL     1       2.868   2.131  19.524  0.00  0.00    +0.000 C 
ATOM     23  C   UNL     1       3.603   1.211  18.546  0.00  0.00    +0.000 C 
ENDBRANCH  15  17
ENDBRANCH  12  13
ENDBRANCH  11  12
ENDBRANCH  10  11
ENDBRANCH   3   9
BRANCH   6  24
ATOM     24  O   UNL     1      -0.768  10.206  20.566  0.00  0.00    +0.000 OA
BRANCH  24  25
ATOM     25  C   UNL     1      -1.062  11.588  20.305  0.00  0.00    +0.000 C 
BRANCH  25  26
ATOM     26  C   UNL     1      -1.689  12.375  21.432  0.00  0.00    +0.000 A 
ATOM     27  C   UNL     1      -3.054  12.654  21.505  0.00  0.00    +0.000 A 
ATOM     28  C   UNL     1      -3.549  13.431  22.558  0.00  0.00    +0.000 A 
ATOM     29  C   UNL     1      -2.686  13.919  23.540  0.00  0.00    +0.000 A 
ATOM     30 CL   UNL     1      -3.297  14.913  24.806  0.00  0.00    +0.000 Cl
ATOM     31  C   UNL     1      -1.329  13.614  23.500  0.00  0.00    +0.000 A 
ATOM     32  C   UNL     1      -0.835  12.838  22.455  0.00  0.00    +0.000 A 
ENDBRANCH  25  26
ENDBRANCH  24  25
ENDBRANCH   6  24
TORSDOF 9
ENDMDL
MODEL 8
REMARK VINA RESULT:      -7.2      3.826      9.555
REMARK  Name = 
REMARK  11 active torsions:
REMARK  status: ('A' for Active; 'I' for Inactive)
REMARK    1  A    between atoms: C_1  and  O_2
REMARK    2  A    between atoms: O_2  and  C_3
REMARK    3  A    between atoms: C_5  and  C_6
REMARK    4  A    between atoms: N_7  and  O_8
REMARK    5  A    between atoms: O_8  and  C_9
REMARK    6  A    between atoms: C_9  and  C_10
REMARK    7  A    between atoms: N_12  and  C_13
REMARK    8  A    between atoms: C_18  and  C_19
REMARK    9  A    between atoms: C_22  and  O_23
REMARK   10  A    between atoms: O_23  and  C_24
REMARK   11  A    between atoms: C_24  and  C_25
REMARK                            x       y       z     vdW  Elec       q    Type
REMARK                         _______ _______ _______ _____ _____    ______ ____
ROOT
ATOM      1  C   UNL     1       2.037   4.431  19.653  0.00  0.00    +0.000 A 
ATOM      2  C   UNL     1       1.873   5.479  20.566  0.00  0.00    +0.000 A 
ATOM      3  C   UNL     1       1.932   6.801  20.133  0.00  0.00    +0.000 A 
ATOM      4  C   UNL     1       2.213   7.105  18.802  0.00  0.00    +0.000 A 
ATOM      5  C   UNL     1       2.442   6.068  17.910  0.00  0.00    +0.000 A 
ATOM      6  C   UNL     1       2.408   4.721  18.323  0.00  0.00    +0.000 A 
ENDROOT
BRANCH   1   8
ATOM      7  C   UNL     1       1.459   2.934  21.391  0.00  0.00    +0.000 C 
ATOM      8  O   UNL     1       1.839   3.128  20.022  0.00  0.00    +0.000 OA
ENDBRANCH   1   8
BRANCH   3   9
ATOM      9  C   UNL     1       1.590   7.884  21.063  0.00  0.00    +0.000 C 
ATOM     10  N   UNL     1       1.120   9.007  20.643  0.00  0.00    +0.000 NA
BRANCH  10  11
ATOM     11  O   UNL     1       0.840   9.825  21.744  0.00  0.00    +0.000 OA
BRANCH  11  12
ATOM     12  C   UNL     1      -0.451  10.399  21.563  0.00  0.00    +0.000 C 
BRANCH  12  13
ATOM     13  C   UNL     1      -0.556  11.026  20.174  0.00  0.00    +0.000 C 
ATOM     14  O   UNL     1      -1.301  10.579  19.317  0.00  0.00    +0.000 OA
ATOM     15  N   UNL     1       0.217  12.168  20.025  0.00  0.00    +0.000 N 
ATOM     16  H   UNL     1       0.971  12.244  20.700  0.00  0.00    +0.000 HD
BRANCH  15  17
ATOM     17  C   UNL     1       0.345  12.869  18.753  0.00  0.00    +0.000 C 
ATOM     18  C   UNL     1      -0.128  14.334  18.850  0.00  0.00    +0.000 C 
ATOM     19  C   UNL     1       0.821  15.211  19.665  0.00  0.00    +0.000 C 
ATOM     20  C   UNL     1       2.245  15.144  19.127  0.00  0.00    +0.000 C 
ATOM     21  C   UNL     1       2.745  13.706  19.041  0.00  0.00    +0.000 C 
ATOM     22  C   UNL     1       1.796  12.830  18.207  0.00  0.00    +0.000 C 
ATOM     23  C   UNL     1       2.357  11.412  18.073  0.00  0.00    +0.000 C 
ENDBRANCH  15  17
ENDBRANCH  12  13
ENDBRANCH  11  12
ENDBRANCH  10  11
ENDBRANCH   3   9
BRANCH   6  24
ATOM     24  O   UNL     1       2.729   3.690  17.464  0.00  0.00    +0.000 OA
BRANCH  24  25
ATOM     25  C   UNL     1       4.111   3.302  17.527  0.00  0.00    +0.000 C 
BRANCH  25  26
ATOM     26  C   UNL     1       5.124   4.412  17.679  0.00  0.00    +0.000 A 
ATOM     27  C   UNL     1       5.545   5.216  16.620  0.00  0.00    +0.000 A 
ATOM     28  C   UNL     1       6.524   6.194  16.835  0.00  0.00    +0.000 A 
ATOM     29  C   UNL     1       7.073   6.373  18.105  0.00  0.00    +0.000 A 
ATOM     30 CL   UNL     1       8.309   7.546  18.350  0.00  0.00    +0.000 Cl
ATOM     31  C   UNL     1       6.632   5.605  19.178  0.00  0.00    +0.000 A 
ATOM     32  C   UNL     1       5.656   4.635  18.967  0.00  0.00    +0.000 A 
ENDBRANCH  25  26
ENDBRANCH  24  25
ENDBRANCH   6  24
TORSDOF 9
ENDMDL
MODEL 9
REMARK VINA RESULT:      -7.1      4.304     10.697
REMARK  Name = 
REMARK  11 active torsions:
REMARK  status: ('A' for Active; 'I' for Inactive)
REMARK    1  A    between atoms: C_1  and  O_2
REMARK    2  A    between atoms: O_2  and  C_3
REMARK    3  A    between atoms: C_5  and  C_6
REMARK    4  A    between atoms: N_7  and  O_8
REMARK    5  A    between atoms: O_8  and  C_9
REMARK    6  A    between atoms: C_9  and  C_10
REMARK    7  A    between atoms: N_12  and  C_13
REMARK    8  A    between atoms: C_18  and  C_19
REMARK    9  A    between atoms: C_22  and  O_23
REMARK   10  A    between atoms: O_23  and  C_24
REMARK   11  A    between atoms: C_24  and  C_25
REMARK                            x       y       z     vdW  Elec       q    Type
REMARK                         _______ _______ _______ _____ _____    ______ ____
ROOT
ATOM      1  C   UNL     1       2.308   5.672  20.154  0.00  0.00    +0.000 A 
ATOM      2  C   UNL     1       1.768   6.890  20.582  0.00  0.00    +0.000 A 
ATOM      3  C   UNL     1       1.761   7.992  19.730  0.00  0.00    +0.000 A 
ATOM      4  C   UNL     1       2.343   7.920  18.466  0.00  0.00    +0.000 A 
ATOM      5  C   UNL     1       2.939   6.733  18.067  0.00  0.00    +0.000 A 
ATOM      6  C   UNL     1       2.977   5.607  18.915  0.00  0.00    +0.000 A 
ENDROOT
BRANCH   1   8
ATOM      7  C   UNL     1       1.054   3.721  20.621  0.00  0.00    +0.000 C 
ATOM      8  O   UNL     1       2.196   4.539  20.912  0.00  0.00    +0.000 OA
ENDBRANCH   1   8
BRANCH   3   9
ATOM      9  C   UNL     1       1.041   9.209  20.124  0.00  0.00    +0.000 C 
ATOM     10  N   UNL     1       0.585   9.362  21.319  0.00  0.00    +0.000 NA
BRANCH  10  11
ATOM     11  O   UNL     1      -0.006  10.626  21.422  0.00  0.00    +0.000 OA
BRANCH  11  12
ATOM     12  C   UNL     1      -0.655  10.721  22.687  0.00  0.00    +0.000 C 
BRANCH  12  13
ATOM     13  C   UNL     1      -1.190  12.136  22.897  0.00  0.00    +0.000 C 
ATOM     14  O   UNL     1      -0.483  13.042  23.304  0.00  0.00    +0.000 OA
ATOM     15  N   UNL     1      -2.516  12.286  22.515  0.00  0.00    +0.000 N 
ATOM     16  H   UNL     1      -3.031  11.413  22.471  0.00  0.00    +0.000 HD
BRANCH  15  17
ATOM     17  C   UNL     1      -3.257  13.525  22.721  0.00  0.00    +0.000 C 
ATOM     18  C   UNL     1      -3.490  14.285  21.399  0.00  0.00    +0.000 C 
ATOM     19  C   UNL     1      -4.498  13.591  20.485  0.00  0.00    +0.000 C 
ATOM     20  C   UNL     1      -5.822  13.342  21.198  0.00  0.00    +0.000 C 
ATOM     21  C   UNL     1      -5.621  12.573  22.499  0.00  0.00    +0.000 C 
ATOM     22  C   UNL     1      -4.618  13.282  23.424  0.00  0.00    +0.000 C 
ATOM     23  C   UNL     1      -4.491  12.531  24.751  0.00  0.00    +0.000 C 
ENDBRANCH  15  17
ENDBRANCH  12  13
ENDBRANCH  11  12
ENDBRANCH  10  11
ENDBRANCH   3   9
BRANCH   6  24
ATOM     24  O   UNL     1       3.652   4.456  18.563  0.00  0.00    +0.000 OA
BRANCH  24  25
ATOM     25  C   UNL     1       5.079   4.618  18.522  0.00  0.00    +0.000 C 
BRANCH  25  26
ATOM     26  C   UNL     1       5.726   4.625  17.157  0.00  0.00    +0.000 A 
ATOM     27  C   UNL     1       7.069   4.935  16.947  0.00  0.00    +0.000 A 
ATOM     28  C   UNL     1       7.580   4.966  15.644  0.00  0.00    +0.000 A 
ATOM     29  C   UNL     1       6.754   4.677  14.557  0.00  0.00    +0.000 A 
ATOM     30 CL   UNL     1       7.381   4.762  12.955  0.00  0.00    +0.000 Cl
ATOM     31  C   UNL     1       5.423   4.326  14.756  0.00  0.00    +0.000 A 
ATOM     32  C   UNL     1       4.914   4.292  16.052  0.00  0.00    +0.000 A 
ENDBRANCH  25  26
ENDBRANCH  24  25
ENDBRANCH   6  24
TORSDOF 9
ENDMDL
