MODEL 1
REMARK VINA RESULT:      -9.2      0.000      0.000
REMARK  Name = 
REMARK  4 active torsions:
REMARK  status: ('A' for Active; 'I' for Inactive)
REMARK    1  A    between atoms: C_1  and  C_2
REMARK    2  A    between atoms: C_5  and  C_6
REMARK    3  A    between atoms: C_16  and  C_17
REMARK    4  A    between atoms: C_20  and  C_21
REMARK                            x       y       z     vdW  Elec       q    Type
REMARK                         _______ _______ _______ _____ _____    ______ ____
ROOT
ATOM      1  C   UNL     1       3.106   7.008  17.954  0.00  0.00    +0.000 A 
ATOM      2  N   UNL     1       3.986   7.369  16.947  0.00  0.00    +0.000 N 
ATOM      3  C   UNL     1       4.750   6.310  16.578  0.00  0.00    +0.000 A 
ATOM      4  N   UNL     1       5.717   6.393  15.631  0.00  0.00    +0.000 NA
ATOM      5  C   UNL     1       6.358   5.274  15.440  0.00  0.00    +0.000 A 
ATOM      6  N   UNL     1       7.361   5.209  14.527  0.00  0.00    +0.000 N 
ATOM      7  N   UNL     1       6.081   4.117  16.127  0.00  0.00    +0.000 N 
ATOM      8  C   UNL     1       5.073   3.983  17.067  0.00  0.00    +0.000 A 
ATOM      9  O   UNL     1       4.848   2.906  17.603  0.00  0.00    +0.000 OA
ATOM     10  C   UNL     1       4.367   5.222  17.323  0.00  0.00    +0.000 A 
ATOM     11  C   UNL     1       3.311   5.640  18.199  0.00  0.00    +0.000 A 
ATOM     12  H   UNL     1       4.086   8.295  16.563  0.00  0.00    +0.000 HD
ATOM     13  H   UNL     1       7.657   6.131  14.221  0.00  0.00    +0.000 HD
ATOM     14  H   UNL     1       8.136   4.600  14.747  0.00  0.00    +0.000 HD
ATOM     15  H   UNL     1       6.576   3.270  15.907  0.00  0.00    +0.000 HD
ENDROOT
BRANCH   1  20
ATOM     16  C   UNL     1      -0.559  10.866  20.280  0.00  0.00    +0.000 C 
ATOM     17  C   UNL     1       0.417   9.903  19.673  0.00  0.00    +0.000 A 
ATOM     18  C   UNL     1       0.740   9.953  18.314  0.00  0.00    +0.000 A 
ATOM     19  C   UNL     1       1.624   9.018  17.760  0.00  0.00    +0.000 A 
ATOM     20  C   UNL     1       2.218   8.026  18.552  0.00  0.00    +0.000 A 
ATOM     21  C   UNL     1       1.926   8.020  19.922  0.00  0.00    +0.000 A 
ATOM     22  C   UNL     1       1.012   8.922  20.471  0.00  0.00    +0.000 A 
ENDBRANCH   1  20
BRANCH  11  23
ATOM     23  C   UNL     1       2.598   4.859  19.222  0.00  0.00    +0.000 A 
ATOM     24  C   UNL     1       1.572   3.977  18.862  0.00  0.00    +0.000 A 
ATOM     25  C   UNL     1       0.978   3.133  19.807  0.00  0.00    +0.000 A 
ATOM     26  C   UNL     1       1.425   3.122  21.130  0.00  0.00    +0.000 A 
ATOM     27  C   UNL     1       0.871   2.150  22.129  0.00  0.00    +0.000 C 
ATOM     28  C   UNL     1       2.428   4.019  21.508  0.00  0.00    +0.000 A 
ATOM     29  C   UNL     1       2.975   4.906  20.574  0.00  0.00    +0.000 A 
ENDBRANCH  11  23
TORSDOF 2
ENDMDL
MODEL 2
REMARK VINA RESULT:      -9.1      0.663      1.073
REMARK  Name = 
REMARK  4 active torsions:
REMARK  status: ('A' for Active; 'I' for Inactive)
REMARK    1  A    between atoms: C_1  and  C_2
REMARK    2  A    between atoms: C_5  and  C_6
REMARK    3  A    between atoms: C_16  and  C_17
REMARK    4  A    between atoms: C_20  and  C_21
REMARK                            x       y       z     vdW  Elec       q    Type
REMARK                         _______ _______ _______ _____ _____    ______ ____
ROOT
ATOM      1  C   UNL     1       3.406   6.711  17.734  0.00  0.00    +0.000 A 
ATOM      2  N   UNL     1       4.229   7.170  16.719  0.00  0.00    +0.000 N 
ATOM      3  C   UNL     1       4.972   6.155  16.210  0.00  0.00    +0.000 A 
ATOM      4  N   UNL     1       5.884   6.332  15.223  0.00  0.00    +0.000 NA
ATOM      5  C   UNL     1       6.514   5.240  14.893  0.00  0.00    +0.000 A 
ATOM      6  N   UNL     1       7.466   5.266  13.923  0.00  0.00    +0.000 N 
ATOM      7  N   UNL     1       6.276   4.022  15.481  0.00  0.00    +0.000 N 
ATOM      8  C   UNL     1       5.323   3.794  16.459  0.00  0.00    +0.000 A 
ATOM      9  O   UNL     1       5.128   2.670  16.902  0.00  0.00    +0.000 OA
ATOM     10  C   UNL     1       4.631   4.999  16.868  0.00  0.00    +0.000 A 
ATOM     11  C   UNL     1       3.625   5.327  17.837  0.00  0.00    +0.000 A 
ATOM     12  H   UNL     1       4.307   8.128  16.418  0.00  0.00    +0.000 HD
ATOM     13  H   UNL     1       7.743   6.214  13.689  0.00  0.00    +0.000 HD
ATOM     14  H   UNL     1       8.251   4.644  14.042  0.00  0.00    +0.000 HD
ATOM     15  H   UNL     1       6.759   3.202  15.155  0.00  0.00    +0.000 HD
ENDROOT
BRANCH   1  20
ATOM     16  C   UNL     1      -0.131  10.321  20.596  0.00  0.00    +0.000 C 
ATOM     17  C   UNL     1       0.813   9.421  19.855  0.00  0.00    +0.000 A 
ATOM     18  C   UNL     1       1.137   9.651  18.515  0.00  0.00    +0.000 A 
ATOM     19  C   UNL     1       1.989   8.775  17.831  0.00  0.00    +0.000 A 
ATOM     20  C   UNL     1       2.552   7.663  18.473  0.00  0.00    +0.000 A 
ATOM     21  C   UNL     1       2.261   7.475  19.830  0.00  0.00    +0.000 A 
ATOM     22  C   UNL     1       1.376   8.320  20.505  0.00  0.00    +0.000 A 
ENDBRANCH   1  20
BRANCH  11  23
ATOM     23  C   UNL     1       2.970   4.449  18.820  0.00  0.00    +0.000 A 
ATOM     24  C   UNL     1       3.705   3.867  19.860  0.00  0.00    +0.000 A 
ATOM     25  C   UNL     1       3.073   3.141  20.875  0.00  0.00    +0.000 A 
ATOM     26  C   UNL     1       1.682   3.013  20.896  0.00  0.00    +0.000 A 
ATOM     27  C   UNL     1       0.983   2.329  22.033  0.00  0.00    +0.000 C 
ATOM     28  C   UNL     1       0.941   3.564  19.847  0.00  0.00    +0.000 A 
ATOM     29  C   UNL     1       1.583   4.235  18.801  0.00  0.00    +0.000 A 
ENDBRANCH  11  23
TORSDOF 2
ENDMDL
MODEL 3
REMARK VINA RESULT:      -8.0      5.358      9.198
REMARK  Name = 
REMARK  4 active torsions:
REMARK  status: ('A' for Active; 'I' for Inactive)
REMARK    1  A    between atoms: C_1  and  C_2
REMARK    2  A    between atoms: C_5  and  C_6
REMARK    3  A    between atoms: C_16  and  C_17
REMARK    4  A    between atoms: C_20  and  C_21
REMARK                            x       y       z     vdW  Elec       q    Type
REMARK                         _______ _______ _______ _____ _____    ______ ____
ROOT
ATOM      1  C   UNL     1      -0.023  10.570  20.282  0.00  0.00    +0.000 A 
ATOM      2  N   UNL     1       0.330  11.105  21.510  0.00  0.00    +0.000 N 
ATOM      3  C   UNL     1      -0.540  12.081  21.875  0.00  0.00    +0.000 A 
ATOM      4  N   UNL     1      -0.411  12.792  23.021  0.00  0.00    +0.000 NA
ATOM      5  C   UNL     1      -1.332  13.703  23.177  0.00  0.00    +0.000 A 
ATOM      6  N   UNL     1      -1.325  14.500  24.276  0.00  0.00    +0.000 N 
ATOM      7  N   UNL     1      -2.341  13.921  22.270  0.00  0.00    +0.000 N 
ATOM      8  C   UNL     1      -2.530  13.185  21.112  0.00  0.00    +0.000 A 
ATOM      9  O   UNL     1      -3.483  13.400  20.375  0.00  0.00    +0.000 OA
ATOM     10  C   UNL     1      -1.500  12.188  20.899  0.00  0.00    +0.000 A 
ATOM     11  C   UNL     1      -1.198  11.226  19.879  0.00  0.00    +0.000 A 
ATOM     12  H   UNL     1       1.141  10.846  22.049  0.00  0.00    +0.000 HD
ATOM     13  H   UNL     1      -0.448  14.439  24.784  0.00  0.00    +0.000 HD
ATOM     14  H   UNL     1      -1.641  15.451  24.149  0.00  0.00    +0.000 HD
ATOM     15  H   UNL     1      -3.051  14.605  22.462  0.00  0.00    +0.000 HD
ENDROOT
BRANCH   1  20
ATOM     16  C   UNL     1       3.497   6.594  17.931  0.00  0.00    +0.000 C 
ATOM     17  C   UNL     1       2.555   7.606  18.512  0.00  0.00    +0.000 A 
ATOM     18  C   UNL     1       2.088   8.684  17.755  0.00  0.00    +0.000 A 
ATOM     19  C   UNL     1       1.240   9.640  18.329  0.00  0.00    +0.000 A 
ATOM     20  C   UNL     1       0.826   9.531  19.664  0.00  0.00    +0.000 A 
ATOM     21  C   UNL     1       1.259   8.418  20.395  0.00  0.00    +0.000 A 
ATOM     22  C   UNL     1       2.140   7.486  19.840  0.00  0.00    +0.000 A 
ENDBRANCH   1  20
BRANCH  11  23
ATOM     23  C   UNL     1      -1.896  10.980  18.607  0.00  0.00    +0.000 A 
ATOM     24  C   UNL     1      -1.812  11.900  17.555  0.00  0.00    +0.000 A 
ATOM     25  C   UNL     1      -2.359  11.616  16.299  0.00  0.00    +0.000 A 
ATOM     26  C   UNL     1      -2.971  10.385  16.053  0.00  0.00    +0.000 A 
ATOM     27  C   UNL     1      -3.468  10.025  14.684  0.00  0.00    +0.000 C 
ATOM     28  C   UNL     1      -3.088   9.471  17.104  0.00  0.00    +0.000 A 
ATOM     29  C   UNL     1      -2.595   9.785  18.375  0.00  0.00    +0.000 A 
ENDBRANCH  11  23
TORSDOF 2
ENDMDL
MODEL 4
REMARK VINA RESULT:      -7.7      5.288      9.172
REMARK  Name = 
REMARK  4 active torsions:
REMARK  status: ('A' for Active; 'I' for Inactive)
REMARK    1  A    between atoms: C_1  and  C_2
REMARK    2  A    between atoms: C_5  and  C_6
REMARK    3  A    between atoms: C_16  and  C_17
REMARK    4  A    between atoms: C_20  and  C_21
REMARK                            x       y       z     vdW  Elec       q    Type
REMARK                         _______ _______ _______ _____ _____    ______ ____
ROOT
ATOM      1  C   UNL     1       0.067  10.414  20.255  0.00  0.00    +0.000 A 
ATOM      2  N   UNL     1       0.318  10.939  21.512  0.00  0.00    +0.000 N 
ATOM      3  C   UNL     1      -0.601  11.886  21.827  0.00  0.00    +0.000 A 
ATOM      4  N   UNL     1      -0.573  12.583  22.989  0.00  0.00    +0.000 NA
ATOM      5  C   UNL     1      -1.526  13.467  23.091  0.00  0.00    +0.000 A 
ATOM      6  N   UNL     1      -1.619  14.247  24.199  0.00  0.00    +0.000 N 
ATOM      7  N   UNL     1      -2.474  13.672  22.118  0.00  0.00    +0.000 N 
ATOM      8  C   UNL     1      -2.561  12.950  20.940  0.00  0.00    +0.000 A 
ATOM      9  O   UNL     1      -3.465  13.152  20.140  0.00  0.00    +0.000 OA
ATOM     10  C   UNL     1      -1.493  11.983  20.787  0.00  0.00    +0.000 A 
ATOM     11  C   UNL     1      -1.094  11.045  19.778  0.00  0.00    +0.000 A 
ATOM     12  H   UNL     1       1.096  10.693  22.103  0.00  0.00    +0.000 HD
ATOM     13  H   UNL     1      -0.779  14.201  24.767  0.00  0.00    +0.000 HD
ATOM     14  H   UNL     1      -1.950  15.191  24.062  0.00  0.00    +0.000 HD
ATOM     15  H   UNL     1      -3.215  14.335  22.269  0.00  0.00    +0.000 HD
ENDROOT
BRANCH   1  20
ATOM     16  C   UNL     1       3.496   6.351  17.918  0.00  0.00    +0.000 C 
ATOM     17  C   UNL     1       2.644   7.412  18.549  0.00  0.00    +0.000 A 
ATOM     18  C   UNL     1       2.205   7.302  19.872  0.00  0.00    +0.000 A 
ATOM     19  C   UNL     1       1.377   8.286  20.428  0.00  0.00    +0.000 A 
ATOM     20  C   UNL     1       0.985   9.407  19.684  0.00  0.00    +0.000 A 
ATOM     21  C   UNL     1       1.475   9.530  18.378  0.00  0.00    +0.000 A 
ATOM     22  C   UNL     1       2.265   8.531  17.804  0.00  0.00    +0.000 A 
ENDBRANCH   1  20
BRANCH  11  23
ATOM     23  C   UNL     1      -1.694  10.800  18.457  0.00  0.00    +0.000 A 
ATOM     24  C   UNL     1      -2.390   9.614  18.197  0.00  0.00    +0.000 A 
ATOM     25  C   UNL     1      -3.077   9.426  16.993  0.00  0.00    +0.000 A 
ATOM     26  C   UNL     1      -3.117  10.439  16.033  0.00  0.00    +0.000 A 
ATOM     27  C   UNL     1      -3.936  10.295  14.784  0.00  0.00    +0.000 C 
ATOM     28  C   UNL     1      -2.401  11.616  16.268  0.00  0.00    +0.000 A 
ATOM     29  C   UNL     1      -1.663  11.774  17.446  0.00  0.00    +0.000 A 
ENDBRANCH  11  23
TORSDOF 2
ENDMDL
MODEL 5
REMARK VINA RESULT:      -7.7      1.634      4.912
REMARK  Name = 
REMARK  4 active torsions:
REMARK  status: ('A' for Active; 'I' for Inactive)
REMARK    1  A    between atoms: C_1  and  C_2
REMARK    2  A    between atoms: C_5  and  C_6
REMARK    3  A    between atoms: C_16  and  C_17
REMARK    4  A    between atoms: C_20  and  C_21
REMARK                            x       y       z     vdW  Elec       q    Type
REMARK                         _______ _______ _______ _____ _____    ______ ____
ROOT
ATOM      1  C   UNL     1       3.756   4.076  18.139  0.00  0.00    +0.000 A 
ATOM      2  N   UNL     1       4.509   3.237  17.335  0.00  0.00    +0.000 N 
ATOM      3  C   UNL     1       5.078   3.934  16.318  0.00  0.00    +0.000 A 
ATOM      4  N   UNL     1       5.845   3.351  15.364  0.00  0.00    +0.000 NA
ATOM      5  C   UNL     1       6.276   4.186  14.460  0.00  0.00    +0.000 A 
ATOM      6  N   UNL     1       7.049   3.743  13.434  0.00  0.00    +0.000 N 
ATOM      7  N   UNL     1       5.988   5.529  14.471  0.00  0.00    +0.000 N 
ATOM      8  C   UNL     1       5.247   6.166  15.452  0.00  0.00    +0.000 A 
ATOM      9  O   UNL     1       5.073   7.377  15.428  0.00  0.00    +0.000 OA
ATOM     10  C   UNL     1       4.728   5.255  16.452  0.00  0.00    +0.000 A 
ATOM     11  C   UNL     1       3.894   5.371  17.614  0.00  0.00    +0.000 A 
ATOM     12  H   UNL     1       4.597   2.240  17.450  0.00  0.00    +0.000 HD
ATOM     13  H   UNL     1       7.041   2.730  13.363  0.00  0.00    +0.000 HD
ATOM     14  H   UNL     1       6.927   4.202  12.543  0.00  0.00    +0.000 HD
ATOM     15  H   UNL     1       6.385   6.135  13.774  0.00  0.00    +0.000 HD
ENDROOT
BRANCH   1  20
ATOM     16  C   UNL     1       0.752   2.079  22.691  0.00  0.00    +0.000 C 
ATOM     17  C   UNL     1       1.541   2.553  21.506  0.00  0.00    +0.000 A 
ATOM     18  C   UNL     1       2.938   2.506  21.496  0.00  0.00    +0.000 A 
ATOM     19  C   UNL     1       3.655   2.992  20.395  0.00  0.00    +0.000 A 
ATOM     20  C   UNL     1       2.996   3.514  19.275  0.00  0.00    +0.000 A 
ATOM     21  C   UNL     1       1.595   3.506  19.276  0.00  0.00    +0.000 A 
ATOM     22  C   UNL     1       0.876   3.065  20.390  0.00  0.00    +0.000 A 
ENDBRANCH   1  20
BRANCH  11  23
ATOM     23  C   UNL     1       3.227   6.567  18.154  0.00  0.00    +0.000 A 
ATOM     24  C   UNL     1       2.861   7.623  17.311  0.00  0.00    +0.000 A 
ATOM     25  C   UNL     1       2.110   8.703  17.789  0.00  0.00    +0.000 A 
ATOM     26  C   UNL     1       1.671   8.732  19.114  0.00  0.00    +0.000 A 
ATOM     27  C   UNL     1       0.777   9.828  19.613  0.00  0.00    +0.000 C 
ATOM     28  C   UNL     1       2.056   7.698  19.972  0.00  0.00    +0.000 A 
ATOM     29  C   UNL     1       2.861   6.653  19.506  0.00  0.00    +0.000 A 
ENDBRANCH  11  23
TORSDOF 2
ENDMDL
MODEL 6
REMARK VINA RESULT:      -7.5      2.561      5.879
REMARK  Name = 
REMARK  4 active torsions:
REMARK  status: ('A' for Active; 'I' for Inactive)
REMARK    1  A    between atoms: C_1  and  C_2
REMARK    2  A    between atoms: C_5  and  C_6
REMARK    3  A    between atoms: C_16  and  C_17
REMARK    4  A    between atoms: C_20  and  C_21
REMARK                            x       y       z     vdW  Elec       q    Type
REMARK                         _______ _______ _______ _____ _____    ______ ____
ROOT
ATOM      1  C   UNL     1       3.177   7.197  17.883  0.00  0.00    +0.000 A 
ATOM      2  N   UNL     1       3.065   8.536  17.546  0.00  0.00    +0.000 N 
ATOM      3  C   UNL     1       2.209   9.170  18.387  0.00  0.00    +0.000 A 
ATOM      4  N   UNL     1       1.893  10.483  18.265  0.00  0.00    +0.000 NA
ATOM      5  C   UNL     1       1.032  10.897  19.152  0.00  0.00    +0.000 A 
ATOM      6  N   UNL     1       0.614  12.189  19.147  0.00  0.00    +0.000 N 
ATOM      7  N   UNL     1       0.496  10.086  20.123  0.00  0.00    +0.000 N 
ATOM      8  C   UNL     1       0.828   8.754  20.306  0.00  0.00    +0.000 A 
ATOM      9  O   UNL     1       0.351   8.104  21.226  0.00  0.00    +0.000 OA
ATOM     10  C   UNL     1       1.759   8.260  19.311  0.00  0.00    +0.000 A 
ATOM     11  C   UNL     1       2.373   6.997  19.017  0.00  0.00    +0.000 A 
ATOM     12  H   UNL     1       3.517   8.981  16.764  0.00  0.00    +0.000 HD
ATOM     13  H   UNL     1       0.871  12.668  18.289  0.00  0.00    +0.000 HD
ATOM     14  H   UNL     1      -0.343  12.357  19.419  0.00  0.00    +0.000 HD
ATOM     15  H   UNL     1      -0.129  10.469  20.810  0.00  0.00    +0.000 HD
ENDROOT
BRANCH   1  20
ATOM     16  C   UNL     1       6.304   3.677  14.483  0.00  0.00    +0.000 C 
ATOM     17  C   UNL     1       5.522   4.575  15.395  0.00  0.00    +0.000 A 
ATOM     18  C   UNL     1       4.715   4.055  16.412  0.00  0.00    +0.000 A 
ATOM     19  C   UNL     1       3.962   4.911  17.226  0.00  0.00    +0.000 A 
ATOM     20  C   UNL     1       4.014   6.301  17.058  0.00  0.00    +0.000 A 
ATOM     21  C   UNL     1       4.867   6.810  16.071  0.00  0.00    +0.000 A 
ATOM     22  C   UNL     1       5.585   5.960  15.226  0.00  0.00    +0.000 A 
ENDBRANCH   1  20
BRANCH  11  23
ATOM     23  C   UNL     1       2.181   5.700  19.686  0.00  0.00    +0.000 A 
ATOM     24  C   UNL     1       2.842   5.409  20.885  0.00  0.00    +0.000 A 
ATOM     25  C   UNL     1       2.567   4.237  21.598  0.00  0.00    +0.000 A 
ATOM     26  C   UNL     1       1.592   3.344  21.148  0.00  0.00    +0.000 A 
ATOM     27  C   UNL     1       1.211   2.139  21.954  0.00  0.00    +0.000 C 
ATOM     28  C   UNL     1       0.947   3.609  19.936  0.00  0.00    +0.000 A 
ATOM     29  C   UNL     1       1.271   4.750  19.195  0.00  0.00    +0.000 A 
ENDBRANCH  11  23
TORSDOF 2
ENDMDL
MODEL 7
REMARK VINA RESULT:      -7.4      3.146      5.782
REMARK  Name = 
REMARK  4 active torsions:
REMARK  status: ('A' for Active; 'I' for Inactive)
REMARK    1  A    between atoms: C_1  and  C_2
REMARK    2  A    between atoms: C_5  and  C_6
REMARK    3  A    between atoms: C_16  and  C_17
REMARK    4  A    between atoms: C_20  and  C_21
REMARK                            x       y       z     vdW  Elec       q    Type
REMARK                         _______ _______ _______ _____ _____    ______ ____
ROOT
ATOM      1  C   UNL     1       5.058   4.343  16.501  0.00  0.00    +0.000 A 
ATOM      2  N   UNL     1       4.785   3.502  15.435  0.00  0.00    +0.000 N 
ATOM      3  C   UNL     1       5.640   3.740  14.408  0.00  0.00    +0.000 A 
ATOM      4  N   UNL     1       5.575   3.076  13.227  0.00  0.00    +0.000 NA
ATOM      5  C   UNL     1       6.465   3.468  12.359  0.00  0.00    +0.000 A 
ATOM      6  N   UNL     1       6.515   2.899  11.127  0.00  0.00    +0.000 N 
ATOM      7  N   UNL     1       7.386   4.456  12.613  0.00  0.00    +0.000 N 
ATOM      8  C   UNL     1       7.511   5.123  13.820  0.00  0.00    +0.000 A 
ATOM      9  O   UNL     1       8.390   5.957  13.994  0.00  0.00    +0.000 OA
ATOM     10  C   UNL     1       6.511   4.729  14.792  0.00  0.00    +0.000 A 
ATOM     11  C   UNL     1       6.167   5.121  16.128  0.00  0.00    +0.000 A 
ATOM     12  H   UNL     1       4.033   2.833  15.397  0.00  0.00    +0.000 HD
ATOM     13  H   UNL     1       5.687   2.346  10.930  0.00  0.00    +0.000 HD
ATOM     14  H   UNL     1       6.778   3.500  10.360  0.00  0.00    +0.000 HD
ATOM     15  H   UNL     1       8.080   4.687  11.924  0.00  0.00    +0.000 HD
ENDROOT
BRANCH   1  20
ATOM     16  C   UNL     1       1.606   3.985  21.158  0.00  0.00    +0.000 C 
ATOM     17  C   UNL     1       2.508   4.119  19.967  0.00  0.00    +0.000 A 
ATOM     18  C   UNL     1       2.192   4.974  18.907  0.00  0.00    +0.000 A 
ATOM     19  C   UNL     1       3.029   5.054  17.787  0.00  0.00    +0.000 A 
ATOM     20  C   UNL     1       4.207   4.298  17.708  0.00  0.00    +0.000 A 
ATOM     21  C   UNL     1       4.538   3.486  18.799  0.00  0.00    +0.000 A 
ATOM     22  C   UNL     1       3.684   3.369  19.899  0.00  0.00    +0.000 A 
ENDBRANCH   1  20
BRANCH  11  23
ATOM     23  C   UNL     1       6.769   6.172  16.965  0.00  0.00    +0.000 A 
ATOM     24  C   UNL     1       7.605   5.840  18.038  0.00  0.00    +0.000 A 
ATOM     25  C   UNL     1       8.287   6.827  18.757  0.00  0.00    +0.000 A 
ATOM     26  C   UNL     1       8.181   8.171  18.393  0.00  0.00    +0.000 A 
ATOM     27  C   UNL     1       8.988   9.229  19.086  0.00  0.00    +0.000 C 
ATOM     28  C   UNL     1       7.326   8.518  17.343  0.00  0.00    +0.000 A 
ATOM     29  C   UNL     1       6.596   7.533  16.668  0.00  0.00    +0.000 A 
ENDBRANCH  11  23
TORSDOF 2
ENDMDL
MODEL 8
REMARK VINA RESULT:      -7.2      8.975     11.291
REMARK  Name = 
REMARK  4 active torsions:
REMARK  status: ('A' for Active; 'I' for Inactive)
REMARK    1  A    between atoms: C_1  and  C_2
REMARK    2  A    between atoms: C_5  and  C_6
REMARK    3  A    between atoms: C_16  and  C_17
REMARK    4  A    between atoms: C_20  and  C_21
REMARK                            x       y       z     vdW  Elec       q    Type
REMARK                         _______ _______ _______ _____ _____    ______ ____
ROOT
ATOM      1  C   UNL     1      -3.952  12.217  19.905  0.00  0.00    +0.000 A 
ATOM      2  N   UNL     1      -5.220  12.167  20.459  0.00  0.00    +0.000 N 
ATOM      3  C   UNL     1      -5.218  12.700  21.707  0.00  0.00    +0.000 A 
ATOM      4  N   UNL     1      -6.324  12.750  22.489  0.00  0.00    +0.000 NA
ATOM      5  C   UNL     1      -6.110  13.275  23.663  0.00  0.00    +0.000 A 
ATOM      6  N   UNL     1      -7.125  13.383  24.559  0.00  0.00    +0.000 N 
ATOM      7  N   UNL     1      -4.883  13.740  24.072  0.00  0.00    +0.000 N 
ATOM      8  C   UNL     1      -3.743  13.746  23.286  0.00  0.00    +0.000 A 
ATOM      9  O   UNL     1      -2.695  14.224  23.697  0.00  0.00    +0.000 OA
ATOM     10  C   UNL     1      -3.946  13.137  21.987  0.00  0.00    +0.000 A 
ATOM     11  C   UNL     1      -3.124  12.850  20.847  0.00  0.00    +0.000 A 
ATOM     12  H   UNL     1      -6.031  11.755  20.026  0.00  0.00    +0.000 HD
ATOM     13  H   UNL     1      -7.934  12.833  24.285  0.00  0.00    +0.000 HD
ATOM     14  H   UNL     1      -6.885  13.270  25.533  0.00  0.00    +0.000 HD
ATOM     15  H   UNL     1      -4.785  14.177  24.971  0.00  0.00    +0.000 HD
ENDROOT
BRANCH   1  20
ATOM     16  C   UNL     1      -2.892  10.106  14.599  0.00  0.00    +0.000 C 
ATOM     17  C   UNL     1      -3.198  10.621  15.975  0.00  0.00    +0.000 A 
ATOM     18  C   UNL     1      -4.404  11.267  16.259  0.00  0.00    +0.000 A 
ATOM     19  C   UNL     1      -4.652  11.775  17.541  0.00  0.00    +0.000 A 
ATOM     20  C   UNL     1      -3.711  11.632  18.570  0.00  0.00    +0.000 A 
ATOM     21  C   UNL     1      -2.530  10.937  18.285  0.00  0.00    +0.000 A 
ATOM     22  C   UNL     1      -2.258  10.467  16.997  0.00  0.00    +0.000 A 
ENDBRANCH   1  20
BRANCH  11  23
ATOM     23  C   UNL     1      -1.681  13.080  20.669  0.00  0.00    +0.000 A 
ATOM     24  C   UNL     1      -0.744  12.197  21.217  0.00  0.00    +0.000 A 
ATOM     25  C   UNL     1       0.622  12.330  20.944  0.00  0.00    +0.000 A 
ATOM     26  C   UNL     1       1.080  13.328  20.082  0.00  0.00    +0.000 A 
ATOM     27  C   UNL     1       2.527  13.417  19.696  0.00  0.00    +0.000 C 
ATOM     28  C   UNL     1       0.157  14.234  19.553  0.00  0.00    +0.000 A 
ATOM     29  C   UNL     1      -1.200  14.136  19.880  0.00  0.00    +0.000 A 
ENDBRANCH  11  23
TORSDOF 2
ENDMDL
MODEL 9
REMARK VINA RESULT:      -7.2      2.694      5.842
REMARK  Name = 
REMARK  4 active torsions:
REMARK  status: ('A' for Active; 'I' for Inactive)
REMARK    1  A    between atoms: C_1  and  C_2
REMARK    2  A    between atoms: C_5  and  C_6
REMARK    3  A    between atoms: C_16  and  C_17
REMARK    4  A    between atoms: C_20  and  C_21
REMARK                            x       y       z     vdW  Elec       q    Type
REMARK                         _______ _______ _______ _____ _____    ______ ____
ROOT
ATOM      1  C   UNL     1       2.970   7.292  18.110  0.00  0.00    +0.000 A 
ATOM      2  N   UNL     1       2.877   8.617  17.717  0.00  0.00    +0.000 N 
ATOM      3  C   UNL     1       2.008   9.292  18.511  0.00  0.00    +0.000 A 
ATOM      4  N   UNL     1       1.707  10.601  18.327  0.00  0.00    +0.000 NA
ATOM      5  C   UNL     1       0.829  11.058  19.176  0.00  0.00    +0.000 A 
ATOM      6  N   UNL     1       0.423  12.352  19.109  0.00  0.00    +0.000 N 
ATOM      7  N   UNL     1       0.265  10.292  20.167  0.00  0.00    +0.000 N 
ATOM      8  C   UNL     1       0.581   8.966  20.412  0.00  0.00    +0.000 A 
ATOM      9  O   UNL     1       0.076   8.358  21.347  0.00  0.00    +0.000 OA
ATOM     10  C   UNL     1       1.530   8.424  19.461  0.00  0.00    +0.000 A 
ATOM     11  C   UNL     1       2.138   7.145  19.233  0.00  0.00    +0.000 A 
ATOM     12  H   UNL     1       3.350   9.026  16.927  0.00  0.00    +0.000 HD
ATOM     13  H   UNL     1       0.704  12.794  18.239  0.00  0.00    +0.000 HD
ATOM     14  H   UNL     1      -0.539  12.539  19.352  0.00  0.00    +0.000 HD
ATOM     15  H   UNL     1      -0.373  10.708  20.824  0.00  0.00    +0.000 HD
ENDROOT
BRANCH   1  20
ATOM     16  C   UNL     1       6.158   3.636  14.917  0.00  0.00    +0.000 C 
ATOM     17  C   UNL     1       5.355   4.565  15.778  0.00  0.00    +0.000 A 
ATOM     18  C   UNL     1       4.395   4.083  16.671  0.00  0.00    +0.000 A 
ATOM     19  C   UNL     1       3.628   4.971  17.437  0.00  0.00    +0.000 A 
ATOM     20  C   UNL     1       3.817   6.356  17.342  0.00  0.00    +0.000 A 
ATOM     21  C   UNL     1       4.819   6.824  16.483  0.00  0.00    +0.000 A 
ATOM     22  C   UNL     1       5.555   5.945  15.684  0.00  0.00    +0.000 A 
ENDBRANCH   1  20
BRANCH  11  23
ATOM     23  C   UNL     1       1.919   5.879  19.949  0.00  0.00    +0.000 A 
ATOM     24  C   UNL     1       1.030   4.919  19.450  0.00  0.00    +0.000 A 
ATOM     25  C   UNL     1       0.913   3.659  20.048  0.00  0.00    +0.000 A 
ATOM     26  C   UNL     1       1.714   3.314  21.138  0.00  0.00    +0.000 A 
ATOM     27  C   UNL     1       1.676   1.933  21.723  0.00  0.00    +0.000 C 
ATOM     28  C   UNL     1       2.583   4.274  21.665  0.00  0.00    +0.000 A 
ATOM     29  C   UNL     1       2.651   5.554  21.103  0.00  0.00    +0.000 A 
ENDBRANCH  11  23
TORSDOF 2
ENDMDL
