MODEL 1
REMARK VINA RESULT:      -7.0      0.000      0.000
REMARK  Name = 
REMARK  7 active torsions:
REMARK  status: ('A' for Active; 'I' for Inactive)
REMARK    1  A    between atoms: C_1  and  C_2
REMARK    2  A    between atoms: N_4  and  C_5
REMARK    3  A    between atoms: C_5  and  C_6
REMARK    4  A    between atoms: C_6  and  O_7
REMARK    5  A    between atoms: O_7  and  C_8
REMARK    6  A    between atoms: C_15  and  C_16
REMARK    7  A    between atoms: C_17  and  N_18
REMARK                            x       y       z     vdW  Elec       q    Type
REMARK                         _______ _______ _______ _____ _____    ______ ____
ROOT
ATOM      1  C   UNL     1       7.987   5.788  19.551  0.00  0.00    +0.000 C 
ATOM      2  C   UNL     1       6.803   5.149  18.919  0.00  0.00    +0.000 A 
ATOM      3  N   UNL     1       5.865   4.576  19.685  0.00  0.00    +0.000 NA
ATOM      4  N   UNL     1       4.952   4.093  18.816  0.00  0.00    +0.000 N 
ATOM      5  C   UNL     1       5.266   4.367  17.501  0.00  0.00    +0.000 A 
ATOM      6  C   UNL     1       4.417   3.987  16.337  0.00  0.00    +0.000 C 
ATOM      7  C   UNL     1       6.478   5.049  17.544  0.00  0.00    +0.000 A 
ENDROOT
BRANCH   7   8
ATOM      8  N   UNL     1       7.237   5.556  16.426  0.00  0.00    +0.000 N 
ATOM      9  O   UNL     1       7.646   4.734  15.592  0.00  0.00    +0.000 OA
ATOM     10  O   UNL     1       7.446   6.774  16.385  0.00  0.00    +0.000 OA
ENDBRANCH   7   8
BRANCH   4  11
ATOM     11  C   UNL     1       3.752   3.472  19.369  0.00  0.00    +0.000 C 
BRANCH  11  12
ATOM     12  C   UNL     1       2.624   4.493  19.428  0.00  0.00    +0.000 C 
BRANCH  12  13
ATOM     13  O   UNL     1       2.987   5.697  20.123  0.00  0.00    +0.000 OA
BRANCH  13  14
ATOM     14  C   UNL     1       2.558   6.857  19.511  0.00  0.00    +0.000 A 
ATOM     15  C   UNL     1       2.869   7.227  18.195  0.00  0.00    +0.000 A 
ATOM     16  C   UNL     1       2.384   8.414  17.647  0.00  0.00    +0.000 A 
ATOM     17  C   UNL     1       1.579   9.255  18.408  0.00  0.00    +0.000 A 
ATOM     18  C   UNL     1       1.269   8.899  19.719  0.00  0.00    +0.000 A 
ATOM     19 BR   UNL     1       0.173  10.053  20.745  0.00  0.00    +0.000 Br
ATOM     20  C   UNL     1       1.751   7.708  20.275  0.00  0.00    +0.000 A 
ENDBRANCH  13  14
ENDBRANCH  12  13
ENDBRANCH  11  12
ENDBRANCH   4  11
TORSDOF 5
ENDMDL
MODEL 2
REMARK VINA RESULT:      -6.8      1.003      1.044
REMARK  Name = 
REMARK  7 active torsions:
REMARK  status: ('A' for Active; 'I' for Inactive)
REMARK    1  A    between atoms: C_1  and  C_2
REMARK    2  A    between atoms: N_4  and  C_5
REMARK    3  A    between atoms: C_5  and  C_6
REMARK    4  A    between atoms: C_6  and  O_7
REMARK    5  A    between atoms: O_7  and  C_8
REMARK    6  A    between atoms: C_15  and  C_16
REMARK    7  A    between atoms: C_17  and  N_18
REMARK                            x       y       z     vdW  Elec       q    Type
REMARK                         _______ _______ _______ _____ _____    ______ ____
ROOT
ATOM      1  C   UNL     1       7.815   6.282  18.610  0.00  0.00    +0.000 C 
ATOM      2  C   UNL     1       6.700   5.343  18.321  0.00  0.00    +0.000 A 
ATOM      3  N   UNL     1       6.117   4.671  19.323  0.00  0.00    +0.000 NA
ATOM      4  N   UNL     1       5.169   3.915  18.730  0.00  0.00    +0.000 N 
ATOM      5  C   UNL     1       5.106   4.106  17.365  0.00  0.00    +0.000 A 
ATOM      6  C   UNL     1       4.128   3.433  16.466  0.00  0.00    +0.000 C 
ATOM      7  C   UNL     1       6.105   5.030  17.074  0.00  0.00    +0.000 A 
ENDROOT
BRANCH   7   8
ATOM      8  N   UNL     1       6.454   5.563  15.779  0.00  0.00    +0.000 N 
ATOM      9  O   UNL     1       7.384   5.016  15.167  0.00  0.00    +0.000 OA
ATOM     10  O   UNL     1       5.817   6.543  15.376  0.00  0.00    +0.000 OA
ENDBRANCH   7   8
BRANCH   4  11
ATOM     11  C   UNL     1       4.302   3.117  19.591  0.00  0.00    +0.000 C 
BRANCH  11  12
ATOM     12  C   UNL     1       3.298   4.022  20.293  0.00  0.00    +0.000 C 
BRANCH  12  13
ATOM     13  O   UNL     1       2.236   4.463  19.431  0.00  0.00    +0.000 OA
BRANCH  13  14
ATOM     14  C   UNL     1       2.155   5.834  19.286  0.00  0.00    +0.000 A 
ATOM     15  C   UNL     1       2.431   6.527  18.100  0.00  0.00    +0.000 A 
ATOM     16  C   UNL     1       2.313   7.916  18.033  0.00  0.00    +0.000 A 
ATOM     17  C   UNL     1       1.917   8.635  19.155  0.00  0.00    +0.000 A 
ATOM     18  C   UNL     1       1.644   7.955  20.340  0.00  0.00    +0.000 A 
ATOM     19 BR   UNL     1       1.107   8.947  21.861  0.00  0.00    +0.000 Br
ATOM     20  C   UNL     1       1.760   6.562  20.413  0.00  0.00    +0.000 A 
ENDBRANCH  13  14
ENDBRANCH  12  13
ENDBRANCH  11  12
ENDBRANCH   4  11
TORSDOF 5
ENDMDL
MODEL 3
REMARK VINA RESULT:      -6.6      3.304      4.624
REMARK  Name = 
REMARK  7 active torsions:
REMARK  status: ('A' for Active; 'I' for Inactive)
REMARK    1  A    between atoms: C_1  and  C_2
REMARK    2  A    between atoms: N_4  and  C_5
REMARK    3  A    between atoms: C_5  and  C_6
REMARK    4  A    between atoms: C_6  and  O_7
REMARK    5  A    between atoms: O_7  and  C_8
REMARK    6  A    between atoms: C_15  and  C_16
REMARK    7  A    between atoms: C_17  and  N_18
REMARK                            x       y       z     vdW  Elec       q    Type
REMARK                         _______ _______ _______ _____ _____    ______ ____
ROOT
ATOM      1  C   UNL     1       8.027   5.627  12.285  0.00  0.00    +0.000 C 
ATOM      2  C   UNL     1       7.379   5.082  13.507  0.00  0.00    +0.000 A 
ATOM      3  N   UNL     1       7.726   5.553  14.713  0.00  0.00    +0.000 NA
ATOM      4  N   UNL     1       6.975   4.854  15.589  0.00  0.00    +0.000 N 
ATOM      5  C   UNL     1       6.125   3.958  14.973  0.00  0.00    +0.000 A 
ATOM      6  C   UNL     1       5.156   3.086  15.692  0.00  0.00    +0.000 C 
ATOM      7  C   UNL     1       6.380   4.084  13.611  0.00  0.00    +0.000 A 
ENDROOT
BRANCH   7   8
ATOM      8  N   UNL     1       5.751   3.359  12.532  0.00  0.00    +0.000 N 
ATOM      9  O   UNL     1       4.572   3.635  12.269  0.00  0.00    +0.000 OA
ATOM     10  O   UNL     1       6.426   2.497  11.956  0.00  0.00    +0.000 OA
ENDBRANCH   7   8
BRANCH   4  11
ATOM     11  C   UNL     1       7.078   5.205  17.002  0.00  0.00    +0.000 C 
BRANCH  11  12
ATOM     12  C   UNL     1       5.850   6.000  17.426  0.00  0.00    +0.000 C 
BRANCH  12  13
ATOM     13  O   UNL     1       5.371   5.644  18.733  0.00  0.00    +0.000 OA
BRANCH  13  14
ATOM     14  C   UNL     1       4.094   5.122  18.748  0.00  0.00    +0.000 A 
ATOM     15  C   UNL     1       3.176   5.231  17.694  0.00  0.00    +0.000 A 
ATOM     16  C   UNL     1       1.905   4.663  17.784  0.00  0.00    +0.000 A 
ATOM     17  C   UNL     1       1.530   3.975  18.932  0.00  0.00    +0.000 A 
ATOM     18  C   UNL     1       2.433   3.864  19.988  0.00  0.00    +0.000 A 
ATOM     19 BR   UNL     1       1.910   2.926  21.547  0.00  0.00    +0.000 Br
ATOM     20  C   UNL     1       3.710   4.432  19.903  0.00  0.00    +0.000 A 
ENDBRANCH  13  14
ENDBRANCH  12  13
ENDBRANCH  11  12
ENDBRANCH   4  11
TORSDOF 5
ENDMDL
MODEL 4
REMARK VINA RESULT:      -6.5      3.832      6.502
REMARK  Name = 
REMARK  7 active torsions:
REMARK  status: ('A' for Active; 'I' for Inactive)
REMARK    1  A    between atoms: C_1  and  C_2
REMARK    2  A    between atoms: N_4  and  C_5
REMARK    3  A    between atoms: C_5  and  C_6
REMARK    4  A    between atoms: C_6  and  O_7
REMARK    5  A    between atoms: O_7  and  C_8
REMARK    6  A    between atoms: C_15  and  C_16
REMARK    7  A    between atoms: C_17  and  N_18
REMARK                            x       y       z     vdW  Elec       q    Type
REMARK                         _______ _______ _______ _____ _____    ______ ____
ROOT
ATOM      1  C   UNL     1       3.845   1.904  19.499  0.00  0.00    +0.000 C 
ATOM      2  C   UNL     1       4.091   3.303  19.059  0.00  0.00    +0.000 A 
ATOM      3  N   UNL     1       5.343   3.778  19.015  0.00  0.00    +0.000 NA
ATOM      4  N   UNL     1       5.216   5.054  18.593  0.00  0.00    +0.000 N 
ATOM      5  C   UNL     1       3.908   5.406  18.334  0.00  0.00    +0.000 A 
ATOM      6  C   UNL     1       3.482   6.737  17.820  0.00  0.00    +0.000 C 
ATOM      7  C   UNL     1       3.153   4.279  18.643  0.00  0.00    +0.000 A 
ENDROOT
BRANCH   7   8
ATOM      8  N   UNL     1       1.720   4.132  18.547  0.00  0.00    +0.000 N 
ATOM      9  O   UNL     1       1.229   4.051  17.411  0.00  0.00    +0.000 OA
ATOM     10  O   UNL     1       1.077   4.117  19.603  0.00  0.00    +0.000 OA
ENDBRANCH   7   8
BRANCH   4  11
ATOM     11  C   UNL     1       6.440   5.818  18.369  0.00  0.00    +0.000 C 
BRANCH  11  12
ATOM     12  C   UNL     1       6.990   5.515  16.981  0.00  0.00    +0.000 C 
BRANCH  12  13
ATOM     13  O   UNL     1       6.086   4.747  16.170  0.00  0.00    +0.000 OA
BRANCH  13  14
ATOM     14  C   UNL     1       6.450   4.657  14.842  0.00  0.00    +0.000 A 
ATOM     15  C   UNL     1       7.587   5.258  14.285  0.00  0.00    +0.000 A 
ATOM     16  C   UNL     1       7.892   5.108  12.932  0.00  0.00    +0.000 A 
ATOM     17  C   UNL     1       7.062   4.353  12.112  0.00  0.00    +0.000 A 
ATOM     18  C   UNL     1       5.926   3.755  12.654  0.00  0.00    +0.000 A 
ATOM     19 BR   UNL     1       4.803   2.731  11.526  0.00  0.00    +0.000 Br
ATOM     20  C   UNL     1       5.616   3.901  14.011  0.00  0.00    +0.000 A 
ENDBRANCH  13  14
ENDBRANCH  12  13
ENDBRANCH  11  12
ENDBRANCH   4  11
TORSDOF 5
ENDMDL
MODEL 5
REMARK VINA RESULT:      -6.4      2.836      4.058
REMARK  Name = 
REMARK  7 active torsions:
REMARK  status: ('A' for Active; 'I' for Inactive)
REMARK    1  A    between atoms: C_1  and  C_2
REMARK    2  A    between atoms: N_4  and  C_5
REMARK    3  A    between atoms: C_5  and  C_6
REMARK    4  A    between atoms: C_6  and  O_7
REMARK    5  A    between atoms: O_7  and  C_8
REMARK    6  A    between atoms: C_15  and  C_16
REMARK    7  A    between atoms: C_17  and  N_18
REMARK                            x       y       z     vdW  Elec       q    Type
REMARK                         _______ _______ _______ _____ _____    ______ ____
ROOT
ATOM      1  C   UNL     1       7.537   7.940  17.441  0.00  0.00    +0.000 C 
ATOM      2  C   UNL     1       6.377   7.027  17.262  0.00  0.00    +0.000 A 
ATOM      3  N   UNL     1       5.165   7.393  17.701  0.00  0.00    +0.000 NA
ATOM      4  N   UNL     1       4.357   6.356  17.397  0.00  0.00    +0.000 N 
ATOM      5  C   UNL     1       5.015   5.336  16.743  0.00  0.00    +0.000 A 
ATOM      6  C   UNL     1       4.362   4.090  16.255  0.00  0.00    +0.000 C 
ATOM      7  C   UNL     1       6.341   5.749  16.652  0.00  0.00    +0.000 A 
ENDROOT
BRANCH   7   8
ATOM      8  N   UNL     1       7.442   5.033  16.054  0.00  0.00    +0.000 N 
ATOM      9  O   UNL     1       7.694   5.264  14.862  0.00  0.00    +0.000 OA
ATOM     10  O   UNL     1       8.047   4.221  16.764  0.00  0.00    +0.000 OA
ENDBRANCH   7   8
BRANCH   4  11
ATOM     11  C   UNL     1       2.933   6.498  17.689  0.00  0.00    +0.000 C 
BRANCH  11  12
ATOM     12  C   UNL     1       2.748   7.040  19.100  0.00  0.00    +0.000 C 
BRANCH  12  13
ATOM     13  O   UNL     1       3.174   6.121  20.119  0.00  0.00    +0.000 OA
BRANCH  13  14
ATOM     14  C   UNL     1       2.572   4.880  20.052  0.00  0.00    +0.000 A 
ATOM     15  C   UNL     1       1.255   4.611  20.447  0.00  0.00    +0.000 A 
ATOM     16  C   UNL     1       0.716   3.329  20.336  0.00  0.00    +0.000 A 
ATOM     17  C   UNL     1       1.490   2.291  19.828  0.00  0.00    +0.000 A 
ATOM     18  C   UNL     1       2.803   2.547  19.438  0.00  0.00    +0.000 A 
ATOM     19 BR   UNL     1       3.846   1.125  18.749  0.00  0.00    +0.000 Br
ATOM     20  C   UNL     1       3.348   3.832  19.546  0.00  0.00    +0.000 A 
ENDBRANCH  13  14
ENDBRANCH  12  13
ENDBRANCH  11  12
ENDBRANCH   4  11
TORSDOF 5
ENDMDL
MODEL 6
REMARK VINA RESULT:      -6.3      2.893      5.847
REMARK  Name = 
REMARK  7 active torsions:
REMARK  status: ('A' for Active; 'I' for Inactive)
REMARK    1  A    between atoms: C_1  and  C_2
REMARK    2  A    between atoms: N_4  and  C_5
REMARK    3  A    between atoms: C_5  and  C_6
REMARK    4  A    between atoms: C_6  and  O_7
REMARK    5  A    between atoms: O_7  and  C_8
REMARK    6  A    between atoms: C_15  and  C_16
REMARK    7  A    between atoms: C_17  and  N_18
REMARK                            x       y       z     vdW  Elec       q    Type
REMARK                         _______ _______ _______ _____ _____    ______ ____
ROOT
ATOM      1  C   UNL     1       3.578   1.325  18.594  0.00  0.00    +0.000 C 
ATOM      2  C   UNL     1       3.429   2.804  18.638  0.00  0.00    +0.000 A 
ATOM      3  N   UNL     1       4.002   3.561  17.693  0.00  0.00    +0.000 NA
ATOM      4  N   UNL     1       3.687   4.830  18.026  0.00  0.00    +0.000 N 
ATOM      5  C   UNL     1       2.895   4.910  19.152  0.00  0.00    +0.000 A 
ATOM      6  C   UNL     1       2.367   6.181  19.721  0.00  0.00    +0.000 C 
ATOM      7  C   UNL     1       2.722   3.596  19.576  0.00  0.00    +0.000 A 
ENDROOT
BRANCH   7   8
ATOM      8  N   UNL     1       1.971   3.137  20.720  0.00  0.00    +0.000 N 
ATOM      9  O   UNL     1       0.776   2.859  20.546  0.00  0.00    +0.000 OA
ATOM     10  O   UNL     1       2.566   3.072  21.802  0.00  0.00    +0.000 OA
ENDBRANCH   7   8
BRANCH   4  11
ATOM     11  C   UNL     1       4.115   5.894  17.122  0.00  0.00    +0.000 C 
BRANCH  11  12
ATOM     12  C   UNL     1       5.023   5.319  16.042  0.00  0.00    +0.000 C 
BRANCH  12  13
ATOM     13  O   UNL     1       6.199   6.112  15.812  0.00  0.00    +0.000 OA
BRANCH  13  14
ATOM     14  C   UNL     1       6.936   6.378  16.948  0.00  0.00    +0.000 A 
ATOM     15  C   UNL     1       7.255   5.431  17.931  0.00  0.00    +0.000 A 
ATOM     16  C   UNL     1       8.017   5.779  19.046  0.00  0.00    +0.000 A 
ATOM     17  C   UNL     1       8.472   7.084  19.199  0.00  0.00    +0.000 A 
ATOM     18  C   UNL     1       8.156   8.034  18.229  0.00  0.00    +0.000 A 
ATOM     19 BR   UNL     1       8.781   9.808  18.449  0.00  0.00    +0.000 Br
ATOM     20  C   UNL     1       7.393   7.691  17.107  0.00  0.00    +0.000 A 
ENDBRANCH  13  14
ENDBRANCH  12  13
ENDBRANCH  11  12
ENDBRANCH   4  11
TORSDOF 5
ENDMDL
MODEL 7
REMARK VINA RESULT:      -6.3      4.172      6.783
REMARK  Name = 
REMARK  7 active torsions:
REMARK  status: ('A' for Active; 'I' for Inactive)
REMARK    1  A    between atoms: C_1  and  C_2
REMARK    2  A    between atoms: N_4  and  C_5
REMARK    3  A    between atoms: C_5  and  C_6
REMARK    4  A    between atoms: C_6  and  O_7
REMARK    5  A    between atoms: O_7  and  C_8
REMARK    6  A    between atoms: C_15  and  C_16
REMARK    7  A    between atoms: C_17  and  N_18
REMARK                            x       y       z     vdW  Elec       q    Type
REMARK                         _______ _______ _______ _____ _____    ______ ____
ROOT
ATOM      1  C   UNL     1       1.823   2.377  18.195  0.00  0.00    +0.000 C 
ATOM      2  C   UNL     1       2.916   3.376  18.319  0.00  0.00    +0.000 A 
ATOM      3  N   UNL     1       2.976   4.409  17.467  0.00  0.00    +0.000 NA
ATOM      4  N   UNL     1       4.070   5.105  17.841  0.00  0.00    +0.000 N 
ATOM      5  C   UNL     1       4.705   4.560  18.937  0.00  0.00    +0.000 A 
ATOM      6  C   UNL     1       5.912   5.143  19.586  0.00  0.00    +0.000 C 
ATOM      7  C   UNL     1       3.973   3.422  19.261  0.00  0.00    +0.000 A 
ENDROOT
BRANCH   7   8
ATOM      8  N   UNL     1       4.229   2.492  20.335  0.00  0.00    +0.000 N 
ATOM      9  O   UNL     1       3.481   2.540  21.322  0.00  0.00    +0.000 OA
ATOM     10  O   UNL     1       5.190   1.725  20.207  0.00  0.00    +0.000 OA
ENDBRANCH   7   8
BRANCH   4  11
ATOM     11  C   UNL     1       4.356   6.350  17.134  0.00  0.00    +0.000 C 
BRANCH  11  12
ATOM     12  C   UNL     1       5.554   6.158  16.214  0.00  0.00    +0.000 C 
BRANCH  12  13
ATOM     13  O   UNL     1       5.745   4.791  15.814  0.00  0.00    +0.000 OA
BRANCH  13  14
ATOM     14  C   UNL     1       6.291   4.639  14.555  0.00  0.00    +0.000 A 
ATOM     15  C   UNL     1       7.375   5.377  14.062  0.00  0.00    +0.000 A 
ATOM     16  C   UNL     1       7.876   5.152  12.779  0.00  0.00    +0.000 A 
ATOM     17  C   UNL     1       7.297   4.184  11.966  0.00  0.00    +0.000 A 
ATOM     18  C   UNL     1       6.215   3.449  12.445  0.00  0.00    +0.000 A 
ATOM     19 BR   UNL     1       5.434   2.135  11.328  0.00  0.00    +0.000 Br
ATOM     20  C   UNL     1       5.709   3.668  13.732  0.00  0.00    +0.000 A 
ENDBRANCH  13  14
ENDBRANCH  12  13
ENDBRANCH  11  12
ENDBRANCH   4  11
TORSDOF 5
ENDMDL
MODEL 8
REMARK VINA RESULT:      -6.3      1.574      2.280
REMARK  Name = 
REMARK  7 active torsions:
REMARK  status: ('A' for Active; 'I' for Inactive)
REMARK    1  A    between atoms: C_1  and  C_2
REMARK    2  A    between atoms: N_4  and  C_5
REMARK    3  A    between atoms: C_5  and  C_6
REMARK    4  A    between atoms: C_6  and  O_7
REMARK    5  A    between atoms: O_7  and  C_8
REMARK    6  A    between atoms: C_15  and  C_16
REMARK    7  A    between atoms: C_17  and  N_18
REMARK                            x       y       z     vdW  Elec       q    Type
REMARK                         _______ _______ _______ _____ _____    ______ ____
ROOT
ATOM      1  C   UNL     1       7.109   5.550  19.647  0.00  0.00    +0.000 C 
ATOM      2  C   UNL     1       6.300   4.869  18.603  0.00  0.00    +0.000 A 
ATOM      3  N   UNL     1       5.533   3.820  18.931  0.00  0.00    +0.000 NA
ATOM      4  N   UNL     1       4.951   3.438  17.775  0.00  0.00    +0.000 N 
ATOM      5  C   UNL     1       5.303   4.237  16.707  0.00  0.00    +0.000 A 
ATOM      6  C   UNL     1       4.780   4.069  15.323  0.00  0.00    +0.000 C 
ATOM      7  C   UNL     1       6.193   5.174  17.224  0.00  0.00    +0.000 A 
ENDROOT
BRANCH   7   8
ATOM      8  N   UNL     1       6.857   6.238  16.509  0.00  0.00    +0.000 N 
ATOM      9  O   UNL     1       6.525   7.401  16.779  0.00  0.00    +0.000 OA
ATOM     10  O   UNL     1       7.696   5.916  15.660  0.00  0.00    +0.000 OA
ENDBRANCH   7   8
BRANCH   4  11
ATOM     11  C   UNL     1       3.983   2.347  17.832  0.00  0.00    +0.000 C 
BRANCH  11  12
ATOM     12  C   UNL     1       2.947   2.633  18.911  0.00  0.00    +0.000 C 
BRANCH  12  13
ATOM     13  O   UNL     1       1.899   3.511  18.469  0.00  0.00    +0.000 OA
BRANCH  13  14
ATOM     14  C   UNL     1       1.903   4.751  19.076  0.00  0.00    +0.000 A 
ATOM     15  C   UNL     1       1.611   4.977  20.428  0.00  0.00    +0.000 A 
ATOM     16  C   UNL     1       1.649   6.262  20.969  0.00  0.00    +0.000 A 
ATOM     17  C   UNL     1       1.978   7.346  20.163  0.00  0.00    +0.000 A 
ATOM     18  C   UNL     1       2.265   7.133  18.815  0.00  0.00    +0.000 A 
ATOM     19 BR   UNL     1       2.711   8.617  17.728  0.00  0.00    +0.000 Br
ATOM     20  C   UNL     1       2.230   5.845  18.268  0.00  0.00    +0.000 A 
ENDBRANCH  13  14
ENDBRANCH  12  13
ENDBRANCH  11  12
ENDBRANCH   4  11
TORSDOF 5
ENDMDL
MODEL 9
REMARK VINA RESULT:      -6.3      2.498      3.949
REMARK  Name = 
REMARK  7 active torsions:
REMARK  status: ('A' for Active; 'I' for Inactive)
REMARK    1  A    between atoms: C_1  and  C_2
REMARK    2  A    between atoms: N_4  and  C_5
REMARK    3  A    between atoms: C_5  and  C_6
REMARK    4  A    between atoms: C_6  and  O_7
REMARK    5  A    between atoms: O_7  and  C_8
REMARK    6  A    between atoms: C_15  and  C_16
REMARK    7  A    between atoms: C_17  and  N_18
REMARK                            x       y       z     vdW  Elec       q    Type
REMARK                         _______ _______ _______ _____ _____    ______ ____
ROOT
ATOM      1  C   UNL     1       1.465   2.320  18.765  0.00  0.00    +0.000 C 
ATOM      2  C   UNL     1       2.636   3.230  18.658  0.00  0.00    +0.000 A 
ATOM      3  N   UNL     1       2.658   4.180  17.713  0.00  0.00    +0.000 NA
ATOM      4  N   UNL     1       3.839   4.811  17.881  0.00  0.00    +0.000 N 
ATOM      5  C   UNL     1       4.572   4.307  18.935  0.00  0.00    +0.000 A 
ATOM      6  C   UNL     1       5.893   4.838  19.372  0.00  0.00    +0.000 C 
ATOM      7  C   UNL     1       3.808   3.265  19.452  0.00  0.00    +0.000 A 
ENDROOT
BRANCH   7   8
ATOM      8  N   UNL     1       4.135   2.409  20.568  0.00  0.00    +0.000 N 
ATOM      9  O   UNL     1       5.140   1.692  20.463  0.00  0.00    +0.000 OA
ATOM     10  O   UNL     1       3.377   2.434  21.545  0.00  0.00    +0.000 OA
ENDBRANCH   7   8
BRANCH   4  11
ATOM     11  C   UNL     1       4.119   5.964  17.031  0.00  0.00    +0.000 C 
BRANCH  11  12
ATOM     12  C   UNL     1       3.693   7.243  17.741  0.00  0.00    +0.000 C 
BRANCH  12  13
ATOM     13  O   UNL     1       2.689   7.023  18.744  0.00  0.00    +0.000 OA
BRANCH  13  14
ATOM     14  C   UNL     1       1.973   8.153  19.088  0.00  0.00    +0.000 A 
ATOM     15  C   UNL     1       1.659   9.196  18.207  0.00  0.00    +0.000 A 
ATOM     16  C   UNL     1       0.920  10.300  18.632  0.00  0.00    +0.000 A 
ATOM     17  C   UNL     1       0.482  10.380  19.949  0.00  0.00    +0.000 A 
ATOM     18  C   UNL     1       0.794   9.350  20.835  0.00  0.00    +0.000 A 
ATOM     19 BR   UNL     1       0.194   9.470  22.626  0.00  0.00    +0.000 Br
ATOM     20  C   UNL     1       1.534   8.239  20.414  0.00  0.00    +0.000 A 
ENDBRANCH  13  14
ENDBRANCH  12  13
ENDBRANCH  11  12
ENDBRANCH   4  11
TORSDOF 5
ENDMDL
