MODEL 1
REMARK VINA RESULT:      -8.5      0.000      0.000
REMARK  Name = 
REMARK  9 active torsions:
REMARK  status: ('A' for Active; 'I' for Inactive)
REMARK    1  A    between atoms: C_1  and  C_2
REMARK    2  A    between atoms: C_2  and  C_3
REMARK    3  A    between atoms: C_3  and  N_4
REMARK    4  A    between atoms: C_9  and  C_10
REMARK    5  A    between atoms: N_13  and  C_14
REMARK    6  A    between atoms: C_14  and  C_15
REMARK    7  A    between atoms: N_26  and  C_27
REMARK    8  A    between atoms: C_27  and  C_28
REMARK    9  A    between atoms: C_28  and  C_29
REMARK                            x       y       z     vdW  Elec       q    Type
REMARK                         _______ _______ _______ _____ _____    ______ ____
ROOT
ATOM      1  N   UNL     1       5.068   5.176  17.422  0.00  0.00    +0.000 N 
ATOM      2  C   UNL     1       4.783   6.460  16.919  0.00  0.00    +0.000 A 
ATOM      3  O   UNL     1       5.360   6.971  15.962  0.00  0.00    +0.000 OA
ATOM      4  C   UNL     1       3.743   7.141  17.656  0.00  0.00    +0.000 A 
ATOM      5  N   UNL     1       3.175   8.367  17.415  0.00  0.00    +0.000 NA
ATOM      6  C   UNL     1       2.297   8.544  18.385  0.00  0.00    +0.000 A 
ATOM      7  N   UNL     1       2.280   7.463  19.236  0.00  0.00    +0.000 N 
ATOM      8  C   UNL     1       3.188   6.560  18.762  0.00  0.00    +0.000 A 
ATOM      9  N   UNL     1       3.521   5.323  19.270  0.00  0.00    +0.000 N 
ATOM     10  C   UNL     1       4.525   4.600  18.591  0.00  0.00    +0.000 A 
ATOM     11  O   UNL     1       4.908   3.505  19.008  0.00  0.00    +0.000 OA
ATOM     12  H   UNL     1       1.686   7.361  20.044  0.00  0.00    +0.000 HD
ENDROOT
BRANCH   6  13
ATOM     13  C   UNL     1       1.437   9.744  18.510  0.00  0.00    +0.000 A 
ATOM     14  C   UNL     1       1.756  11.110  18.427  0.00  0.00    +0.000 A 
ATOM     15  N   UNL     1       0.695  11.895  18.645  0.00  0.00    +0.000 NA
ATOM     16  N   UNL     1      -0.313  11.016  18.860  0.00  0.00    +0.000 N 
ATOM     17  C   UNL     1       0.088   9.714  18.771  0.00  0.00    +0.000 A 
BRANCH  16  18
ATOM     18  C   UNL     1      -1.629  11.497  19.267  0.00  0.00    +0.000 C 
BRANCH  18  19
ATOM     19  C   UNL     1      -2.628  11.426  18.139  0.00  0.00    +0.000 A 
ATOM     20  C   UNL     1      -2.196  10.969  16.880  0.00  0.00    +0.000 A 
ATOM     21  C   UNL     1      -3.096  10.856  15.822  0.00  0.00    +0.000 A 
ATOM     22  F   UNL     1      -2.662  10.430  14.630  0.00  0.00    +0.000 F 
ATOM     23  C   UNL     1      -4.435  11.177  15.988  0.00  0.00    +0.000 A 
ATOM     24  C   UNL     1      -4.880  11.636  17.227  0.00  0.00    +0.000 A 
ATOM     25  C   UNL     1      -3.983  11.767  18.294  0.00  0.00    +0.000 A 
ATOM     26 CL   UNL     1      -4.610  12.390  19.777  0.00  0.00    +0.000 Cl
ENDBRANCH  18  19
ENDBRANCH  16  18
ENDBRANCH   6  13
BRANCH   1  27
ATOM     27  C   UNL     1       6.090   4.402  16.717  0.00  0.00    +0.000 C 
BRANCH  27  29
ATOM     28  C   UNL     1       6.208   4.019  14.194  0.00  0.00    +0.000 C 
ATOM     29  C   UNL     1       5.553   3.623  15.508  0.00  0.00    +0.000 C 
ENDBRANCH  27  29
ENDBRANCH   1  27
BRANCH   9  30
ATOM     30  C   UNL     1       2.905   4.729  20.455  0.00  0.00    +0.000 C 
BRANCH  30  31
ATOM     31  C   UNL     1       1.527   4.108  20.197  0.00  0.00    +0.000 C 
ATOM     32  C   UNL     1       1.188   2.950  21.122  0.00  0.00    +0.000 C 
ENDBRANCH  30  31
ENDBRANCH   9  30
TORSDOF 7
ENDMDL
MODEL 2
REMARK VINA RESULT:      -8.5      0.897      1.074
REMARK  Name = 
REMARK  9 active torsions:
REMARK  status: ('A' for Active; 'I' for Inactive)
REMARK    1  A    between atoms: C_1  and  C_2
REMARK    2  A    between atoms: C_2  and  C_3
REMARK    3  A    between atoms: C_3  and  N_4
REMARK    4  A    between atoms: C_9  and  C_10
REMARK    5  A    between atoms: N_13  and  C_14
REMARK    6  A    between atoms: C_14  and  C_15
REMARK    7  A    between atoms: N_26  and  C_27
REMARK    8  A    between atoms: C_27  and  C_28
REMARK    9  A    between atoms: C_28  and  C_29
REMARK                            x       y       z     vdW  Elec       q    Type
REMARK                         _______ _______ _______ _____ _____    ______ ____
ROOT
ATOM      1  N   UNL     1       4.749   5.018  17.710  0.00  0.00    +0.000 N 
ATOM      2  C   UNL     1       4.429   6.344  17.358  0.00  0.00    +0.000 A 
ATOM      3  O   UNL     1       4.975   6.968  16.452  0.00  0.00    +0.000 OA
ATOM      4  C   UNL     1       3.395   6.918  18.189  0.00  0.00    +0.000 A 
ATOM      5  N   UNL     1       2.799   8.151  18.096  0.00  0.00    +0.000 NA
ATOM      6  C   UNL     1       1.941   8.203  19.098  0.00  0.00    +0.000 A 
ATOM      7  N   UNL     1       1.963   7.034  19.824  0.00  0.00    +0.000 N 
ATOM      8  C   UNL     1       2.876   6.207  19.234  0.00  0.00    +0.000 A 
ATOM      9  N   UNL     1       3.242   4.929  19.595  0.00  0.00    +0.000 N 
ATOM     10  C   UNL     1       4.243   4.306  18.819  0.00  0.00    +0.000 A 
ATOM     11  O   UNL     1       4.655   3.179  19.105  0.00  0.00    +0.000 OA
ATOM     12  H   UNL     1       1.390   6.832  20.629  0.00  0.00    +0.000 HD
ENDROOT
BRANCH   6  13
ATOM     13  C   UNL     1       1.063   9.363  19.373  0.00  0.00    +0.000 A 
ATOM     14  C   UNL     1       0.383   9.738  20.544  0.00  0.00    +0.000 A 
ATOM     15  N   UNL     1      -0.354  10.842  20.375  0.00  0.00    +0.000 NA
ATOM     16  N   UNL     1      -0.132  11.177  19.081  0.00  0.00    +0.000 N 
ATOM     17  C   UNL     1       0.727  10.324  18.449  0.00  0.00    +0.000 A 
BRANCH  16  18
ATOM     18  C   UNL     1      -0.877  12.275  18.472  0.00  0.00    +0.000 C 
BRANCH  18  19
ATOM     19  C   UNL     1      -2.270  11.855  18.073  0.00  0.00    +0.000 A 
ATOM     20  C   UNL     1      -2.460  11.233  16.825  0.00  0.00    +0.000 A 
ATOM     21  C   UNL     1      -3.725  10.801  16.436  0.00  0.00    +0.000 A 
ATOM     22  F   UNL     1      -3.885  10.221  15.240  0.00  0.00    +0.000 F 
ATOM     23  C   UNL     1      -4.821  10.960  17.270  0.00  0.00    +0.000 A 
ATOM     24  C   UNL     1      -4.654  11.578  18.508  0.00  0.00    +0.000 A 
ATOM     25  C   UNL     1      -3.390  12.030  18.906  0.00  0.00    +0.000 A 
ATOM     26 CL   UNL     1      -3.283  12.829  20.432  0.00  0.00    +0.000 Cl
ENDBRANCH  18  19
ENDBRANCH  16  18
ENDBRANCH   6  13
BRANCH   1  27
ATOM     27  C   UNL     1       5.767   4.347  16.903  0.00  0.00    +0.000 C 
BRANCH  27  29
ATOM     28  C   UNL     1       6.317   4.000  14.433  0.00  0.00    +0.000 C 
ATOM     29  C   UNL     1       5.266   3.892  15.526  0.00  0.00    +0.000 C 
ENDBRANCH  27  29
ENDBRANCH   1  27
BRANCH   9  30
ATOM     30  C   UNL     1       2.665   4.195  20.720  0.00  0.00    +0.000 C 
BRANCH  30  31
ATOM     31  C   UNL     1       1.184   3.840  20.539  0.00  0.00    +0.000 C 
ATOM     32  C   UNL     1       0.923   2.828  19.435  0.00  0.00    +0.000 C 
ENDBRANCH  30  31
ENDBRANCH   9  30
TORSDOF 7
ENDMDL
MODEL 3
REMARK VINA RESULT:      -8.2      4.627      9.482
REMARK  Name = 
REMARK  9 active torsions:
REMARK  status: ('A' for Active; 'I' for Inactive)
REMARK    1  A    between atoms: C_1  and  C_2
REMARK    2  A    between atoms: C_2  and  C_3
REMARK    3  A    between atoms: C_3  and  N_4
REMARK    4  A    between atoms: C_9  and  C_10
REMARK    5  A    between atoms: N_13  and  C_14
REMARK    6  A    between atoms: C_14  and  C_15
REMARK    7  A    between atoms: N_26  and  C_27
REMARK    8  A    between atoms: C_27  and  C_28
REMARK    9  A    between atoms: C_28  and  C_29
REMARK                            x       y       z     vdW  Elec       q    Type
REMARK                         _______ _______ _______ _____ _____    ______ ____
ROOT
ATOM      1  N   UNL     1      -1.858  11.973  21.916  0.00  0.00    +0.000 N 
ATOM      2  C   UNL     1      -0.813  11.086  22.237  0.00  0.00    +0.000 A 
ATOM      3  O   UNL     1      -0.415  10.874  23.379  0.00  0.00    +0.000 OA
ATOM      4  C   UNL     1      -0.229  10.452  21.077  0.00  0.00    +0.000 A 
ATOM      5  N   UNL     1       0.758   9.499  21.018  0.00  0.00    +0.000 NA
ATOM      6  C   UNL     1       0.950   9.271  19.732  0.00  0.00    +0.000 A 
ATOM      7  N   UNL     1       0.108  10.044  18.966  0.00  0.00    +0.000 N 
ATOM      8  C   UNL     1      -0.657  10.782  19.822  0.00  0.00    +0.000 A 
ATOM      9  N   UNL     1      -1.646  11.695  19.527  0.00  0.00    +0.000 N 
ATOM     10  C   UNL     1      -2.264  12.346  20.616  0.00  0.00    +0.000 A 
ATOM     11  O   UNL     1      -3.128  13.206  20.432  0.00  0.00    +0.000 OA
ATOM     12  H   UNL     1       0.061  10.038  17.958  0.00  0.00    +0.000 HD
ENDROOT
BRANCH   6  13
ATOM     13  C   UNL     1       1.929   8.293  19.206  0.00  0.00    +0.000 A 
ATOM     14  C   UNL     1       2.498   8.167  17.927  0.00  0.00    +0.000 A 
ATOM     15  N   UNL     1       3.316   7.112  17.835  0.00  0.00    +0.000 NA
ATOM     16  N   UNL     1       3.272   6.566  19.074  0.00  0.00    +0.000 N 
ATOM     17  C   UNL     1       2.463   7.255  19.932  0.00  0.00    +0.000 A 
BRANCH  16  18
ATOM     18  C   UNL     1       3.946   5.299  19.339  0.00  0.00    +0.000 C 
BRANCH  18  19
ATOM     19  C   UNL     1       2.969   4.155  19.452  0.00  0.00    +0.000 A 
ATOM     20  C   UNL     1       2.376   3.892  20.701  0.00  0.00    +0.000 A 
ATOM     21  C   UNL     1       1.443   2.866  20.838  0.00  0.00    +0.000 A 
ATOM     22  F   UNL     1       0.898   2.626  22.037  0.00  0.00    +0.000 F 
ATOM     23  C   UNL     1       1.069   2.092  19.750  0.00  0.00    +0.000 A 
ATOM     24  C   UNL     1       1.650   2.335  18.506  0.00  0.00    +0.000 A 
ATOM     25  C   UNL     1       2.599   3.354  18.358  0.00  0.00    +0.000 A 
ATOM     26 CL   UNL     1       3.304   3.552  16.795  0.00  0.00    +0.000 Cl
ENDBRANCH  18  19
ENDBRANCH  16  18
ENDBRANCH   6  13
BRANCH   1  27
ATOM     27  C   UNL     1      -2.527  12.639  23.033  0.00  0.00    +0.000 C 
BRANCH  27  29
ATOM     28  C   UNL     1      -2.587  14.682  24.566  0.00  0.00    +0.000 C 
ATOM     29  C   UNL     1      -1.797  13.893  23.534  0.00  0.00    +0.000 C 
ENDBRANCH  27  29
ENDBRANCH   1  27
BRANCH   9  30
ATOM     30  C   UNL     1      -2.082  12.025  18.170  0.00  0.00    +0.000 C 
BRANCH  30  31
ATOM     31  C   UNL     1      -3.091  11.033  17.581  0.00  0.00    +0.000 C 
ATOM     32  C   UNL     1      -2.551  10.224  16.412  0.00  0.00    +0.000 C 
ENDBRANCH  30  31
ENDBRANCH   9  30
TORSDOF 7
ENDMDL
MODEL 4
REMARK VINA RESULT:      -8.1      4.482      9.482
REMARK  Name = 
REMARK  9 active torsions:
REMARK  status: ('A' for Active; 'I' for Inactive)
REMARK    1  A    between atoms: C_1  and  C_2
REMARK    2  A    between atoms: C_2  and  C_3
REMARK    3  A    between atoms: C_3  and  N_4
REMARK    4  A    between atoms: C_9  and  C_10
REMARK    5  A    between atoms: N_13  and  C_14
REMARK    6  A    between atoms: C_14  and  C_15
REMARK    7  A    between atoms: N_26  and  C_27
REMARK    8  A    between atoms: C_27  and  C_28
REMARK    9  A    between atoms: C_28  and  C_29
REMARK                            x       y       z     vdW  Elec       q    Type
REMARK                         _______ _______ _______ _____ _____    ______ ____
ROOT
ATOM      1  N   UNL     1      -0.500  11.194  21.821  0.00  0.00    +0.000 N 
ATOM      2  C   UNL     1       0.162  10.120  22.445  0.00  0.00    +0.000 A 
ATOM      3  O   UNL     1       0.346  10.032  23.656  0.00  0.00    +0.000 OA
ATOM      4  C   UNL     1       0.632   9.122  21.511  0.00  0.00    +0.000 A 
ATOM      5  N   UNL     1       1.259   7.928  21.765  0.00  0.00    +0.000 NA
ATOM      6  C   UNL     1       1.504   7.400  20.580  0.00  0.00    +0.000 A 
ATOM      7  N   UNL     1       1.043   8.218  19.574  0.00  0.00    +0.000 N 
ATOM      8  C   UNL     1       0.470   9.306  20.166  0.00  0.00    +0.000 A 
ATOM      9  N   UNL     1      -0.134  10.393  19.573  0.00  0.00    +0.000 N 
ATOM     10  C   UNL     1      -0.623  11.402  20.430  0.00  0.00    +0.000 A 
ATOM     11  O   UNL     1      -1.138  12.425  19.974  0.00  0.00    +0.000 OA
ATOM     12  H   UNL     1       1.105   8.025  18.586  0.00  0.00    +0.000 HD
ENDROOT
BRANCH   6  13
ATOM     13  C   UNL     1       2.166   6.090  20.382  0.00  0.00    +0.000 A 
ATOM     14  C   UNL     1       1.847   4.819  20.888  0.00  0.00    +0.000 A 
ATOM     15  N   UNL     1       2.728   3.884  20.511  0.00  0.00    +0.000 NA
ATOM     16  N   UNL     1       3.612   4.570  19.747  0.00  0.00    +0.000 N 
ATOM     17  C   UNL     1       3.301   5.895  19.632  0.00  0.00    +0.000 A 
BRANCH  16  18
ATOM     18  C   UNL     1       4.814   3.910  19.249  0.00  0.00    +0.000 C 
BRANCH  18  19
ATOM     19  C   UNL     1       5.662   4.838  18.416  0.00  0.00    +0.000 A 
ATOM     20  C   UNL     1       6.698   5.556  19.043  0.00  0.00    +0.000 A 
ATOM     21  C   UNL     1       7.524   6.397  18.302  0.00  0.00    +0.000 A 
ATOM     22  F   UNL     1       8.497   7.078  18.920  0.00  0.00    +0.000 F 
ATOM     23  C   UNL     1       7.354   6.538  16.933  0.00  0.00    +0.000 A 
ATOM     24  C   UNL     1       6.330   5.840  16.295  0.00  0.00    +0.000 A 
ATOM     25  C   UNL     1       5.484   5.001  17.031  0.00  0.00    +0.000 A 
ATOM     26 CL   UNL     1       4.212   4.214  16.169  0.00  0.00    +0.000 Cl
ENDBRANCH  18  19
ENDBRANCH  16  18
ENDBRANCH   6  13
BRANCH   1  27
ATOM     27  C   UNL     1      -1.035  12.238  22.695  0.00  0.00    +0.000 C 
BRANCH  27  29
ATOM     28  C   UNL     1      -3.530  12.783  22.634  0.00  0.00    +0.000 C 
ATOM     29  C   UNL     1      -2.433  11.928  23.248  0.00  0.00    +0.000 C 
ENDBRANCH  27  29
ENDBRANCH   1  27
BRANCH   9  30
ATOM     30  C   UNL     1      -0.292  10.559  18.129  0.00  0.00    +0.000 C 
BRANCH  30  31
ATOM     31  C   UNL     1      -1.601   9.985  17.575  0.00  0.00    +0.000 C 
ATOM     32  C   UNL     1      -2.326  10.915  16.615  0.00  0.00    +0.000 C 
ENDBRANCH  30  31
ENDBRANCH   9  30
TORSDOF 7
ENDMDL
MODEL 5
REMARK VINA RESULT:      -8.0      4.804      9.929
REMARK  Name = 
REMARK  9 active torsions:
REMARK  status: ('A' for Active; 'I' for Inactive)
REMARK    1  A    between atoms: C_1  and  C_2
REMARK    2  A    between atoms: C_2  and  C_3
REMARK    3  A    between atoms: C_3  and  N_4
REMARK    4  A    between atoms: C_9  and  C_10
REMARK    5  A    between atoms: N_13  and  C_14
REMARK    6  A    between atoms: C_14  and  C_15
REMARK    7  A    between atoms: N_26  and  C_27
REMARK    8  A    between atoms: C_27  and  C_28
REMARK    9  A    between atoms: C_28  and  C_29
REMARK                            x       y       z     vdW  Elec       q    Type
REMARK                         _______ _______ _______ _____ _____    ______ ____
ROOT
ATOM      1  N   UNL     1      -1.802  11.944  22.004  0.00  0.00    +0.000 N 
ATOM      2  C   UNL     1      -0.790  11.016  22.316  0.00  0.00    +0.000 A 
ATOM      3  O   UNL     1      -0.408  10.769  23.456  0.00  0.00    +0.000 OA
ATOM      4  C   UNL     1      -0.220  10.384  21.148  0.00  0.00    +0.000 A 
ATOM      5  N   UNL     1       0.734   9.399  21.077  0.00  0.00    +0.000 NA
ATOM      6  C   UNL     1       0.927   9.188  19.789  0.00  0.00    +0.000 A 
ATOM      7  N   UNL     1       0.118  10.004  19.031  0.00  0.00    +0.000 N 
ATOM      8  C   UNL     1      -0.627  10.753  19.896  0.00  0.00    +0.000 A 
ATOM      9  N   UNL     1      -1.582  11.704  19.612  0.00  0.00    +0.000 N 
ATOM     10  C   UNL     1      -2.185  12.355  20.709  0.00  0.00    +0.000 A 
ATOM     11  O   UNL     1      -3.017  13.248  20.536  0.00  0.00    +0.000 OA
ATOM     12  H   UNL     1       0.079  10.019  18.023  0.00  0.00    +0.000 HD
ENDROOT
BRANCH   6  13
ATOM     13  C   UNL     1       1.876   8.187  19.250  0.00  0.00    +0.000 A 
ATOM     14  C   UNL     1       2.479   8.087  17.985  0.00  0.00    +0.000 A 
ATOM     15  N   UNL     1       3.249   6.998  17.872  0.00  0.00    +0.000 NA
ATOM     16  N   UNL     1       3.141   6.404  19.085  0.00  0.00    +0.000 N 
ATOM     17  C   UNL     1       2.338   7.096  19.946  0.00  0.00    +0.000 A 
BRANCH  16  18
ATOM     18  C   UNL     1       3.746   5.096  19.315  0.00  0.00    +0.000 C 
BRANCH  18  19
ATOM     19  C   UNL     1       5.084   4.968  18.633  0.00  0.00    +0.000 A 
ATOM     20  C   UNL     1       6.224   5.490  19.273  0.00  0.00    +0.000 A 
ATOM     21  C   UNL     1       7.483   5.361  18.690  0.00  0.00    +0.000 A 
ATOM     22  F   UNL     1       8.553   5.873  19.312  0.00  0.00    +0.000 F 
ATOM     23  C   UNL     1       7.644   4.708  17.478  0.00  0.00    +0.000 A 
ATOM     24  C   UNL     1       6.526   4.190  16.826  0.00  0.00    +0.000 A 
ATOM     25  C   UNL     1       5.254   4.325  17.394  0.00  0.00    +0.000 A 
ATOM     26 CL   UNL     1       3.920   3.698  16.495  0.00  0.00    +0.000 Cl
ENDBRANCH  18  19
ENDBRANCH  16  18
ENDBRANCH   6  13
BRANCH   1  27
ATOM     27  C   UNL     1      -2.455  12.612  23.129  0.00  0.00    +0.000 C 
BRANCH  27  29
ATOM     28  C   UNL     1      -2.561  14.739  24.541  0.00  0.00    +0.000 C 
ATOM     29  C   UNL     1      -1.726  13.875  23.609  0.00  0.00    +0.000 C 
ENDBRANCH  27  29
ENDBRANCH   1  27
BRANCH   9  30
ATOM     30  C   UNL     1      -1.996  12.075  18.259  0.00  0.00    +0.000 C 
BRANCH  30  31
ATOM     31  C   UNL     1      -3.155  11.235  17.710  0.00  0.00    +0.000 C 
ATOM     32  C   UNL     1      -2.713  10.050  16.866  0.00  0.00    +0.000 C 
ENDBRANCH  30  31
ENDBRANCH   9  30
TORSDOF 7
ENDMDL
MODEL 6
REMARK VINA RESULT:      -8.0      4.509      9.691
REMARK  Name = 
REMARK  9 active torsions:
REMARK  status: ('A' for Active; 'I' for Inactive)
REMARK    1  A    between atoms: C_1  and  C_2
REMARK    2  A    between atoms: C_2  and  C_3
REMARK    3  A    between atoms: C_3  and  N_4
REMARK    4  A    between atoms: C_9  and  C_10
REMARK    5  A    between atoms: N_13  and  C_14
REMARK    6  A    between atoms: C_14  and  C_15
REMARK    7  A    between atoms: N_26  and  C_27
REMARK    8  A    between atoms: C_27  and  C_28
REMARK    9  A    between atoms: C_28  and  C_29
REMARK                            x       y       z     vdW  Elec       q    Type
REMARK                         _______ _______ _______ _____ _____    ______ ____
ROOT
ATOM      1  N   UNL     1      -1.610  11.814  21.653  0.00  0.00    +0.000 N 
ATOM      2  C   UNL     1      -0.545  10.936  21.933  0.00  0.00    +0.000 A 
ATOM      3  O   UNL     1      -0.112  10.713  23.060  0.00  0.00    +0.000 OA
ATOM      4  C   UNL     1       0.014  10.326  20.748  0.00  0.00    +0.000 A 
ATOM      5  N   UNL     1       1.011   9.387  20.647  0.00  0.00    +0.000 NA
ATOM      6  C   UNL     1       1.170   9.180  19.354  0.00  0.00    +0.000 A 
ATOM      7  N   UNL     1       0.297   9.952  18.622  0.00  0.00    +0.000 N 
ATOM      8  C   UNL     1      -0.453  10.669  19.509  0.00  0.00    +0.000 A 
ATOM      9  N   UNL     1      -1.461  11.573  19.255  0.00  0.00    +0.000 N 
ATOM     10  C   UNL     1      -2.057  12.200  20.371  0.00  0.00    +0.000 A 
ATOM     11  O   UNL     1      -2.936  13.051  20.223  0.00  0.00    +0.000 OA
ATOM     12  H   UNL     1       0.222   9.960  17.616  0.00  0.00    +0.000 HD
ENDROOT
BRANCH   6  13
ATOM     13  C   UNL     1       2.146   8.222  18.786  0.00  0.00    +0.000 A 
ATOM     14  C   UNL     1       2.964   8.318  17.648  0.00  0.00    +0.000 A 
ATOM     15  N   UNL     1       3.683   7.207  17.442  0.00  0.00    +0.000 NA
ATOM     16  N   UNL     1       3.322   6.400  18.468  0.00  0.00    +0.000 N 
ATOM     17  C   UNL     1       2.413   6.979  19.307  0.00  0.00    +0.000 A 
BRANCH  16  18
ATOM     18  C   UNL     1       3.804   5.023  18.519  0.00  0.00    +0.000 C 
BRANCH  18  19
ATOM     19  C   UNL     1       4.957   4.796  17.575  0.00  0.00    +0.000 A 
ATOM     20  C   UNL     1       4.684   4.372  16.261  0.00  0.00    +0.000 A 
ATOM     21  C   UNL     1       5.720   4.184  15.349  0.00  0.00    +0.000 A 
ATOM     22  F   UNL     1       5.439   3.770  14.107  0.00  0.00    +0.000 F 
ATOM     23  C   UNL     1       7.038   4.422  15.708  0.00  0.00    +0.000 A 
ATOM     24  C   UNL     1       7.329   4.838  17.007  0.00  0.00    +0.000 A 
ATOM     25  C   UNL     1       6.298   5.017  17.937  0.00  0.00    +0.000 A 
ATOM     26 CL   UNL     1       6.752   5.484  19.535  0.00  0.00    +0.000 Cl
ENDBRANCH  18  19
ENDBRANCH  16  18
ENDBRANCH   6  13
BRANCH   1  27
ATOM     27  C   UNL     1      -2.255  12.456  22.798  0.00  0.00    +0.000 C 
BRANCH  27  29
ATOM     28  C   UNL     1      -2.178  14.388  24.468  0.00  0.00    +0.000 C 
ATOM     29  C   UNL     1      -1.677  13.836  23.142  0.00  0.00    +0.000 C 
ENDBRANCH  27  29
ENDBRANCH   1  27
BRANCH   9  30
ATOM     30  C   UNL     1      -1.939  11.916  17.917  0.00  0.00    +0.000 C 
BRANCH  30  31
ATOM     31  C   UNL     1      -2.880  10.873  17.304  0.00  0.00    +0.000 C 
ATOM     32  C   UNL     1      -2.757  10.740  15.795  0.00  0.00    +0.000 C 
ENDBRANCH  30  31
ENDBRANCH   9  30
TORSDOF 7
ENDMDL
MODEL 7
REMARK VINA RESULT:      -8.0      4.357      9.314
REMARK  Name = 
REMARK  9 active torsions:
REMARK  status: ('A' for Active; 'I' for Inactive)
REMARK    1  A    between atoms: C_1  and  C_2
REMARK    2  A    between atoms: C_2  and  C_3
REMARK    3  A    between atoms: C_3  and  N_4
REMARK    4  A    between atoms: C_9  and  C_10
REMARK    5  A    between atoms: N_13  and  C_14
REMARK    6  A    between atoms: C_14  and  C_15
REMARK    7  A    between atoms: N_26  and  C_27
REMARK    8  A    between atoms: C_27  and  C_28
REMARK    9  A    between atoms: C_28  and  C_29
REMARK                            x       y       z     vdW  Elec       q    Type
REMARK                         _______ _______ _______ _____ _____    ______ ____
ROOT
ATOM      1  N   UNL     1      -2.153  12.234  19.854  0.00  0.00    +0.000 N 
ATOM      2  C   UNL     1      -0.863  11.870  20.287  0.00  0.00    +0.000 A 
ATOM      3  O   UNL     1      -0.257  12.428  21.197  0.00  0.00    +0.000 OA
ATOM      4  C   UNL     1      -0.301  10.772  19.533  0.00  0.00    +0.000 A 
ATOM      5  N   UNL     1       0.896  10.123  19.714  0.00  0.00    +0.000 NA
ATOM      6  C   UNL     1       0.953   9.217  18.756  0.00  0.00    +0.000 A 
ATOM      7  N   UNL     1      -0.177   9.261  17.971  0.00  0.00    +0.000 N 
ATOM      8  C   UNL     1      -0.985  10.238  18.477  0.00  0.00    +0.000 A 
ATOM      9  N   UNL     1      -2.225  10.647  18.036  0.00  0.00    +0.000 N 
ATOM     10  C   UNL     1      -2.835  11.711  18.734  0.00  0.00    +0.000 A 
ATOM     11  O   UNL     1      -3.924  12.162  18.374  0.00  0.00    +0.000 OA
ATOM     12  H   UNL     1      -0.368   8.660  17.184  0.00  0.00    +0.000 HD
ENDROOT
BRANCH   6  13
ATOM     13  C   UNL     1       2.080   8.274  18.579  0.00  0.00    +0.000 A 
ATOM     14  C   UNL     1       2.996   8.132  17.523  0.00  0.00    +0.000 A 
ATOM     15  N   UNL     1       3.849   7.119  17.720  0.00  0.00    +0.000 NA
ATOM     16  N   UNL     1       3.474   6.617  18.922  0.00  0.00    +0.000 N 
ATOM     17  C   UNL     1       2.426   7.294  19.478  0.00  0.00    +0.000 A 
BRANCH  16  18
ATOM     18  C   UNL     1       4.095   5.399  19.431  0.00  0.00    +0.000 C 
BRANCH  18  19
ATOM     19  C   UNL     1       3.114   4.255  19.502  0.00  0.00    +0.000 A 
ATOM     20  C   UNL     1       2.527   3.941  20.742  0.00  0.00    +0.000 A 
ATOM     21  C   UNL     1       1.591   2.915  20.842  0.00  0.00    +0.000 A 
ATOM     22  F   UNL     1       1.053   2.626  22.033  0.00  0.00    +0.000 F 
ATOM     23  C   UNL     1       1.206   2.189  19.724  0.00  0.00    +0.000 A 
ATOM     24  C   UNL     1       1.780   2.483  18.488  0.00  0.00    +0.000 A 
ATOM     25  C   UNL     1       2.733   3.503  18.377  0.00  0.00    +0.000 A 
ATOM     26 CL   UNL     1       3.428   3.764  16.818  0.00  0.00    +0.000 Cl
ENDBRANCH  18  19
ENDBRANCH  16  18
ENDBRANCH   6  13
BRANCH   1  27
ATOM     27  C   UNL     1      -2.811  13.320  20.580  0.00  0.00    +0.000 C 
BRANCH  27  29
ATOM     28  C   UNL     1      -4.967  12.643  21.772  0.00  0.00    +0.000 C 
ATOM     29  C   UNL     1      -3.469  12.878  21.894  0.00  0.00    +0.000 C 
ENDBRANCH  27  29
ENDBRANCH   1  27
BRANCH   9  30
ATOM     30  C   UNL     1      -2.931  10.052  16.902  0.00  0.00    +0.000 C 
BRANCH  30  31
ATOM     31  C   UNL     1      -2.768  10.827  15.590  0.00  0.00    +0.000 C 
ATOM     32  C   UNL     1      -3.326  10.107  14.373  0.00  0.00    +0.000 C 
ENDBRANCH  30  31
ENDBRANCH   9  30
TORSDOF 7
ENDMDL
MODEL 8
REMARK VINA RESULT:      -8.0      1.819      2.248
REMARK  Name = 
REMARK  9 active torsions:
REMARK  status: ('A' for Active; 'I' for Inactive)
REMARK    1  A    between atoms: C_1  and  C_2
REMARK    2  A    between atoms: C_2  and  C_3
REMARK    3  A    between atoms: C_3  and  N_4
REMARK    4  A    between atoms: C_9  and  C_10
REMARK    5  A    between atoms: N_13  and  C_14
REMARK    6  A    between atoms: C_14  and  C_15
REMARK    7  A    between atoms: N_26  and  C_27
REMARK    8  A    between atoms: C_27  and  C_28
REMARK    9  A    between atoms: C_28  and  C_29
REMARK                            x       y       z     vdW  Elec       q    Type
REMARK                         _______ _______ _______ _____ _____    ______ ____
ROOT
ATOM      1  N   UNL     1       4.665   5.025  17.718  0.00  0.00    +0.000 N 
ATOM      2  C   UNL     1       4.314   6.317  17.280  0.00  0.00    +0.000 A 
ATOM      3  O   UNL     1       4.790   6.863  16.289  0.00  0.00    +0.000 OA
ATOM      4  C   UNL     1       3.340   6.960  18.133  0.00  0.00    +0.000 A 
ATOM      5  N   UNL     1       2.732   8.182  17.982  0.00  0.00    +0.000 NA
ATOM      6  C   UNL     1       1.949   8.317  19.035  0.00  0.00    +0.000 A 
ATOM      7  N   UNL     1       2.029   7.213  19.853  0.00  0.00    +0.000 N 
ATOM      8  C   UNL     1       2.901   6.339  19.269  0.00  0.00    +0.000 A 
ATOM      9  N   UNL     1       3.299   5.095  19.707  0.00  0.00    +0.000 N 
ATOM     10  C   UNL     1       4.245   4.408  18.916  0.00  0.00    +0.000 A 
ATOM     11  O   UNL     1       4.682   3.309  19.264  0.00  0.00    +0.000 OA
ATOM     12  H   UNL     1       1.516   7.079  20.710  0.00  0.00    +0.000 HD
ENDROOT
BRANCH   6  13
ATOM     13  C   UNL     1       1.087   9.497  19.275  0.00  0.00    +0.000 A 
ATOM     14  C   UNL     1       0.577  10.028  20.473  0.00  0.00    +0.000 A 
ATOM     15  N   UNL     1      -0.210  11.091  20.264  0.00  0.00    +0.000 NA
ATOM     16  N   UNL     1      -0.192  11.241  18.918  0.00  0.00    +0.000 N 
ATOM     17  C   UNL     1       0.589  10.314  18.289  0.00  0.00    +0.000 A 
BRANCH  16  18
ATOM     18  C   UNL     1      -1.051  12.235  18.282  0.00  0.00    +0.000 C 
BRANCH  18  19
ATOM     19  C   UNL     1      -2.510  11.870  18.395  0.00  0.00    +0.000 A 
ATOM     20  C   UNL     1      -3.258  12.392  19.467  0.00  0.00    +0.000 A 
ATOM     21  C   UNL     1      -4.616  12.107  19.587  0.00  0.00    +0.000 A 
ATOM     22  F   UNL     1      -5.306  12.605  20.621  0.00  0.00    +0.000 F 
ATOM     23  C   UNL     1      -5.264  11.316  18.651  0.00  0.00    +0.000 A 
ATOM     24  C   UNL     1      -4.539  10.786  17.585  0.00  0.00    +0.000 A 
ATOM     25  C   UNL     1      -3.170  11.054  17.460  0.00  0.00    +0.000 A 
ATOM     26 CL   UNL     1      -2.341  10.315  16.138  0.00  0.00    +0.000 Cl
ENDBRANCH  18  19
ENDBRANCH  16  18
ENDBRANCH   6  13
BRANCH   1  27
ATOM     27  C   UNL     1       5.626   4.289  16.898  0.00  0.00    +0.000 C 
BRANCH  27  29
ATOM     28  C   UNL     1       7.265   5.533  18.413  0.00  0.00    +0.000 C 
ATOM     29  C   UNL     1       7.091   4.636  17.197  0.00  0.00    +0.000 C 
ENDBRANCH  27  29
ENDBRANCH   1  27
BRANCH   9  30
ATOM     30  C   UNL     1       2.808   4.458  20.929  0.00  0.00    +0.000 C 
BRANCH  30  31
ATOM     31  C   UNL     1       1.487   3.702  20.749  0.00  0.00    +0.000 C 
ATOM     32  C   UNL     1       1.320   2.518  21.688  0.00  0.00    +0.000 C 
ENDBRANCH  30  31
ENDBRANCH   9  30
TORSDOF 7
ENDMDL
MODEL 9
REMARK VINA RESULT:      -8.0      1.024      1.234
REMARK  Name = 
REMARK  9 active torsions:
REMARK  status: ('A' for Active; 'I' for Inactive)
REMARK    1  A    between atoms: C_1  and  C_2
REMARK    2  A    between atoms: C_2  and  C_3
REMARK    3  A    between atoms: C_3  and  N_4
REMARK    4  A    between atoms: C_9  and  C_10
REMARK    5  A    between atoms: N_13  and  C_14
REMARK    6  A    between atoms: C_14  and  C_15
REMARK    7  A    between atoms: N_26  and  C_27
REMARK    8  A    between atoms: C_27  and  C_28
REMARK    9  A    between atoms: C_28  and  C_29
REMARK                            x       y       z     vdW  Elec       q    Type
REMARK                         _______ _______ _______ _____ _____    ______ ____
ROOT
ATOM      1  N   UNL     1       4.418   5.338  17.837  0.00  0.00    +0.000 N 
ATOM      2  C   UNL     1       4.157   6.623  17.321  0.00  0.00    +0.000 A 
ATOM      3  O   UNL     1       4.714   7.095  16.334  0.00  0.00    +0.000 OA
ATOM      4  C   UNL     1       3.172   7.353  18.086  0.00  0.00    +0.000 A 
ATOM      5  N   UNL     1       2.637   8.594  17.844  0.00  0.00    +0.000 NA
ATOM      6  C   UNL     1       1.804   8.819  18.843  0.00  0.00    +0.000 A 
ATOM      7  N   UNL     1       1.784   7.753  19.714  0.00  0.00    +0.000 N 
ATOM      8  C   UNL     1       2.640   6.811  19.222  0.00  0.00    +0.000 A 
ATOM      9  N   UNL     1       2.950   5.572  19.740  0.00  0.00    +0.000 N 
ATOM     10  C   UNL     1       3.901   4.802  19.036  0.00  0.00    +0.000 A 
ATOM     11  O   UNL     1       4.262   3.702  19.459  0.00  0.00    +0.000 OA
ATOM     12  H   UNL     1       1.218   7.687  20.546  0.00  0.00    +0.000 HD
ENDROOT
BRANCH   6  13
ATOM     13  C   UNL     1       0.993  10.049  18.979  0.00  0.00    +0.000 A 
ATOM     14  C   UNL     1       1.329  11.396  18.756  0.00  0.00    +0.000 A 
ATOM     15  N   UNL     1       0.319  12.227  19.038  0.00  0.00    +0.000 NA
ATOM     16  N   UNL     1      -0.675  11.396  19.436  0.00  0.00    +0.000 N 
ATOM     17  C   UNL     1      -0.315  10.080  19.399  0.00  0.00    +0.000 A 
BRANCH  16  18
ATOM     18  C   UNL     1      -1.922  11.946  19.959  0.00  0.00    +0.000 C 
BRANCH  18  19
ATOM     19  C   UNL     1      -3.035  11.878  18.945  0.00  0.00    +0.000 A 
ATOM     20  C   UNL     1      -2.722  11.535  17.616  0.00  0.00    +0.000 A 
ATOM     21  C   UNL     1      -3.727  11.428  16.658  0.00  0.00    +0.000 A 
ATOM     22  F   UNL     1      -3.405  11.111  15.398  0.00  0.00    +0.000 F 
ATOM     23  C   UNL     1      -5.056  11.643  16.991  0.00  0.00    +0.000 A 
ATOM     24  C   UNL     1      -5.386  11.988  18.301  0.00  0.00    +0.000 A 
ATOM     25  C   UNL     1      -4.383  12.112  19.270  0.00  0.00    +0.000 A 
ATOM     26 CL   UNL     1      -4.875  12.592  20.854  0.00  0.00    +0.000 Cl
ENDBRANCH  18  19
ENDBRANCH  16  18
ENDBRANCH   6  13
BRANCH   1  27
ATOM     27  C   UNL     1       5.383   4.517  17.108  0.00  0.00    +0.000 C 
BRANCH  27  29
ATOM     28  C   UNL     1       7.523   5.755  17.753  0.00  0.00    +0.000 C 
ATOM     29  C   UNL     1       6.762   4.439  17.779  0.00  0.00    +0.000 C 
ENDBRANCH  27  29
ENDBRANCH   1  27
BRANCH   9  30
ATOM     30  C   UNL     1       2.361   5.020  20.959  0.00  0.00    +0.000 C 
BRANCH  30  31
ATOM     31  C   UNL     1       1.240   4.005  20.706  0.00  0.00    +0.000 C 
ATOM     32  C   UNL     1       1.391   2.711  21.489  0.00  0.00    +0.000 C 
ENDBRANCH  30  31
ENDBRANCH   9  30
TORSDOF 7
ENDMDL
