MODEL 1
REMARK VINA RESULT:      -6.7      0.000      0.000
REMARK  Name = 
REMARK  1 active torsions:
REMARK  status: ('A' for Active; 'I' for Inactive)
REMARK    1  A    between atoms: C_2  and  C_4
REMARK                            x       y       z     vdW  Elec       q    Type
REMARK                         _______ _______ _______ _____ _____    ______ ____
ROOT
ATOM      1  C   UNL     1       4.963   5.093  17.286  0.00  0.00    +0.000 A 
ATOM      2  C   UNL     1       4.843   6.496  17.302  0.00  0.00    +0.000 A 
ATOM      3  C   UNL     1       3.656   7.106  17.689  0.00  0.00    +0.000 A 
ATOM      4  C   UNL     1       2.566   6.319  18.048  0.00  0.00    +0.000 A 
ATOM      5  C   UNL     1       2.637   4.918  18.006  0.00  0.00    +0.000 A 
ATOM      6  C   UNL     1       1.506   4.159  18.350  0.00  0.00    +0.000 A 
ATOM      7  C   UNL     1       1.533   2.766  18.310  0.00  0.00    +0.000 A 
ATOM      8  C   UNL     1       2.696   2.114  17.931  0.00  0.00    +0.000 A 
ATOM      9  C   UNL     1       3.833   2.855  17.598  0.00  0.00    +0.000 A 
ATOM     10  C   UNL     1       3.843   4.272  17.617  0.00  0.00    +0.000 A 
ENDROOT
BRANCH   1  12
ATOM     11  N   UNL     1       7.176   4.309  17.944  0.00  0.00    +0.000 N 
ATOM     12  C   UNL     1       6.292   4.515  16.913  0.00  0.00    +0.000 C 
ATOM     13  O   UNL     1       6.614   4.216  15.773  0.00  0.00    +0.000 OA
ATOM     14  H   UNL     1       8.045   3.842  17.713  0.00  0.00    +0.000 HD
ATOM     15  H   UNL     1       6.921   4.387  18.917  0.00  0.00    +0.000 HD
ENDBRANCH   1  12
TORSDOF 1
ENDMDL
MODEL 2
REMARK VINA RESULT:      -6.3      2.233      3.603
REMARK  Name = 
REMARK  1 active torsions:
REMARK  status: ('A' for Active; 'I' for Inactive)
REMARK    1  A    between atoms: C_2  and  C_4
REMARK                            x       y       z     vdW  Elec       q    Type
REMARK                         _______ _______ _______ _____ _____    ______ ____
ROOT
ATOM      1  C   UNL     1       3.497   3.697  19.266  0.00  0.00    +0.000 A 
ATOM      2  C   UNL     1       2.624   4.090  20.299  0.00  0.00    +0.000 A 
ATOM      3  C   UNL     1       2.161   5.397  20.381  0.00  0.00    +0.000 A 
ATOM      4  C   UNL     1       2.580   6.334  19.442  0.00  0.00    +0.000 A 
ATOM      5  C   UNL     1       3.479   5.987  18.423  0.00  0.00    +0.000 A 
ATOM      6  C   UNL     1       3.900   6.969  17.510  0.00  0.00    +0.000 A 
ATOM      7  C   UNL     1       4.802   6.667  16.491  0.00  0.00    +0.000 A 
ATOM      8  C   UNL     1       5.290   5.376  16.368  0.00  0.00    +0.000 A 
ATOM      9  C   UNL     1       4.871   4.385  17.261  0.00  0.00    +0.000 A 
ATOM     10  C   UNL     1       3.964   4.654  18.316  0.00  0.00    +0.000 A 
ENDROOT
BRANCH   1  12
ATOM     11  N   UNL     1       4.968   1.898  20.006  0.00  0.00    +0.000 N 
ATOM     12  C   UNL     1       3.905   2.258  19.213  0.00  0.00    +0.000 C 
ATOM     13  O   UNL     1       3.349   1.412  18.530  0.00  0.00    +0.000 OA
ATOM     14  H   UNL     1       5.197   0.912  20.040  0.00  0.00    +0.000 HD
ATOM     15  H   UNL     1       5.369   2.506  20.705  0.00  0.00    +0.000 HD
ENDBRANCH   1  12
TORSDOF 1
ENDMDL
MODEL 3
REMARK VINA RESULT:      -6.3      2.556      3.959
REMARK  Name = 
REMARK  1 active torsions:
REMARK  status: ('A' for Active; 'I' for Inactive)
REMARK    1  A    between atoms: C_2  and  C_4
REMARK                            x       y       z     vdW  Elec       q    Type
REMARK                         _______ _______ _______ _____ _____    ______ ____
ROOT
ATOM      1  C   UNL     1       3.328   2.930  19.858  0.00  0.00    +0.000 A 
ATOM      2  C   UNL     1       2.228   2.699  20.706  0.00  0.00    +0.000 A 
ATOM      3  C   UNL     1       1.226   3.651  20.848  0.00  0.00    +0.000 A 
ATOM      4  C   UNL     1       1.320   4.855  20.158  0.00  0.00    +0.000 A 
ATOM      5  C   UNL     1       2.422   5.135  19.335  0.00  0.00    +0.000 A 
ATOM      6  C   UNL     1       2.494   6.374  18.676  0.00  0.00    +0.000 A 
ATOM      7  C   UNL     1       3.577   6.695  17.860  0.00  0.00    +0.000 A 
ATOM      8  C   UNL     1       4.599   5.776  17.687  0.00  0.00    +0.000 A 
ATOM      9  C   UNL     1       4.536   4.534  18.325  0.00  0.00    +0.000 A 
ATOM     10  C   UNL     1       3.458   4.175  19.171  0.00  0.00    +0.000 A 
ENDROOT
BRANCH   1  12
ATOM     11  N   UNL     1       4.186   1.010  18.624  0.00  0.00    +0.000 N 
ATOM     12  C   UNL     1       4.335   1.832  19.715  0.00  0.00    +0.000 C 
ATOM     13  O   UNL     1       5.260   1.644  20.489  0.00  0.00    +0.000 OA
ATOM     14  H   UNL     1       4.910   0.318  18.473  0.00  0.00    +0.000 HD
ATOM     15  H   UNL     1       3.545   1.202  17.868  0.00  0.00    +0.000 HD
ENDBRANCH   1  12
TORSDOF 1
ENDMDL
MODEL 4
REMARK VINA RESULT:      -6.3      2.185      3.541
REMARK  Name = 
REMARK  1 active torsions:
REMARK  status: ('A' for Active; 'I' for Inactive)
REMARK    1  A    between atoms: C_2  and  C_4
REMARK                            x       y       z     vdW  Elec       q    Type
REMARK                         _______ _______ _______ _____ _____    ______ ____
ROOT
ATOM      1  C   UNL     1       3.859   3.982  18.507  0.00  0.00    +0.000 A 
ATOM      2  C   UNL     1       3.176   4.900  19.329  0.00  0.00    +0.000 A 
ATOM      3  C   UNL     1       3.102   6.244  18.988  0.00  0.00    +0.000 A 
ATOM      4  C   UNL     1       3.726   6.693  17.828  0.00  0.00    +0.000 A 
ATOM      5  C   UNL     1       4.447   5.814  17.006  0.00  0.00    +0.000 A 
ATOM      6  C   UNL     1       5.087   6.311  15.857  0.00  0.00    +0.000 A 
ATOM      7  C   UNL     1       5.822   5.473  15.022  0.00  0.00    +0.000 A 
ATOM      8  C   UNL     1       5.923   4.124  15.322  0.00  0.00    +0.000 A 
ATOM      9  C   UNL     1       5.283   3.611  16.453  0.00  0.00    +0.000 A 
ATOM     10  C   UNL     1       4.534   4.433  17.333  0.00  0.00    +0.000 A 
ENDROOT
BRANCH   1  12
ATOM     11  N   UNL     1       4.847   2.140  19.763  0.00  0.00    +0.000 N 
ATOM     12  C   UNL     1       3.844   2.542  18.914  0.00  0.00    +0.000 C 
ATOM     13  O   UNL     1       3.003   1.735  18.551  0.00  0.00    +0.000 OA
ATOM     14  H   UNL     1       4.798   1.190  20.109  0.00  0.00    +0.000 HD
ATOM     15  H   UNL     1       5.477   2.783  20.221  0.00  0.00    +0.000 HD
ENDBRANCH   1  12
TORSDOF 1
ENDMDL
MODEL 5
REMARK VINA RESULT:      -6.3      2.822      4.131
REMARK  Name = 
REMARK  1 active torsions:
REMARK  status: ('A' for Active; 'I' for Inactive)
REMARK    1  A    between atoms: C_2  and  C_4
REMARK                            x       y       z     vdW  Elec       q    Type
REMARK                         _______ _______ _______ _____ _____    ______ ____
ROOT
ATOM      1  C   UNL     1       1.909   3.777  19.031  0.00  0.00    +0.000 A 
ATOM      2  C   UNL     1       1.372   4.444  20.150  0.00  0.00    +0.000 A 
ATOM      3  C   UNL     1       1.753   5.744  20.454  0.00  0.00    +0.000 A 
ATOM      4  C   UNL     1       2.690   6.390  19.654  0.00  0.00    +0.000 A 
ATOM      5  C   UNL     1       3.275   5.743  18.555  0.00  0.00    +0.000 A 
ATOM      6  C   UNL     1       4.238   6.419  17.787  0.00  0.00    +0.000 A 
ATOM      7  C   UNL     1       4.850   5.807  16.695  0.00  0.00    +0.000 A 
ATOM      8  C   UNL     1       4.501   4.510  16.353  0.00  0.00    +0.000 A 
ATOM      9  C   UNL     1       3.536   3.828  17.099  0.00  0.00    +0.000 A 
ATOM     10  C   UNL     1       2.898   4.412  18.222  0.00  0.00    +0.000 A 
ENDROOT
BRANCH   1  12
ATOM     11  N   UNL     1       2.323   1.381  18.839  0.00  0.00    +0.000 N 
ATOM     12  C   UNL     1       1.405   2.399  18.738  0.00  0.00    +0.000 C 
ATOM     13  O   UNL     1       0.251   2.140  18.435  0.00  0.00    +0.000 OA
ATOM     14  H   UNL     1       1.973   0.438  18.725  0.00  0.00    +0.000 HD
ATOM     15  H   UNL     1       3.245   1.503  19.233  0.00  0.00    +0.000 HD
ENDBRANCH   1  12
TORSDOF 1
ENDMDL
MODEL 6
REMARK VINA RESULT:      -6.3      2.034      3.103
REMARK  Name = 
REMARK  1 active torsions:
REMARK  status: ('A' for Active; 'I' for Inactive)
REMARK    1  A    between atoms: C_2  and  C_4
REMARK                            x       y       z     vdW  Elec       q    Type
REMARK                         _______ _______ _______ _____ _____    ______ ____
ROOT
ATOM      1  C   UNL     1       6.790   5.284  17.875  0.00  0.00    +0.000 A 
ATOM      2  C   UNL     1       7.325   4.751  16.687  0.00  0.00    +0.000 A 
ATOM      3  C   UNL     1       6.511   4.103  15.767  0.00  0.00    +0.000 A 
ATOM      4  C   UNL     1       5.152   3.964  16.031  0.00  0.00    +0.000 A 
ATOM      5  C   UNL     1       4.591   4.449  17.223  0.00  0.00    +0.000 A 
ATOM      6  C   UNL     1       3.220   4.265  17.466  0.00  0.00    +0.000 A 
ATOM      7  C   UNL     1       2.628   4.722  18.641  0.00  0.00    +0.000 A 
ATOM      8  C   UNL     1       3.401   5.375  19.588  0.00  0.00    +0.000 A 
ATOM      9  C   UNL     1       4.764   5.577  19.356  0.00  0.00    +0.000 A 
ATOM     10  C   UNL     1       5.405   5.119  18.178  0.00  0.00    +0.000 A 
ENDROOT
BRANCH   1  12
ATOM     11  N   UNL     1       8.135   5.338  19.909  0.00  0.00    +0.000 N 
ATOM     12  C   UNL     1       7.723   6.017  18.788  0.00  0.00    +0.000 C 
ATOM     13  O   UNL     1       8.132   7.150  18.585  0.00  0.00    +0.000 OA
ATOM     14  H   UNL     1       8.829   5.794  20.488  0.00  0.00    +0.000 HD
ATOM     15  H   UNL     1       7.961   4.355  20.057  0.00  0.00    +0.000 HD
ENDBRANCH   1  12
TORSDOF 1
ENDMDL
MODEL 7
REMARK VINA RESULT:      -6.2      3.293      4.198
REMARK  Name = 
REMARK  1 active torsions:
REMARK  status: ('A' for Active; 'I' for Inactive)
REMARK    1  A    between atoms: C_2  and  C_4
REMARK                            x       y       z     vdW  Elec       q    Type
REMARK                         _______ _______ _______ _____ _____    ______ ____
ROOT
ATOM      1  C   UNL     1       2.168   4.857  20.171  0.00  0.00    +0.000 A 
ATOM      2  C   UNL     1       1.787   6.161  20.542  0.00  0.00    +0.000 A 
ATOM      3  C   UNL     1       2.153   7.257  19.770  0.00  0.00    +0.000 A 
ATOM      4  C   UNL     1       2.922   7.065  18.627  0.00  0.00    +0.000 A 
ATOM      5  C   UNL     1       3.353   5.784  18.249  0.00  0.00    +0.000 A 
ATOM      6  C   UNL     1       4.151   5.634  17.103  0.00  0.00    +0.000 A 
ATOM      7  C   UNL     1       4.609   4.381  16.700  0.00  0.00    +0.000 A 
ATOM      8  C   UNL     1       4.268   3.259  17.438  0.00  0.00    +0.000 A 
ATOM      9  C   UNL     1       3.464   3.389  18.574  0.00  0.00    +0.000 A 
ATOM     10  C   UNL     1       2.987   4.647  19.021  0.00  0.00    +0.000 A 
ENDROOT
BRANCH   1  12
ATOM     11  N   UNL     1       0.579   3.050  20.567  0.00  0.00    +0.000 N 
ATOM     12  C   UNL     1       1.686   3.725  21.023  0.00  0.00    +0.000 C 
ATOM     13  O   UNL     1       2.217   3.375  22.064  0.00  0.00    +0.000 OA
ATOM     14  H   UNL     1       0.295   2.233  21.092  0.00  0.00    +0.000 HD
ATOM     15  H   UNL     1       0.187   3.185  19.646  0.00  0.00    +0.000 HD
ENDBRANCH   1  12
TORSDOF 1
ENDMDL
MODEL 8
REMARK VINA RESULT:      -6.1      2.258      3.845
REMARK  Name = 
REMARK  1 active torsions:
REMARK  status: ('A' for Active; 'I' for Inactive)
REMARK    1  A    between atoms: C_2  and  C_4
REMARK                            x       y       z     vdW  Elec       q    Type
REMARK                         _______ _______ _______ _____ _____    ______ ____
ROOT
ATOM      1  C   UNL     1       3.584   3.041  18.885  0.00  0.00    +0.000 A 
ATOM      2  C   UNL     1       2.178   2.968  18.874  0.00  0.00    +0.000 A 
ATOM      3  C   UNL     1       1.415   4.003  18.348  0.00  0.00    +0.000 A 
ATOM      4  C   UNL     1       2.048   5.134  17.842  0.00  0.00    +0.000 A 
ATOM      5  C   UNL     1       3.445   5.258  17.873  0.00  0.00    +0.000 A 
ATOM      6  C   UNL     1       4.046   6.427  17.377  0.00  0.00    +0.000 A 
ATOM      7  C   UNL     1       5.429   6.594  17.401  0.00  0.00    +0.000 A 
ATOM      8  C   UNL     1       6.231   5.587  17.915  0.00  0.00    +0.000 A 
ATOM      9  C   UNL     1       5.650   4.412  18.400  0.00  0.00    +0.000 A 
ATOM     10  C   UNL     1       4.247   4.210  18.403  0.00  0.00    +0.000 A 
ENDROOT
BRANCH   1  12
ATOM     11  N   UNL     1       4.312   0.727  18.641  0.00  0.00    +0.000 N 
ATOM     12  C   UNL     1       4.335   1.861  19.417  0.00  0.00    +0.000 C 
ATOM     13  O   UNL     1       4.958   1.860  20.467  0.00  0.00    +0.000 OA
ATOM     14  H   UNL     1       4.885  -0.049  18.951  0.00  0.00    +0.000 HD
ATOM     15  H   UNL     1       3.952   0.707  17.698  0.00  0.00    +0.000 HD
ENDBRANCH   1  12
TORSDOF 1
ENDMDL
MODEL 9
REMARK VINA RESULT:      -6.1      3.210      4.739
REMARK  Name = 
REMARK  1 active torsions:
REMARK  status: ('A' for Active; 'I' for Inactive)
REMARK    1  A    between atoms: C_2  and  C_4
REMARK                            x       y       z     vdW  Elec       q    Type
REMARK                         _______ _______ _______ _____ _____    ______ ____
ROOT
ATOM      1  C   UNL     1       2.698   3.322  19.716  0.00  0.00    +0.000 A 
ATOM      2  C   UNL     1       3.203   2.330  18.853  0.00  0.00    +0.000 A 
ATOM      3  C   UNL     1       3.781   2.671  17.637  0.00  0.00    +0.000 A 
ATOM      4  C   UNL     1       3.846   4.009  17.259  0.00  0.00    +0.000 A 
ATOM      5  C   UNL     1       3.318   5.020  18.076  0.00  0.00    +0.000 A 
ATOM      6  C   UNL     1       3.378   6.356  17.647  0.00  0.00    +0.000 A 
ATOM      7  C   UNL     1       2.855   7.388  18.424  0.00  0.00    +0.000 A 
ATOM      8  C   UNL     1       2.270   7.096  19.646  0.00  0.00    +0.000 A 
ATOM      9  C   UNL     1       2.213   5.773  20.093  0.00  0.00    +0.000 A 
ATOM     10  C   UNL     1       2.725   4.695  19.327  0.00  0.00    +0.000 A 
ENDROOT
BRANCH   1  12
ATOM     11  N   UNL     1       0.774   2.825  21.129  0.00  0.00    +0.000 N 
ATOM     12  C   UNL     1       2.143   2.878  21.033  0.00  0.00    +0.000 C 
ATOM     13  O   UNL     1       2.827   2.558  21.993  0.00  0.00    +0.000 OA
ATOM     14  H   UNL     1       0.391   2.447  21.987  0.00  0.00    +0.000 HD
ATOM     15  H   UNL     1       0.158   2.924  20.335  0.00  0.00    +0.000 HD
ENDBRANCH   1  12
TORSDOF 1
ENDMDL
