MODEL 1
REMARK VINA RESULT:      -9.9      0.000      0.000
REMARK  Name = 
REMARK  5 active torsions:
REMARK  status: ('A' for Active; 'I' for Inactive)
REMARK    1  A    between atoms: C_1  and  C_2
REMARK    2  A    between atoms: C_2  and  C_3
REMARK    3  A    between atoms: C_5  and  N_6
REMARK    4  A    between atoms: N_9  and  C_10
REMARK    5  A    between atoms: C_19  and  N_20
REMARK                            x       y       z     vdW  Elec       q    Type
REMARK                         _______ _______ _______ _____ _____    ______ ____
ROOT
ATOM      1  N   UNL     1      -1.770  11.734  21.708  0.00  0.00    +0.000 N 
ATOM      2  C   UNL     1      -0.571  11.182  21.309  0.00  0.00    +0.000 C 
ATOM      3  O   UNL     1       0.466  11.357  21.917  0.00  0.00    +0.000 OA
ATOM      4  N   UNL     1      -0.686  10.433  20.151  0.00  0.00    +0.000 N 
ATOM      5  H   UNL     1      -2.624  11.330  21.356  0.00  0.00    +0.000 HD
ATOM      6  H   UNL     1      -1.370  10.773  19.491  0.00  0.00    +0.000 HD
ENDROOT
BRANCH   1  11
ATOM      7  C   UNL     1      -5.538  12.755  23.993  0.00  0.00    +0.000 C 
ATOM      8  C   UNL     1      -4.286  13.075  23.162  0.00  0.00    +0.000 C 
ATOM      9  C   UNL     1      -4.618  12.759  21.694  0.00  0.00    +0.000 C 
ATOM     10  C   UNL     1      -3.110  12.291  23.754  0.00  0.00    +0.000 C 
ATOM     11  C   UNL     1      -1.830  12.517  22.945  0.00  0.00    +0.000 C 
ATOM     12  C   UNL     1      -1.682  14.001  22.686  0.00  0.00    +0.000 A 
ATOM     13  C   UNL     1      -0.447  14.527  22.273  0.00  0.00    +0.000 A 
ATOM     14  C   UNL     1      -0.294  15.901  22.084  0.00  0.00    +0.000 A 
ATOM     15  C   UNL     1      -1.370  16.751  22.313  0.00  0.00    +0.000 A 
ATOM     16  F   UNL     1      -1.215  18.070  22.140  0.00  0.00    +0.000 F 
ATOM     17  C   UNL     1      -2.601  16.255  22.719  0.00  0.00    +0.000 A 
ATOM     18  C   UNL     1      -2.762  14.881  22.891  0.00  0.00    +0.000 A 
ATOM     19  O   UNL     1      -4.019  14.484  23.281  0.00  0.00    +0.000 OA
ENDBRANCH   1  11
BRANCH   4  20
ATOM     20  C   UNL     1       0.456   9.784  19.622  0.00  0.00    +0.000 A 
ATOM     21  C   UNL     1       0.926  10.125  18.350  0.00  0.00    +0.000 A 
ATOM     22  C   UNL     1       1.976   9.412  17.769  0.00  0.00    +0.000 A 
ATOM     23  C   UNL     1       2.516   8.302  18.426  0.00  0.00    +0.000 A 
ATOM     24  C   UNL     1       2.024   7.945  19.686  0.00  0.00    +0.000 A 
ATOM     25  C   UNL     1       1.040   8.717  20.313  0.00  0.00    +0.000 A 
ATOM     26  N   UNL     1       2.390   6.717  20.251  0.00  0.00    +0.000 N 
ATOM     27  C   UNL     1       3.230   5.818  19.631  0.00  0.00    +0.000 C 
ATOM     28  O   UNL     1       3.197   4.637  19.966  0.00  0.00    +0.000 OA
ATOM     29  C   UNL     1       4.224   6.449  18.634  0.00  0.00    +0.000 C 
ATOM     30  C   UNL     1       3.485   7.410  17.694  0.00  0.00    +0.000 C 
ATOM     31  H   UNL     1       1.852   6.346  21.024  0.00  0.00    +0.000 HD
BRANCH  29  32
ATOM     32  N   UNL     1       5.130   5.494  17.925  0.00  0.00    +0.000 NA
ATOM     33  C   UNL     1       4.601   5.136  16.598  0.00  0.00    +0.000 C 
ATOM     34  C   UNL     1       5.356   4.017  15.872  0.00  0.00    +0.000 C 
ATOM     35  C   UNL     1       6.730   4.471  15.396  0.00  0.00    +0.000 C 
ATOM     36  O   UNL     1       7.775   4.317  16.347  0.00  0.00    +0.000 OA
ATOM     37  C   UNL     1       7.452   4.636  17.697  0.00  0.00    +0.000 C 
ATOM     38  C   UNL     1       6.553   5.872  17.895  0.00  0.00    +0.000 C 
ENDBRANCH  29  32
ENDBRANCH   4  20
TORSDOF 3
ENDMDL
MODEL 2
REMARK VINA RESULT:      -9.4      3.513     11.564
REMARK  Name = 
REMARK  5 active torsions:
REMARK  status: ('A' for Active; 'I' for Inactive)
REMARK    1  A    between atoms: C_1  and  C_2
REMARK    2  A    between atoms: C_2  and  C_3
REMARK    3  A    between atoms: C_5  and  N_6
REMARK    4  A    between atoms: N_9  and  C_10
REMARK    5  A    between atoms: C_19  and  N_20
REMARK                            x       y       z     vdW  Elec       q    Type
REMARK                         _______ _______ _______ _____ _____    ______ ____
ROOT
ATOM      1  N   UNL     1       2.587   6.798  19.653  0.00  0.00    +0.000 N 
ATOM      2  C   UNL     1       1.758   7.852  19.976  0.00  0.00    +0.000 C 
ATOM      3  O   UNL     1       1.026   8.383  19.165  0.00  0.00    +0.000 OA
ATOM      4  N   UNL     1       1.867   8.231  21.303  0.00  0.00    +0.000 N 
ATOM      5  H   UNL     1       2.937   6.218  20.399  0.00  0.00    +0.000 HD
ATOM      6  H   UNL     1       2.789   8.128  21.700  0.00  0.00    +0.000 HD
ENDROOT
BRANCH   1  11
ATOM      7  C   UNL     1       1.354   2.584  18.565  0.00  0.00    +0.000 C 
ATOM      8  C   UNL     1       2.341   3.756  18.691  0.00  0.00    +0.000 C 
ATOM      9  C   UNL     1       2.786   3.821  20.161  0.00  0.00    +0.000 C 
ATOM     10  C   UNL     1       1.653   5.016  18.156  0.00  0.00    +0.000 C 
ATOM     11  C   UNL     1       2.556   6.243  18.297  0.00  0.00    +0.000 C 
ATOM     12  C   UNL     1       3.940   5.881  17.801  0.00  0.00    +0.000 A 
ATOM     13  C   UNL     1       4.868   6.889  17.495  0.00  0.00    +0.000 A 
ATOM     14  C   UNL     1       6.125   6.559  16.988  0.00  0.00    +0.000 A 
ATOM     15  C   UNL     1       6.454   5.224  16.779  0.00  0.00    +0.000 A 
ATOM     16  F   UNL     1       7.659   4.913  16.282  0.00  0.00    +0.000 F 
ATOM     17  C   UNL     1       5.555   4.210  17.076  0.00  0.00    +0.000 A 
ATOM     18  C   UNL     1       4.305   4.535  17.600  0.00  0.00    +0.000 A 
ATOM     19  O   UNL     1       3.489   3.464  17.875  0.00  0.00    +0.000 OA
ENDBRANCH   1  11
BRANCH   4  20
ATOM     20  C   UNL     1       1.065   9.288  21.796  0.00  0.00    +0.000 A 
ATOM     21  C   UNL     1       0.153   9.050  22.828  0.00  0.00    +0.000 A 
ATOM     22  C   UNL     1      -0.726  10.053  23.242  0.00  0.00    +0.000 A 
ATOM     23  C   UNL     1      -0.749  11.282  22.576  0.00  0.00    +0.000 A 
ATOM     24  C   UNL     1       0.146  11.508  21.524  0.00  0.00    +0.000 A 
ATOM     25  C   UNL     1       1.093  10.540  21.172  0.00  0.00    +0.000 A 
ATOM     26  N   UNL     1      -0.016  12.633  20.707  0.00  0.00    +0.000 N 
ATOM     27  C   UNL     1      -1.021  13.558  20.881  0.00  0.00    +0.000 C 
ATOM     28  O   UNL     1      -1.351  14.272  19.936  0.00  0.00    +0.000 OA
ATOM     29  C   UNL     1      -1.554  13.666  22.325  0.00  0.00    +0.000 C 
ATOM     30  C   UNL     1      -1.848  12.266  22.881  0.00  0.00    +0.000 C 
ATOM     31  H   UNL     1       0.456  12.669  19.812  0.00  0.00    +0.000 HD
BRANCH  29  32
ATOM     32  N   UNL     1      -2.666  14.641  22.539  0.00  0.00    +0.000 NA
ATOM     33  C   UNL     1      -3.718  14.079  23.402  0.00  0.00    +0.000 C 
ATOM     34  C   UNL     1      -4.988  14.925  23.525  0.00  0.00    +0.000 C 
ATOM     35  C   UNL     1      -4.753  16.193  24.338  0.00  0.00    +0.000 C 
ATOM     36  O   UNL     1      -4.294  17.310  23.588  0.00  0.00    +0.000 OA
ATOM     37  C   UNL     1      -3.330  17.036  22.576  0.00  0.00    +0.000 C 
ATOM     38  C   UNL     1      -2.253  15.997  22.941  0.00  0.00    +0.000 C 
ENDBRANCH  29  32
ENDBRANCH   4  20
TORSDOF 3
ENDMDL
MODEL 3
REMARK VINA RESULT:      -9.2      3.547     11.588
REMARK  Name = 
REMARK  5 active torsions:
REMARK  status: ('A' for Active; 'I' for Inactive)
REMARK    1  A    between atoms: C_1  and  C_2
REMARK    2  A    between atoms: C_2  and  C_3
REMARK    3  A    between atoms: C_5  and  N_6
REMARK    4  A    between atoms: N_9  and  C_10
REMARK    5  A    between atoms: C_19  and  N_20
REMARK                            x       y       z     vdW  Elec       q    Type
REMARK                         _______ _______ _______ _____ _____    ______ ____
ROOT
ATOM      1  N   UNL     1       2.776   6.756  19.708  0.00  0.00    +0.000 N 
ATOM      2  C   UNL     1       1.881   7.778  19.946  0.00  0.00    +0.000 C 
ATOM      3  O   UNL     1       1.197   8.267  19.070  0.00  0.00    +0.000 OA
ATOM      4  N   UNL     1       1.865   8.177  21.271  0.00  0.00    +0.000 N 
ATOM      5  H   UNL     1       3.087   6.200  20.490  0.00  0.00    +0.000 HD
ATOM      6  H   UNL     1       2.755   8.118  21.744  0.00  0.00    +0.000 HD
ENDROOT
BRANCH   1  11
ATOM      7  C   UNL     1       1.333   2.648  18.483  0.00  0.00    +0.000 C 
ATOM      8  C   UNL     1       2.393   3.731  18.736  0.00  0.00    +0.000 C 
ATOM      9  C   UNL     1       2.640   3.782  20.253  0.00  0.00    +0.000 C 
ATOM     10  C   UNL     1       1.898   5.037  18.107  0.00  0.00    +0.000 C 
ATOM     11  C   UNL     1       2.880   6.183  18.364  0.00  0.00    +0.000 C 
ATOM     12  C   UNL     1       4.280   5.693  18.062  0.00  0.00    +0.000 A 
ATOM     13  C   UNL     1       5.327   6.612  17.880  0.00  0.00    +0.000 A 
ATOM     14  C   UNL     1       6.607   6.164  17.550  0.00  0.00    +0.000 A 
ATOM     15  C   UNL     1       6.841   4.803  17.394  0.00  0.00    +0.000 A 
ATOM     16  F   UNL     1       8.069   4.379  17.068  0.00  0.00    +0.000 F 
ATOM     17  C   UNL     1       5.824   3.876  17.571  0.00  0.00    +0.000 A 
ATOM     18  C   UNL     1       4.549   4.318  17.919  0.00  0.00    +0.000 A 
ATOM     19  O   UNL     1       3.611   3.326  18.085  0.00  0.00    +0.000 OA
ENDBRANCH   1  11
BRANCH   4  20
ATOM     20  C   UNL     1       0.983   9.206  21.681  0.00  0.00    +0.000 A 
ATOM     21  C   UNL     1       0.485   9.220  22.987  0.00  0.00    +0.000 A 
ATOM     22  C   UNL     1      -0.476  10.158  23.369  0.00  0.00    +0.000 A 
ATOM     23  C   UNL     1      -1.002  11.045  22.424  0.00  0.00    +0.000 A 
ATOM     24  C   UNL     1      -0.522  11.010  21.110  0.00  0.00    +0.000 A 
ATOM     25  C   UNL     1       0.510  10.137  20.749  0.00  0.00    +0.000 A 
ATOM     26  N   UNL     1      -1.191  11.725  20.110  0.00  0.00    +0.000 N 
ATOM     27  C   UNL     1      -2.316  12.486  20.344  0.00  0.00    +0.000 C 
ATOM     28  O   UNL     1      -3.067  12.751  19.409  0.00  0.00    +0.000 OA
ATOM     29  C   UNL     1      -2.439  13.024  21.784  0.00  0.00    +0.000 C 
ATOM     30  C   UNL     1      -2.192  11.892  22.791  0.00  0.00    +0.000 C 
ATOM     31  H   UNL     1      -1.010  11.507  19.138  0.00  0.00    +0.000 HD
BRANCH  29  32
ATOM     32  N   UNL     1      -3.664  13.829  22.077  0.00  0.00    +0.000 NA
ATOM     33  C   UNL     1      -4.816  12.965  22.384  0.00  0.00    +0.000 C 
ATOM     34  C   UNL     1      -6.162  13.686  22.508  0.00  0.00    +0.000 C 
ATOM     35  C   UNL     1      -6.240  14.537  23.770  0.00  0.00    +0.000 C 
ATOM     36  O   UNL     1      -5.744  15.861  23.632  0.00  0.00    +0.000 OA
ATOM     37  C   UNL     1      -4.560  16.013  22.856  0.00  0.00    +0.000 C 
ATOM     38  C   UNL     1      -3.489  14.923  23.048  0.00  0.00    +0.000 C 
ENDBRANCH  29  32
ENDBRANCH   4  20
TORSDOF 3
ENDMDL
MODEL 4
REMARK VINA RESULT:      -9.2      3.800     11.701
REMARK  Name = 
REMARK  5 active torsions:
REMARK  status: ('A' for Active; 'I' for Inactive)
REMARK    1  A    between atoms: C_1  and  C_2
REMARK    2  A    between atoms: C_2  and  C_3
REMARK    3  A    between atoms: C_5  and  N_6
REMARK    4  A    between atoms: N_9  and  C_10
REMARK    5  A    between atoms: C_19  and  N_20
REMARK                            x       y       z     vdW  Elec       q    Type
REMARK                         _______ _______ _______ _____ _____    ______ ____
ROOT
ATOM      1  N   UNL     1       2.981   6.968  18.784  0.00  0.00    +0.000 N 
ATOM      2  C   UNL     1       2.091   7.810  19.417  0.00  0.00    +0.000 C 
ATOM      3  O   UNL     1       1.668   7.597  20.535  0.00  0.00    +0.000 OA
ATOM      4  N   UNL     1       1.736   8.897  18.637  0.00  0.00    +0.000 N 
ATOM      5  H   UNL     1       3.515   7.330  18.009  0.00  0.00    +0.000 HD
ATOM      6  H   UNL     1       1.694   8.713  17.646  0.00  0.00    +0.000 HD
ENDROOT
BRANCH   1  11
ATOM      7  C   UNL     1       6.633   4.575  17.603  0.00  0.00    +0.000 C 
ATOM      8  C   UNL     1       5.132   4.791  17.849  0.00  0.00    +0.000 C 
ATOM      9  C   UNL     1       4.576   5.554  16.635  0.00  0.00    +0.000 C 
ATOM     10  C   UNL     1       4.968   5.495  19.199  0.00  0.00    +0.000 C 
ATOM     11  C   UNL     1       3.496   5.794  19.493  0.00  0.00    +0.000 C 
ATOM     12  C   UNL     1       2.684   4.551  19.196  0.00  0.00    +0.000 A 
ATOM     13  C   UNL     1       1.376   4.425  19.692  0.00  0.00    +0.000 A 
ATOM     14  C   UNL     1       0.646   3.258  19.464  0.00  0.00    +0.000 A 
ATOM     15  C   UNL     1       1.222   2.215  18.748  0.00  0.00    +0.000 A 
ATOM     16  F   UNL     1       0.520   1.093  18.540  0.00  0.00    +0.000 F 
ATOM     17  C   UNL     1       2.511   2.316  18.245  0.00  0.00    +0.000 A 
ATOM     18  C   UNL     1       3.237   3.488  18.456  0.00  0.00    +0.000 A 
ATOM     19  O   UNL     1       4.499   3.500  17.910  0.00  0.00    +0.000 OA
ENDBRANCH   1  11
BRANCH   4  20
ATOM     20  C   UNL     1       0.843   9.867  19.154  0.00  0.00    +0.000 A 
ATOM     21  C   UNL     1       1.006  10.343  20.457  0.00  0.00    +0.000 A 
ATOM     22  C   UNL     1       0.065  11.208  21.019  0.00  0.00    +0.000 A 
ATOM     23  C   UNL     1      -1.088  11.546  20.305  0.00  0.00    +0.000 A 
ATOM     24  C   UNL     1      -1.264  11.045  19.010  0.00  0.00    +0.000 A 
ATOM     25  C   UNL     1      -0.276  10.257  18.409  0.00  0.00    +0.000 A 
ATOM     26  N   UNL     1      -2.504  11.185  18.376  0.00  0.00    +0.000 N 
ATOM     27  C   UNL     1      -3.587  11.806  18.957  0.00  0.00    +0.000 C 
ATOM     28  O   UNL     1      -4.717  11.555  18.543  0.00  0.00    +0.000 OA
ATOM     29  C   UNL     1      -3.228  12.863  20.021  0.00  0.00    +0.000 C 
ATOM     30  C   UNL     1      -2.196  12.290  21.003  0.00  0.00    +0.000 C 
ATOM     31  H   UNL     1      -2.714  10.616  17.565  0.00  0.00    +0.000 HD
BRANCH  29  32
ATOM     32  N   UNL     1      -4.384  13.534  20.690  0.00  0.00    +0.000 NA
ATOM     33  C   UNL     1      -4.804  12.805  21.898  0.00  0.00    +0.000 C 
ATOM     34  C   UNL     1      -6.099  13.302  22.547  0.00  0.00    +0.000 C 
ATOM     35  C   UNL     1      -5.919  14.660  23.216  0.00  0.00    +0.000 C 
ATOM     36  O   UNL     1      -6.123  15.779  22.365  0.00  0.00    +0.000 OA
ATOM     37  C   UNL     1      -5.609  15.668  21.042  0.00  0.00    +0.000 C 
ATOM     38  C   UNL     1      -4.235  14.983  20.914  0.00  0.00    +0.000 C 
ENDBRANCH  29  32
ENDBRANCH   4  20
TORSDOF 3
ENDMDL
MODEL 5
REMARK VINA RESULT:      -9.2      1.741      2.741
REMARK  Name = 
REMARK  5 active torsions:
REMARK  status: ('A' for Active; 'I' for Inactive)
REMARK    1  A    between atoms: C_1  and  C_2
REMARK    2  A    between atoms: C_2  and  C_3
REMARK    3  A    between atoms: C_5  and  N_6
REMARK    4  A    between atoms: N_9  and  C_10
REMARK    5  A    between atoms: C_19  and  N_20
REMARK                            x       y       z     vdW  Elec       q    Type
REMARK                         _______ _______ _______ _____ _____    ______ ____
ROOT
ATOM      1  N   UNL     1      -2.091  11.967  20.577  0.00  0.00    +0.000 N 
ATOM      2  C   UNL     1      -0.942  11.519  19.958  0.00  0.00    +0.000 C 
ATOM      3  O   UNL     1      -0.229  12.246  19.295  0.00  0.00    +0.000 OA
ATOM      4  N   UNL     1      -0.712  10.171  20.168  0.00  0.00    +0.000 N 
ATOM      5  H   UNL     1      -2.470  11.420  21.334  0.00  0.00    +0.000 HD
ATOM      6  H   UNL     1      -1.543   9.604  20.238  0.00  0.00    +0.000 HD
ENDROOT
BRANCH   1  11
ATOM      7  C   UNL     1      -1.161  15.104  23.700  0.00  0.00    +0.000 C 
ATOM      8  C   UNL     1      -2.087  14.217  22.852  0.00  0.00    +0.000 C 
ATOM      9  C   UNL     1      -2.078  12.814  23.483  0.00  0.00    +0.000 C 
ATOM     10  C   UNL     1      -1.610  14.287  21.398  0.00  0.00    +0.000 C 
ATOM     11  C   UNL     1      -2.452  13.384  20.494  0.00  0.00    +0.000 C 
ATOM     12  C   UNL     1      -3.915  13.616  20.812  0.00  0.00    +0.000 A 
ATOM     13  C   UNL     1      -4.909  13.188  19.918  0.00  0.00    +0.000 A 
ATOM     14  C   UNL     1      -6.254  13.447  20.184  0.00  0.00    +0.000 A 
ATOM     15  C   UNL     1      -6.607  14.139  21.337  0.00  0.00    +0.000 A 
ATOM     16  F   UNL     1      -7.898  14.395  21.582  0.00  0.00    +0.000 F 
ATOM     17  C   UNL     1      -5.642  14.571  22.237  0.00  0.00    +0.000 A 
ATOM     18  C   UNL     1      -4.299  14.297  21.983  0.00  0.00    +0.000 A 
ATOM     19  O   UNL     1      -3.419  14.752  22.937  0.00  0.00    +0.000 OA
ENDBRANCH   1  11
BRANCH   4  20
ATOM     20  C   UNL     1       0.441   9.564  19.613  0.00  0.00    +0.000 A 
ATOM     21  C   UNL     1       0.853   9.900  18.320  0.00  0.00    +0.000 A 
ATOM     22  C   UNL     1       1.915   9.223  17.717  0.00  0.00    +0.000 A 
ATOM     23  C   UNL     1       2.527   8.152  18.376  0.00  0.00    +0.000 A 
ATOM     24  C   UNL     1       2.093   7.799  19.659  0.00  0.00    +0.000 A 
ATOM     25  C   UNL     1       1.095   8.538  20.304  0.00  0.00    +0.000 A 
ATOM     26  N   UNL     1       2.533   6.601  20.233  0.00  0.00    +0.000 N 
ATOM     27  C   UNL     1       3.393   5.728  19.602  0.00  0.00    +0.000 C 
ATOM     28  O   UNL     1       3.425   4.553  19.960  0.00  0.00    +0.000 OA
ATOM     29  C   UNL     1       4.324   6.383  18.561  0.00  0.00    +0.000 C 
ATOM     30  C   UNL     1       3.511   7.291  17.629  0.00  0.00    +0.000 C 
ATOM     31  H   UNL     1       2.038   6.221  21.030  0.00  0.00    +0.000 HD
BRANCH  29  32
ATOM     32  N   UNL     1       5.248   5.456  17.839  0.00  0.00    +0.000 NA
ATOM     33  C   UNL     1       4.738   5.123  16.499  0.00  0.00    +0.000 C 
ATOM     34  C   UNL     1       5.514   4.031  15.755  0.00  0.00    +0.000 C 
ATOM     35  C   UNL     1       6.888   4.513  15.305  0.00  0.00    +0.000 C 
ATOM     36  O   UNL     1       7.924   4.348  16.264  0.00  0.00    +0.000 OA
ATOM     37  C   UNL     1       7.583   4.631  17.617  0.00  0.00    +0.000 C 
ATOM     38  C   UNL     1       6.667   5.851  17.834  0.00  0.00    +0.000 C 
ENDBRANCH  29  32
ENDBRANCH   4  20
TORSDOF 3
ENDMDL
MODEL 6
REMARK VINA RESULT:      -9.2      2.080      3.036
REMARK  Name = 
REMARK  5 active torsions:
REMARK  status: ('A' for Active; 'I' for Inactive)
REMARK    1  A    between atoms: C_1  and  C_2
REMARK    2  A    between atoms: C_2  and  C_3
REMARK    3  A    between atoms: C_5  and  N_6
REMARK    4  A    between atoms: N_9  and  C_10
REMARK    5  A    between atoms: C_19  and  N_20
REMARK                            x       y       z     vdW  Elec       q    Type
REMARK                         _______ _______ _______ _____ _____    ______ ____
ROOT
ATOM      1  N   UNL     1      -1.973  11.739  20.976  0.00  0.00    +0.000 N 
ATOM      2  C   UNL     1      -0.925  11.284  20.203  0.00  0.00    +0.000 C 
ATOM      3  O   UNL     1      -0.522  11.884  19.227  0.00  0.00    +0.000 OA
ATOM      4  N   UNL     1      -0.409  10.083  20.657  0.00  0.00    +0.000 N 
ATOM      5  H   UNL     1      -2.070  11.378  21.912  0.00  0.00    +0.000 HD
ATOM      6  H   UNL     1      -1.085   9.459  21.071  0.00  0.00    +0.000 HD
ENDROOT
BRANCH   1  11
ATOM      7  C   UNL     1      -3.584  14.694  23.998  0.00  0.00    +0.000 C 
ATOM      8  C   UNL     1      -3.694  13.692  22.838  0.00  0.00    +0.000 C 
ATOM      9  C   UNL     1      -3.635  12.281  23.447  0.00  0.00    +0.000 C 
ATOM     10  C   UNL     1      -2.592  14.017  21.825  0.00  0.00    +0.000 C 
ATOM     11  C   UNL     1      -2.601  13.025  20.659  0.00  0.00    +0.000 C 
ATOM     12  C   UNL     1      -4.028  12.857  20.182  0.00  0.00    +0.000 A 
ATOM     13  C   UNL     1      -4.292  12.284  18.927  0.00  0.00    +0.000 A 
ATOM     14  C   UNL     1      -5.603  12.177  18.464  0.00  0.00    +0.000 A 
ATOM     15  C   UNL     1      -6.651  12.647  19.247  0.00  0.00    +0.000 A 
ATOM     16  F   UNL     1      -7.907  12.551  18.794  0.00  0.00    +0.000 F 
ATOM     17  C   UNL     1      -6.416  13.214  20.492  0.00  0.00    +0.000 A 
ATOM     18  C   UNL     1      -5.109  13.306  20.966  0.00  0.00    +0.000 A 
ATOM     19  O   UNL     1      -4.977  13.870  22.213  0.00  0.00    +0.000 OA
ENDBRANCH   1  11
BRANCH   4  20
ATOM     20  C   UNL     1       0.687   9.493  19.981  0.00  0.00    +0.000 A 
ATOM     21  C   UNL     1       1.022   9.917  18.692  0.00  0.00    +0.000 A 
ATOM     22  C   UNL     1       2.022   9.264  17.969  0.00  0.00    +0.000 A 
ATOM     23  C   UNL     1       2.646   8.132  18.503  0.00  0.00    +0.000 A 
ATOM     24  C   UNL     1       2.288   7.692  19.783  0.00  0.00    +0.000 A 
ATOM     25  C   UNL     1       1.356   8.403  20.547  0.00  0.00    +0.000 A 
ATOM     26  N   UNL     1       2.731   6.444  20.235  0.00  0.00    +0.000 N 
ATOM     27  C   UNL     1       3.522   5.602  19.484  0.00  0.00    +0.000 C 
ATOM     28  O   UNL     1       3.544   4.403  19.750  0.00  0.00    +0.000 OA
ATOM     29  C   UNL     1       4.400   6.312  18.433  0.00  0.00    +0.000 C 
ATOM     30  C   UNL     1       3.553   7.308  17.628  0.00  0.00    +0.000 C 
ATOM     31  H   UNL     1       2.279   6.016  21.034  0.00  0.00    +0.000 HD
BRANCH  29  32
ATOM     32  N   UNL     1       5.248   5.422  17.583  0.00  0.00    +0.000 NA
ATOM     33  C   UNL     1       4.719   5.322  16.213  0.00  0.00    +0.000 C 
ATOM     34  C   UNL     1       5.405   4.284  15.319  0.00  0.00    +0.000 C 
ATOM     35  C   UNL     1       6.817   4.708  14.932  0.00  0.00    +0.000 C 
ATOM     36  O   UNL     1       7.831   4.327  15.851  0.00  0.00    +0.000 OA
ATOM     37  C   UNL     1       7.507   4.445  17.233  0.00  0.00    +0.000 C 
ATOM     38  C   UNL     1       6.695   5.695  17.624  0.00  0.00    +0.000 C 
ENDBRANCH  29  32
ENDBRANCH   4  20
TORSDOF 3
ENDMDL
MODEL 7
REMARK VINA RESULT:      -9.1      3.729     11.937
REMARK  Name = 
REMARK  5 active torsions:
REMARK  status: ('A' for Active; 'I' for Inactive)
REMARK    1  A    between atoms: C_1  and  C_2
REMARK    2  A    between atoms: C_2  and  C_3
REMARK    3  A    between atoms: C_5  and  N_6
REMARK    4  A    between atoms: N_9  and  C_10
REMARK    5  A    between atoms: C_19  and  N_20
REMARK                            x       y       z     vdW  Elec       q    Type
REMARK                         _______ _______ _______ _____ _____    ______ ____
ROOT
ATOM      1  N   UNL     1       4.286   7.021  17.384  0.00  0.00    +0.000 N 
ATOM      2  C   UNL     1       3.097   7.394  17.976  0.00  0.00    +0.000 C 
ATOM      3  O   UNL     1       2.403   6.617  18.600  0.00  0.00    +0.000 OA
ATOM      4  N   UNL     1       2.791   8.727  17.767  0.00  0.00    +0.000 N 
ATOM      5  H   UNL     1       4.948   7.742  17.144  0.00  0.00    +0.000 HD
ATOM      6  H   UNL     1       3.091   9.098  16.877  0.00  0.00    +0.000 HD
ENDROOT
BRANCH   1  11
ATOM      7  C   UNL     1       8.175   5.856  19.378  0.00  0.00    +0.000 C 
ATOM      8  C   UNL     1       7.201   5.982  18.196  0.00  0.00    +0.000 C 
ATOM      9  C   UNL     1       7.266   7.437  17.703  0.00  0.00    +0.000 C 
ATOM     10  C   UNL     1       5.821   5.507  18.664  0.00  0.00    +0.000 C 
ATOM     11  C   UNL     1       4.779   5.652  17.552  0.00  0.00    +0.000 C 
ATOM     12  C   UNL     1       5.364   5.098  16.270  0.00  0.00    +0.000 A 
ATOM     13  C   UNL     1       4.526   4.789  15.186  0.00  0.00    +0.000 A 
ATOM     14  C   UNL     1       5.057   4.229  14.024  0.00  0.00    +0.000 A 
ATOM     15  C   UNL     1       6.420   3.971  13.944  0.00  0.00    +0.000 A 
ATOM     16  F   UNL     1       6.923   3.425  12.829  0.00  0.00    +0.000 F 
ATOM     17  C   UNL     1       7.269   4.270  15.000  0.00  0.00    +0.000 A 
ATOM     18  C   UNL     1       6.745   4.846  16.156  0.00  0.00    +0.000 A 
ATOM     19  O   UNL     1       7.664   5.118  17.142  0.00  0.00    +0.000 OA
ENDBRANCH   1  11
BRANCH   4  20
ATOM     20  C   UNL     1       1.610   9.270  18.328  0.00  0.00    +0.000 A 
ATOM     21  C   UNL     1       0.449   9.366  17.555  0.00  0.00    +0.000 A 
ATOM     22  C   UNL     1      -0.685  10.006  18.057  0.00  0.00    +0.000 A 
ATOM     23  C   UNL     1      -0.644  10.622  19.312  0.00  0.00    +0.000 A 
ATOM     24  C   UNL     1       0.529  10.549  20.072  0.00  0.00    +0.000 A 
ATOM     25  C   UNL     1       1.634   9.825  19.613  0.00  0.00    +0.000 A 
ATOM     26  N   UNL     1       0.662  11.345  21.217  0.00  0.00    +0.000 N 
ATOM     27  C   UNL     1      -0.314  12.211  21.656  0.00  0.00    +0.000 C 
ATOM     28  O   UNL     1      -0.003  13.142  22.396  0.00  0.00    +0.000 OA
ATOM     29  C   UNL     1      -1.749  11.827  21.241  0.00  0.00    +0.000 C 
ATOM     30  C   UNL     1      -1.791  11.498  19.742  0.00  0.00    +0.000 C 
ATOM     31  H   UNL     1       1.581  11.487  21.618  0.00  0.00    +0.000 HD
BRANCH  29  32
ATOM     32  N   UNL     1      -2.828  12.764  21.679  0.00  0.00    +0.000 NA
ATOM     33  C   UNL     1      -3.886  12.881  20.662  0.00  0.00    +0.000 C 
ATOM     34  C   UNL     1      -4.938  13.962  20.931  0.00  0.00    +0.000 C 
ATOM     35  C   UNL     1      -5.852  13.593  22.093  0.00  0.00    +0.000 C 
ATOM     36  O   UNL     1      -5.379  13.984  23.375  0.00  0.00    +0.000 OA
ATOM     37  C   UNL     1      -3.984  13.821  23.610  0.00  0.00    +0.000 C 
ATOM     38  C   UNL     1      -3.355  12.537  23.036  0.00  0.00    +0.000 C 
ENDBRANCH  29  32
ENDBRANCH   4  20
TORSDOF 3
ENDMDL
MODEL 8
REMARK VINA RESULT:      -9.0      4.075     11.702
REMARK  Name = 
REMARK  5 active torsions:
REMARK  status: ('A' for Active; 'I' for Inactive)
REMARK    1  A    between atoms: C_1  and  C_2
REMARK    2  A    between atoms: C_2  and  C_3
REMARK    3  A    between atoms: C_5  and  N_6
REMARK    4  A    between atoms: N_9  and  C_10
REMARK    5  A    between atoms: C_19  and  N_20
REMARK                            x       y       z     vdW  Elec       q    Type
REMARK                         _______ _______ _______ _____ _____    ______ ____
ROOT
ATOM      1  N   UNL     1       3.204   7.121  18.263  0.00  0.00    +0.000 N 
ATOM      2  C   UNL     1       2.197   7.921  18.762  0.00  0.00    +0.000 C 
ATOM      3  O   UNL     1       1.741   7.780  19.880  0.00  0.00    +0.000 OA
ATOM      4  N   UNL     1       1.770   8.873  17.854  0.00  0.00    +0.000 N 
ATOM      5  H   UNL     1       3.735   7.456  17.475  0.00  0.00    +0.000 HD
ATOM      6  H   UNL     1       1.799   8.582  16.888  0.00  0.00    +0.000 HD
ENDROOT
BRANCH   1  11
ATOM      7  C   UNL     1       7.029   4.872  17.385  0.00  0.00    +0.000 C 
ATOM      8  C   UNL     1       5.514   5.006  17.610  0.00  0.00    +0.000 C 
ATOM      9  C   UNL     1       4.907   5.558  16.309  0.00  0.00    +0.000 C 
ATOM     10  C   UNL     1       5.293   5.868  18.857  0.00  0.00    +0.000 C 
ATOM     11  C   UNL     1       3.802   6.093  19.118  0.00  0.00    +0.000 C 
ATOM     12  C   UNL     1       3.087   4.764  18.993  0.00  0.00    +0.000 A 
ATOM     13  C   UNL     1       1.791   4.607  19.510  0.00  0.00    +0.000 A 
ATOM     14  C   UNL     1       1.150   3.369  19.442  0.00  0.00    +0.000 A 
ATOM     15  C   UNL     1       1.805   2.286  18.867  0.00  0.00    +0.000 A 
ATOM     16  F   UNL     1       1.190   1.098  18.813  0.00  0.00    +0.000 F 
ATOM     17  C   UNL     1       3.085   2.417  18.347  0.00  0.00    +0.000 A 
ATOM     18  C   UNL     1       3.720   3.656  18.396  0.00  0.00    +0.000 A 
ATOM     19  O   UNL     1       4.980   3.691  17.846  0.00  0.00    +0.000 OA
ENDBRANCH   1  11
BRANCH   4  20
ATOM     20  C   UNL     1       0.752   9.786  18.223  0.00  0.00    +0.000 A 
ATOM     21  C   UNL     1       0.970  10.689  19.267  0.00  0.00    +0.000 A 
ATOM     22  C   UNL     1      -0.063  11.512  19.719  0.00  0.00    +0.000 A 
ATOM     23  C   UNL     1      -1.346  11.385  19.179  0.00  0.00    +0.000 A 
ATOM     24  C   UNL     1      -1.569  10.459  18.153  0.00  0.00    +0.000 A 
ATOM     25  C   UNL     1      -0.513   9.703  17.632  0.00  0.00    +0.000 A 
ATOM     26  N   UNL     1      -2.880  10.159  17.763  0.00  0.00    +0.000 N 
ATOM     27  C   UNL     1      -3.992  10.737  18.335  0.00  0.00    +0.000 C 
ATOM     28  O   UNL     1      -5.077  10.169  18.246  0.00  0.00    +0.000 OA
ATOM     29  C   UNL     1      -3.750  12.134  18.943  0.00  0.00    +0.000 C 
ATOM     30  C   UNL     1      -2.495  12.111  19.827  0.00  0.00    +0.000 C 
ATOM     31  H   UNL     1      -3.057   9.325  17.217  0.00  0.00    +0.000 HD
BRANCH  29  32
ATOM     32  N   UNL     1      -4.932  12.775  19.595  0.00  0.00    +0.000 NA
ATOM     33  C   UNL     1      -4.519  13.742  20.627  0.00  0.00    +0.000 C 
ATOM     34  C   UNL     1      -5.654  14.309  21.485  0.00  0.00    +0.000 C 
ATOM     35  C   UNL     1      -6.545  15.262  20.697  0.00  0.00    +0.000 C 
ATOM     36  O   UNL     1      -7.618  14.643  20.002  0.00  0.00    +0.000 OA
ATOM     37  C   UNL     1      -7.326  13.402  19.367  0.00  0.00    +0.000 C 
ATOM     38  C   UNL     1      -5.951  13.311  18.677  0.00  0.00    +0.000 C 
ENDBRANCH  29  32
ENDBRANCH   4  20
TORSDOF 3
ENDMDL
MODEL 9
REMARK VINA RESULT:      -8.9      4.288     11.602
REMARK  Name = 
REMARK  5 active torsions:
REMARK  status: ('A' for Active; 'I' for Inactive)
REMARK    1  A    between atoms: C_1  and  C_2
REMARK    2  A    between atoms: C_2  and  C_3
REMARK    3  A    between atoms: C_5  and  N_6
REMARK    4  A    between atoms: N_9  and  C_10
REMARK    5  A    between atoms: C_19  and  N_20
REMARK                            x       y       z     vdW  Elec       q    Type
REMARK                         _______ _______ _______ _____ _____    ______ ____
ROOT
ATOM      1  N   UNL     1       3.085   6.895  18.191  0.00  0.00    +0.000 N 
ATOM      2  C   UNL     1       2.435   7.971  18.759  0.00  0.00    +0.000 C 
ATOM      3  O   UNL     1       2.213   8.049  19.951  0.00  0.00    +0.000 OA
ATOM      4  N   UNL     1       2.063   8.925  17.827  0.00  0.00    +0.000 N 
ATOM      5  H   UNL     1       3.497   7.012  17.279  0.00  0.00    +0.000 HD
ATOM      6  H   UNL     1       1.810   8.558  16.922  0.00  0.00    +0.000 HD
ENDROOT
BRANCH   1  11
ATOM      7  C   UNL     1       6.788   4.421  17.402  0.00  0.00    +0.000 C 
ATOM      8  C   UNL     1       5.278   4.647  17.579  0.00  0.00    +0.000 C 
ATOM      9  C   UNL     1       4.750   5.255  16.269  0.00  0.00    +0.000 C 
ATOM     10  C   UNL     1       5.070   5.505  18.832  0.00  0.00    +0.000 C 
ATOM     11  C   UNL     1       3.588   5.820  19.049  0.00  0.00    +0.000 C 
ATOM     12  C   UNL     1       2.796   4.541  18.879  0.00  0.00    +0.000 A 
ATOM     13  C   UNL     1       1.475   4.460  19.352  0.00  0.00    +0.000 A 
ATOM     14  C   UNL     1       0.761   3.266  19.244  0.00  0.00    +0.000 A 
ATOM     15  C   UNL     1       1.365   2.152  18.672  0.00  0.00    +0.000 A 
ATOM     16  F   UNL     1       0.679   1.005  18.580  0.00  0.00    +0.000 F 
ATOM     17  C   UNL     1       2.668   2.208  18.197  0.00  0.00    +0.000 A 
ATOM     18  C   UNL     1       3.377   3.404  18.286  0.00  0.00    +0.000 A 
ATOM     19  O   UNL     1       4.654   3.366  17.777  0.00  0.00    +0.000 OA
ENDBRANCH   1  11
BRANCH   4  20
ATOM     20  C   UNL     1       1.402  10.101  18.256  0.00  0.00    +0.000 A 
ATOM     21  C   UNL     1       0.007  10.168  18.227  0.00  0.00    +0.000 A 
ATOM     22  C   UNL     1      -0.652  11.360  18.533  0.00  0.00    +0.000 A 
ATOM     23  C   UNL     1       0.085  12.519  18.799  0.00  0.00    +0.000 A 
ATOM     24  C   UNL     1       1.483  12.456  18.799  0.00  0.00    +0.000 A 
ATOM     25  C   UNL     1       2.144  11.241  18.589  0.00  0.00    +0.000 A 
ATOM     26  N   UNL     1       2.229  13.640  18.837  0.00  0.00    +0.000 N 
ATOM     27  C   UNL     1       1.660  14.894  18.882  0.00  0.00    +0.000 C 
ATOM     28  O   UNL     1       2.319  15.865  18.518  0.00  0.00    +0.000 OA
ATOM     29  C   UNL     1       0.253  14.939  19.511  0.00  0.00    +0.000 C 
ATOM     30  C   UNL     1      -0.630  13.840  18.903  0.00  0.00    +0.000 C 
ATOM     31  H   UNL     1       3.209  13.617  18.585  0.00  0.00    +0.000 HD
BRANCH  29  32
ATOM     32  N   UNL     1      -0.402  16.282  19.547  0.00  0.00    +0.000 NA
ATOM     33  C   UNL     1      -0.747  16.750  18.194  0.00  0.00    +0.000 C 
ATOM     34  C   UNL     1      -1.246  18.196  18.108  0.00  0.00    +0.000 C 
ATOM     35  C   UNL     1      -2.637  18.357  18.709  0.00  0.00    +0.000 C 
ATOM     36  O   UNL     1      -2.661  18.619  20.106  0.00  0.00    +0.000 OA
ATOM     37  C   UNL     1      -1.724  17.896  20.899  0.00  0.00    +0.000 C 
ATOM     38  C   UNL     1      -1.512  16.422  20.506  0.00  0.00    +0.000 C 
ENDBRANCH  29  32
ENDBRANCH   4  20
TORSDOF 3
ENDMDL
