MODEL 1
REMARK VINA RESULT:      -7.8      0.000      0.000
REMARK  Name = 
REMARK  10 active torsions:
REMARK  status: ('A' for Active; 'I' for Inactive)
REMARK    1  A    between atoms: C_2  and  C_3
REMARK    2  A    between atoms: C_3  and  C_4
REMARK    3  A    between atoms: C_5  and  C_6
REMARK    4  A    between atoms: C_6  and  C_7
REMARK    5  A    between atoms: C_7  and  C_8
REMARK    6  A    between atoms: C_10  and  C_11
REMARK    7  A    between atoms: C_18  and  N_19
REMARK    8  A    between atoms: N_19  and  C_20
REMARK    9  A    between atoms: C_23  and  C_24
REMARK   10  A    between atoms: C_24  and  O_26
REMARK                            x       y       z     vdW  Elec       q    Type
REMARK                         _______ _______ _______ _____ _____    ______ ____
ROOT
ATOM      1  C   UNL     1       3.800   4.326  19.686  0.00  0.00    +0.000 A 
ATOM      2  C   UNL     1       2.663   4.681  20.423  0.00  0.00    +0.000 A 
ATOM      3  N   UNL     1       2.090   5.885  20.279  0.00  0.00    +0.000 NA
ATOM      4  C   UNL     1       2.595   6.740  19.380  0.00  0.00    +0.000 A 
ATOM      5  N   UNL     1       3.637   6.468  18.573  0.00  0.00    +0.000 NA
ATOM      6  C   UNL     1       4.254   5.281  18.748  0.00  0.00    +0.000 A 
ENDROOT
BRANCH   4   7
ATOM      7  C   UNL     1       1.938   8.061  19.309  0.00  0.00    +0.000 A 
ATOM      8  C   UNL     1       1.896   8.777  18.091  0.00  0.00    +0.000 A 
ATOM      9  C   UNL     1       1.339  10.055  18.006  0.00  0.00    +0.000 A 
ATOM     10  C   UNL     1       0.792  10.640  19.138  0.00  0.00    +0.000 A 
ATOM     11  C   UNL     1       0.783   9.946  20.350  0.00  0.00    +0.000 A 
ATOM     12  C   UNL     1       1.345   8.665  20.430  0.00  0.00    +0.000 A 
ENDBRANCH   4   7
BRANCH   6  13
ATOM     13  N   UNL     1       5.413   5.033  17.973  0.00  0.00    +0.000 N 
ATOM     14  H   UNL     1       6.247   5.348  18.453  0.00  0.00    +0.000 HD
BRANCH  13  15
ATOM     15  C   UNL     1       5.589   4.891  16.578  0.00  0.00    +0.000 A 
ATOM     16  C   UNL     1       6.818   5.251  16.002  0.00  0.00    +0.000 A 
ATOM     17  C   UNL     1       7.134   4.913  14.679  0.00  0.00    +0.000 A 
ATOM     18  C   UNL     1       6.232   4.190  13.891  0.00  0.00    +0.000 A 
ATOM     19  C   UNL     1       4.956   3.935  14.410  0.00  0.00    +0.000 A 
ATOM     20  C   UNL     1       4.642   4.288  15.741  0.00  0.00    +0.000 A 
BRANCH  18  21
ATOM     21  C   UNL     1       6.726   3.718  12.561  0.00  0.00    +0.000 C 
ATOM     22  O   UNL     1       7.422   4.414  11.836  0.00  0.00    +0.000 OA
BRANCH  21  23
ATOM     23  O   UNL     1       6.417   2.446  12.231  0.00  0.00    +0.000 OA
ATOM     24  H   UNL     1       5.734   2.319  11.553  0.00  0.00    +0.000 HD
ENDBRANCH  21  23
ENDBRANCH  18  21
ENDBRANCH  13  15
ENDBRANCH   6  13
BRANCH   1  25
ATOM     25  C   UNL     1       4.526   3.032  20.015  0.00  0.00    +0.000 C 
BRANCH  25  27
ATOM     26  C   UNL     1       3.696   1.606  18.103  0.00  0.00    +0.000 C 
ATOM     27  C   UNL     1       4.060   1.753  19.388  0.00  0.00    +0.000 C 
ENDBRANCH  25  27
ENDBRANCH   1  25
BRANCH   2  28
ATOM     28  C   UNL     1       1.985   3.741  21.396  0.00  0.00    +0.000 C 
BRANCH  28  29
ATOM     29  C   UNL     1       0.956   2.728  20.854  0.00  0.00    +0.000 C 
ATOM     30  C   UNL     1       0.566   2.910  19.384  0.00  0.00    +0.000 C 
ENDBRANCH  28  29
ENDBRANCH   2  28
TORSDOF 9
ENDMDL
MODEL 2
REMARK VINA RESULT:      -7.6      0.412      1.445
REMARK  Name = 
REMARK  10 active torsions:
REMARK  status: ('A' for Active; 'I' for Inactive)
REMARK    1  A    between atoms: C_2  and  C_3
REMARK    2  A    between atoms: C_3  and  C_4
REMARK    3  A    between atoms: C_5  and  C_6
REMARK    4  A    between atoms: C_6  and  C_7
REMARK    5  A    between atoms: C_7  and  C_8
REMARK    6  A    between atoms: C_10  and  C_11
REMARK    7  A    between atoms: C_18  and  N_19
REMARK    8  A    between atoms: N_19  and  C_20
REMARK    9  A    between atoms: C_23  and  C_24
REMARK   10  A    between atoms: C_24  and  O_26
REMARK                            x       y       z     vdW  Elec       q    Type
REMARK                         _______ _______ _______ _____ _____    ______ ____
ROOT
ATOM      1  C   UNL     1       3.943   4.420  19.580  0.00  0.00    +0.000 A 
ATOM      2  C   UNL     1       2.736   4.672  20.242  0.00  0.00    +0.000 A 
ATOM      3  N   UNL     1       2.109   5.851  20.122  0.00  0.00    +0.000 NA
ATOM      4  C   UNL     1       2.634   6.785  19.316  0.00  0.00    +0.000 A 
ATOM      5  N   UNL     1       3.749   6.615  18.581  0.00  0.00    +0.000 NA
ATOM      6  C   UNL     1       4.415   5.453  18.737  0.00  0.00    +0.000 A 
ENDROOT
BRANCH   4   7
ATOM      7  C   UNL     1       1.913   8.072  19.268  0.00  0.00    +0.000 A 
ATOM      8  C   UNL     1       1.281   8.585  20.424  0.00  0.00    +0.000 A 
ATOM      9  C   UNL     1       0.538   9.767  20.395  0.00  0.00    +0.000 A 
ATOM     10  C   UNL     1       0.425  10.476  19.210  0.00  0.00    +0.000 A 
ATOM     11  C   UNL     1       1.067  10.018  18.057  0.00  0.00    +0.000 A 
ATOM     12  C   UNL     1       1.809   8.831  18.090  0.00  0.00    +0.000 A 
ENDBRANCH   4   7
BRANCH   6  13
ATOM     13  N   UNL     1       5.643   5.311  18.045  0.00  0.00    +0.000 N 
ATOM     14  H   UNL     1       6.320   5.993  18.361  0.00  0.00    +0.000 HD
BRANCH  13  15
ATOM     15  C   UNL     1       5.937   4.777  16.770  0.00  0.00    +0.000 A 
ATOM     16  C   UNL     1       4.976   3.989  16.118  0.00  0.00    +0.000 A 
ATOM     17  C   UNL     1       5.110   3.634  14.769  0.00  0.00    +0.000 A 
ATOM     18  C   UNL     1       6.210   4.071  14.022  0.00  0.00    +0.000 A 
ATOM     19  C   UNL     1       7.237   4.750  14.691  0.00  0.00    +0.000 A 
ATOM     20  C   UNL     1       7.098   5.094  16.053  0.00  0.00    +0.000 A 
BRANCH  18  21
ATOM     21  C   UNL     1       6.178   3.800  12.552  0.00  0.00    +0.000 C 
ATOM     22  O   UNL     1       5.210   3.297  12.000  0.00  0.00    +0.000 OA
BRANCH  21  23
ATOM     23  O   UNL     1       7.257   4.206  11.850  0.00  0.00    +0.000 OA
ATOM     24  H   UNL     1       7.313   5.151  11.634  0.00  0.00    +0.000 HD
ENDBRANCH  21  23
ENDBRANCH  18  21
ENDBRANCH  13  15
ENDBRANCH   6  13
BRANCH   1  25
ATOM     25  C   UNL     1       4.713   3.147  19.891  0.00  0.00    +0.000 C 
BRANCH  25  27
ATOM     26  C   UNL     1       3.710   1.564  18.199  0.00  0.00    +0.000 C 
ATOM     27  C   UNL     1       4.161   1.830  19.436  0.00  0.00    +0.000 C 
ENDBRANCH  25  27
ENDBRANCH   1  25
BRANCH   2  28
ATOM     28  C   UNL     1       2.037   3.640  21.102  0.00  0.00    +0.000 C 
BRANCH  28  29
ATOM     29  C   UNL     1       0.742   2.990  20.575  0.00  0.00    +0.000 C 
ATOM     30  C   UNL     1       0.630   2.887  19.052  0.00  0.00    +0.000 C 
ENDBRANCH  28  29
ENDBRANCH   2  28
TORSDOF 9
ENDMDL
MODEL 3
REMARK VINA RESULT:      -7.6      0.894      1.351
REMARK  Name = 
REMARK  10 active torsions:
REMARK  status: ('A' for Active; 'I' for Inactive)
REMARK    1  A    between atoms: C_2  and  C_3
REMARK    2  A    between atoms: C_3  and  C_4
REMARK    3  A    between atoms: C_5  and  C_6
REMARK    4  A    between atoms: C_6  and  C_7
REMARK    5  A    between atoms: C_7  and  C_8
REMARK    6  A    between atoms: C_10  and  C_11
REMARK    7  A    between atoms: C_18  and  N_19
REMARK    8  A    between atoms: N_19  and  C_20
REMARK    9  A    between atoms: C_23  and  C_24
REMARK   10  A    between atoms: C_24  and  O_26
REMARK                            x       y       z     vdW  Elec       q    Type
REMARK                         _______ _______ _______ _____ _____    ______ ____
ROOT
ATOM      1  C   UNL     1       3.577   4.374  19.901  0.00  0.00    +0.000 A 
ATOM      2  C   UNL     1       2.310   4.514  20.480  0.00  0.00    +0.000 A 
ATOM      3  N   UNL     1       1.696   5.706  20.529  0.00  0.00    +0.000 NA
ATOM      4  C   UNL     1       2.295   6.767  19.972  0.00  0.00    +0.000 A 
ATOM      5  N   UNL     1       3.476   6.722  19.328  0.00  0.00    +0.000 NA
ATOM      6  C   UNL     1       4.126   5.541  19.321  0.00  0.00    +0.000 A 
ENDROOT
BRANCH   4   7
ATOM      7  C   UNL     1       1.580   8.052  20.103  0.00  0.00    +0.000 A 
ATOM      8  C   UNL     1       0.906   8.380  21.301  0.00  0.00    +0.000 A 
ATOM      9  C   UNL     1       0.168   9.558  21.434  0.00  0.00    +0.000 A 
ATOM     10  C   UNL     1       0.102  10.448  20.373  0.00  0.00    +0.000 A 
ATOM     11  C   UNL     1       0.785  10.173  19.186  0.00  0.00    +0.000 A 
ATOM     12  C   UNL     1       1.522   8.989  19.057  0.00  0.00    +0.000 A 
ENDBRANCH   4   7
BRANCH   6  13
ATOM     13  N   UNL     1       5.416   5.513  18.737  0.00  0.00    +0.000 N 
ATOM     14  H   UNL     1       6.096   5.968  19.332  0.00  0.00    +0.000 HD
BRANCH  13  15
ATOM     15  C   UNL     1       5.825   5.420  17.387  0.00  0.00    +0.000 A 
ATOM     16  C   UNL     1       6.928   4.615  17.060  0.00  0.00    +0.000 A 
ATOM     17  C   UNL     1       7.232   4.294  15.730  0.00  0.00    +0.000 A 
ATOM     18  C   UNL     1       6.431   4.759  14.682  0.00  0.00    +0.000 A 
ATOM     19  C   UNL     1       5.405   5.663  14.983  0.00  0.00    +0.000 A 
ATOM     20  C   UNL     1       5.112   5.990  16.325  0.00  0.00    +0.000 A 
BRANCH  18  21
ATOM     21  C   UNL     1       6.723   4.218  13.318  0.00  0.00    +0.000 C 
ATOM     22  O   UNL     1       7.408   4.822  12.507  0.00  0.00    +0.000 OA
BRANCH  21  23
ATOM     23  O   UNL     1       6.242   2.984  13.054  0.00  0.00    +0.000 OA
ATOM     24  H   UNL     1       5.625   2.901  12.309  0.00  0.00    +0.000 HD
ENDBRANCH  21  23
ENDBRANCH  18  21
ENDBRANCH  13  15
ENDBRANCH   6  13
BRANCH   1  25
ATOM     25  C   UNL     1       4.314   3.052  20.035  0.00  0.00    +0.000 C 
BRANCH  25  27
ATOM     26  C   UNL     1       3.711   2.305  17.699  0.00  0.00    +0.000 C 
ATOM     27  C   UNL     1       4.311   2.093  18.882  0.00  0.00    +0.000 C 
ENDBRANCH  25  27
ENDBRANCH   1  25
BRANCH   2  28
ATOM     28  C   UNL     1       1.532   3.350  21.054  0.00  0.00    +0.000 C 
BRANCH  28  29
ATOM     29  C   UNL     1       0.406   2.720  20.210  0.00  0.00    +0.000 C 
ATOM     30  C   UNL     1       0.636   2.729  18.696  0.00  0.00    +0.000 C 
ENDBRANCH  28  29
ENDBRANCH   2  28
TORSDOF 9
ENDMDL
MODEL 4
REMARK VINA RESULT:      -7.4      0.622      1.165
REMARK  Name = 
REMARK  10 active torsions:
REMARK  status: ('A' for Active; 'I' for Inactive)
REMARK    1  A    between atoms: C_2  and  C_3
REMARK    2  A    between atoms: C_3  and  C_4
REMARK    3  A    between atoms: C_5  and  C_6
REMARK    4  A    between atoms: C_6  and  C_7
REMARK    5  A    between atoms: C_7  and  C_8
REMARK    6  A    between atoms: C_10  and  C_11
REMARK    7  A    between atoms: C_18  and  N_19
REMARK    8  A    between atoms: N_19  and  C_20
REMARK    9  A    between atoms: C_23  and  C_24
REMARK   10  A    between atoms: C_24  and  O_26
REMARK                            x       y       z     vdW  Elec       q    Type
REMARK                         _______ _______ _______ _____ _____    ______ ____
ROOT
ATOM      1  C   UNL     1       3.753   4.050  19.799  0.00  0.00    +0.000 A 
ATOM      2  C   UNL     1       2.608   4.451  20.498  0.00  0.00    +0.000 A 
ATOM      3  N   UNL     1       2.090   5.678  20.339  0.00  0.00    +0.000 NA
ATOM      4  C   UNL     1       2.660   6.513  19.459  0.00  0.00    +0.000 A 
ATOM      5  N   UNL     1       3.717   6.198  18.687  0.00  0.00    +0.000 NA
ATOM      6  C   UNL     1       4.278   4.987  18.879  0.00  0.00    +0.000 A 
ENDROOT
BRANCH   4   7
ATOM      7  C   UNL     1       2.062   7.860  19.369  0.00  0.00    +0.000 A 
ATOM      8  C   UNL     1       1.418   8.435  20.488  0.00  0.00    +0.000 A 
ATOM      9  C   UNL     1       0.788   9.679  20.417  0.00  0.00    +0.000 A 
ATOM     10  C   UNL     1       0.803  10.388  19.226  0.00  0.00    +0.000 A 
ATOM     11  C   UNL     1       1.461   9.865  18.110  0.00  0.00    +0.000 A 
ATOM     12  C   UNL     1       2.090   8.616  18.186  0.00  0.00    +0.000 A 
ENDBRANCH   4   7
BRANCH   6  13
ATOM     13  N   UNL     1       5.451   4.691  18.143  0.00  0.00    +0.000 N 
ATOM     14  H   UNL     1       6.268   4.702  18.740  0.00  0.00    +0.000 HD
BRANCH  13  15
ATOM     15  C   UNL     1       5.756   4.850  16.773  0.00  0.00    +0.000 A 
ATOM     16  C   UNL     1       6.640   5.868  16.380  0.00  0.00    +0.000 A 
ATOM     17  C   UNL     1       7.163   5.925  15.081  0.00  0.00    +0.000 A 
ATOM     18  C   UNL     1       6.827   4.952  14.133  0.00  0.00    +0.000 A 
ATOM     19  C   UNL     1       5.851   4.006  14.472  0.00  0.00    +0.000 A 
ATOM     20  C   UNL     1       5.322   3.962  15.780  0.00  0.00    +0.000 A 
BRANCH  18  21
ATOM     21  C   UNL     1       7.572   4.988  12.837  0.00  0.00    +0.000 C 
ATOM     22  O   UNL     1       8.468   5.790  12.619  0.00  0.00    +0.000 OA
BRANCH  21  23
ATOM     23  O   UNL     1       7.246   4.034  11.939  0.00  0.00    +0.000 OA
ATOM     24  H   UNL     1       7.534   3.128  12.134  0.00  0.00    +0.000 HD
ENDBRANCH  21  23
ENDBRANCH  18  21
ENDBRANCH  13  15
ENDBRANCH   6  13
BRANCH   1  25
ATOM     25  C   UNL     1       4.413   2.727  20.149  0.00  0.00    +0.000 C 
BRANCH  25  27
ATOM     26  C   UNL     1       3.660   1.500  18.073  0.00  0.00    +0.000 C 
ATOM     27  C   UNL     1       4.065   1.504  19.355  0.00  0.00    +0.000 C 
ENDBRANCH  25  27
ENDBRANCH   1  25
BRANCH   2  28
ATOM     28  C   UNL     1       1.858   3.539  21.445  0.00  0.00    +0.000 C 
BRANCH  28  29
ATOM     29  C   UNL     1       0.778   2.601  20.871  0.00  0.00    +0.000 C 
ATOM     30  C   UNL     1       0.519   2.736  19.368  0.00  0.00    +0.000 C 
ENDBRANCH  28  29
ENDBRANCH   2  28
TORSDOF 9
ENDMDL
MODEL 5
REMARK VINA RESULT:      -7.3      1.028      1.778
REMARK  Name = 
REMARK  10 active torsions:
REMARK  status: ('A' for Active; 'I' for Inactive)
REMARK    1  A    between atoms: C_2  and  C_3
REMARK    2  A    between atoms: C_3  and  C_4
REMARK    3  A    between atoms: C_5  and  C_6
REMARK    4  A    between atoms: C_6  and  C_7
REMARK    5  A    between atoms: C_7  and  C_8
REMARK    6  A    between atoms: C_10  and  C_11
REMARK    7  A    between atoms: C_18  and  N_19
REMARK    8  A    between atoms: N_19  and  C_20
REMARK    9  A    between atoms: C_23  and  C_24
REMARK   10  A    between atoms: C_24  and  O_26
REMARK                            x       y       z     vdW  Elec       q    Type
REMARK                         _______ _______ _______ _____ _____    ______ ____
ROOT
ATOM      1  C   UNL     1       3.461   4.655  19.737  0.00  0.00    +0.000 A 
ATOM      2  C   UNL     1       2.226   4.725  20.394  0.00  0.00    +0.000 A 
ATOM      3  N   UNL     1       1.604   5.898  20.583  0.00  0.00    +0.000 NA
ATOM      4  C   UNL     1       2.161   7.013  20.092  0.00  0.00    +0.000 A 
ATOM      5  N   UNL     1       3.306   7.043  19.384  0.00  0.00    +0.000 NA
ATOM      6  C   UNL     1       3.966   5.877  19.235  0.00  0.00    +0.000 A 
ENDROOT
BRANCH   4   7
ATOM      7  C   UNL     1       1.441   8.270  20.376  0.00  0.00    +0.000 A 
ATOM      8  C   UNL     1       0.988   8.558  21.683  0.00  0.00    +0.000 A 
ATOM      9  C   UNL     1       0.250   9.708  21.972  0.00  0.00    +0.000 A 
ATOM     10  C   UNL     1      -0.037  10.609  20.958  0.00  0.00    +0.000 A 
ATOM     11  C   UNL     1       0.426  10.374  19.661  0.00  0.00    +0.000 A 
ATOM     12  C   UNL     1       1.164   9.218  19.377  0.00  0.00    +0.000 A 
ENDBRANCH   4   7
BRANCH   6  13
ATOM     13  N   UNL     1       5.221   5.921  18.581  0.00  0.00    +0.000 N 
ATOM     14  H   UNL     1       5.760   6.723  18.880  0.00  0.00    +0.000 HD
BRANCH  13  15
ATOM     15  C   UNL     1       5.644   5.391  17.341  0.00  0.00    +0.000 A 
ATOM     16  C   UNL     1       4.880   5.643  16.191  0.00  0.00    +0.000 A 
ATOM     17  C   UNL     1       5.366   5.353  14.909  0.00  0.00    +0.000 A 
ATOM     18  C   UNL     1       6.644   4.811  14.736  0.00  0.00    +0.000 A 
ATOM     19  C   UNL     1       7.366   4.438  15.877  0.00  0.00    +0.000 A 
ATOM     20  C   UNL     1       6.864   4.725  17.165  0.00  0.00    +0.000 A 
BRANCH  18  21
ATOM     21  C   UNL     1       7.148   4.706  13.332  0.00  0.00    +0.000 C 
ATOM     22  O   UNL     1       6.730   3.867  12.547  0.00  0.00    +0.000 OA
BRANCH  21  23
ATOM     23  O   UNL     1       8.047   5.639  12.953  0.00  0.00    +0.000 OA
ATOM     24  H   UNL     1       8.424   5.553  12.062  0.00  0.00    +0.000 HD
ENDBRANCH  21  23
ENDBRANCH  18  21
ENDBRANCH  13  15
ENDBRANCH   6  13
BRANCH   1  25
ATOM     25  C   UNL     1       4.218   3.337  19.711  0.00  0.00    +0.000 C 
BRANCH  25  27
ATOM     26  C   UNL     1       3.958   1.097  18.574  0.00  0.00    +0.000 C 
ATOM     27  C   UNL     1       4.074   2.435  18.523  0.00  0.00    +0.000 C 
ENDBRANCH  25  27
ENDBRANCH   1  25
BRANCH   2  28
ATOM     28  C   UNL     1       1.494   3.502  20.904  0.00  0.00    +0.000 C 
BRANCH  28  29
ATOM     29  C   UNL     1       0.286   2.974  20.104  0.00  0.00    +0.000 C 
ATOM     30  C   UNL     1       0.623   2.303  18.770  0.00  0.00    +0.000 C 
ENDBRANCH  28  29
ENDBRANCH   2  28
TORSDOF 9
ENDMDL
MODEL 6
REMARK VINA RESULT:      -7.2      0.559      1.063
REMARK  Name = 
REMARK  10 active torsions:
REMARK  status: ('A' for Active; 'I' for Inactive)
REMARK    1  A    between atoms: C_2  and  C_3
REMARK    2  A    between atoms: C_3  and  C_4
REMARK    3  A    between atoms: C_5  and  C_6
REMARK    4  A    between atoms: C_6  and  C_7
REMARK    5  A    between atoms: C_7  and  C_8
REMARK    6  A    between atoms: C_10  and  C_11
REMARK    7  A    between atoms: C_18  and  N_19
REMARK    8  A    between atoms: N_19  and  C_20
REMARK    9  A    between atoms: C_23  and  C_24
REMARK   10  A    between atoms: C_24  and  O_26
REMARK                            x       y       z     vdW  Elec       q    Type
REMARK                         _______ _______ _______ _____ _____    ______ ____
ROOT
ATOM      1  C   UNL     1       3.797   4.649  19.409  0.00  0.00    +0.000 A 
ATOM      2  C   UNL     1       2.588   4.821  20.095  0.00  0.00    +0.000 A 
ATOM      3  N   UNL     1       1.954   6.003  20.101  0.00  0.00    +0.000 NA
ATOM      4  C   UNL     1       2.472   7.020  19.398  0.00  0.00    +0.000 A 
ATOM      5  N   UNL     1       3.587   6.936  18.649  0.00  0.00    +0.000 NA
ATOM      6  C   UNL     1       4.261   5.769  18.680  0.00  0.00    +0.000 A 
ENDROOT
BRANCH   4   7
ATOM      7  C   UNL     1       1.742   8.300  19.487  0.00  0.00    +0.000 A 
ATOM      8  C   UNL     1       1.711   9.187  18.387  0.00  0.00    +0.000 A 
ATOM      9  C   UNL     1       1.084  10.433  18.461  0.00  0.00    +0.000 A 
ATOM     10  C   UNL     1       0.454  10.813  19.636  0.00  0.00    +0.000 A 
ATOM     11  C   UNL     1       0.434   9.946  20.732  0.00  0.00    +0.000 A 
ATOM     12  C   UNL     1       1.067   8.700  20.652  0.00  0.00    +0.000 A 
ENDBRANCH   4   7
BRANCH   6  13
ATOM     13  N   UNL     1       5.488   5.710  17.976  0.00  0.00    +0.000 N 
ATOM     14  H   UNL     1       6.075   6.504  18.199  0.00  0.00    +0.000 HD
BRANCH  13  15
ATOM     15  C   UNL     1       5.836   5.079  16.760  0.00  0.00    +0.000 A 
ATOM     16  C   UNL     1       4.844   4.404  16.030  0.00  0.00    +0.000 A 
ATOM     17  C   UNL     1       5.069   3.970  14.717  0.00  0.00    +0.000 A 
ATOM     18  C   UNL     1       6.294   4.209  14.085  0.00  0.00    +0.000 A 
ATOM     19  C   UNL     1       7.332   4.767  14.842  0.00  0.00    +0.000 A 
ATOM     20  C   UNL     1       7.100   5.193  16.169  0.00  0.00    +0.000 A 
BRANCH  18  21
ATOM     21  C   UNL     1       6.379   3.875  12.630  0.00  0.00    +0.000 C 
ATOM     22  O   UNL     1       7.300   4.256  11.923  0.00  0.00    +0.000 OA
BRANCH  21  23
ATOM     23  O   UNL     1       5.412   3.065  12.150  0.00  0.00    +0.000 OA
ATOM     24  H   UNL     1       5.226   2.254  12.650  0.00  0.00    +0.000 HD
ENDBRANCH  21  23
ENDBRANCH  18  21
ENDBRANCH  13  15
ENDBRANCH   6  13
BRANCH   1  25
ATOM     25  C   UNL     1       4.575   3.356  19.584  0.00  0.00    +0.000 C 
BRANCH  25  27
ATOM     26  C   UNL     1       3.788   1.095  18.780  0.00  0.00    +0.000 C 
ATOM     27  C   UNL     1       4.415   2.264  18.569  0.00  0.00    +0.000 C 
ENDBRANCH  25  27
ENDBRANCH   1  25
BRANCH   2  28
ATOM     28  C   UNL     1       1.897   3.700  20.841  0.00  0.00    +0.000 C 
BRANCH  28  29
ATOM     29  C   UNL     1       0.608   3.098  20.247  0.00  0.00    +0.000 C 
ATOM     30  C   UNL     1       0.739   2.529  18.832  0.00  0.00    +0.000 C 
ENDBRANCH  28  29
ENDBRANCH   2  28
TORSDOF 9
ENDMDL
MODEL 7
REMARK VINA RESULT:      -7.2      4.405      7.988
REMARK  Name = 
REMARK  10 active torsions:
REMARK  status: ('A' for Active; 'I' for Inactive)
REMARK    1  A    between atoms: C_2  and  C_3
REMARK    2  A    between atoms: C_3  and  C_4
REMARK    3  A    between atoms: C_5  and  C_6
REMARK    4  A    between atoms: C_6  and  C_7
REMARK    5  A    between atoms: C_7  and  C_8
REMARK    6  A    between atoms: C_10  and  C_11
REMARK    7  A    between atoms: C_18  and  N_19
REMARK    8  A    between atoms: N_19  and  C_20
REMARK    9  A    between atoms: C_23  and  C_24
REMARK   10  A    between atoms: C_24  and  O_26
REMARK                            x       y       z     vdW  Elec       q    Type
REMARK                         _______ _______ _______ _____ _____    ______ ____
ROOT
ATOM      1  C   UNL     1       1.719   7.507  19.977  0.00  0.00    +0.000 A 
ATOM      2  C   UNL     1       2.124   6.167  20.019  0.00  0.00    +0.000 A 
ATOM      3  N   UNL     1       2.919   5.651  19.071  0.00  0.00    +0.000 NA
ATOM      4  C   UNL     1       3.365   6.452  18.093  0.00  0.00    +0.000 A 
ATOM      5  N   UNL     1       3.094   7.767  18.004  0.00  0.00    +0.000 NA
ATOM      6  C   UNL     1       2.251   8.283  18.922  0.00  0.00    +0.000 A 
ENDROOT
BRANCH   4   7
ATOM      7  C   UNL     1       4.200   5.804  17.062  0.00  0.00    +0.000 A 
ATOM      8  C   UNL     1       4.300   4.395  17.000  0.00  0.00    +0.000 A 
ATOM      9  C   UNL     1       5.131   3.754  16.078  0.00  0.00    +0.000 A 
ATOM     10  C   UNL     1       5.869   4.511  15.181  0.00  0.00    +0.000 A 
ATOM     11  C   UNL     1       5.767   5.904  15.190  0.00  0.00    +0.000 A 
ATOM     12  C   UNL     1       4.934   6.541  16.119  0.00  0.00    +0.000 A 
ENDBRANCH   4   7
BRANCH   6  13
ATOM     13  N   UNL     1       1.881   9.641  18.771  0.00  0.00    +0.000 N 
ATOM     14  H   UNL     1       2.465  10.244  19.337  0.00  0.00    +0.000 HD
BRANCH  13  15
ATOM     15  C   UNL     1       0.654  10.237  18.400  0.00  0.00    +0.000 A 
ATOM     16  C   UNL     1      -0.270   9.493  17.650  0.00  0.00    +0.000 A 
ATOM     17  C   UNL     1      -1.586   9.936  17.458  0.00  0.00    +0.000 A 
ATOM     18  C   UNL     1      -2.024  11.138  18.025  0.00  0.00    +0.000 A 
ATOM     19  C   UNL     1      -1.081  11.950  18.668  0.00  0.00    +0.000 A 
ATOM     20  C   UNL     1       0.246  11.500  18.848  0.00  0.00    +0.000 A 
BRANCH  18  21
ATOM     21  C   UNL     1      -3.485  11.439  17.923  0.00  0.00    +0.000 C 
ATOM     22  O   UNL     1      -4.233  10.810  17.189  0.00  0.00    +0.000 OA
BRANCH  21  23
ATOM     23  O   UNL     1      -3.951  12.404  18.744  0.00  0.00    +0.000 OA
ATOM     24  H   UNL     1      -4.383  12.116  19.564  0.00  0.00    +0.000 HD
ENDBRANCH  21  23
ENDBRANCH  18  21
ENDBRANCH  13  15
ENDBRANCH   6  13
BRANCH   1  25
ATOM     25  C   UNL     1       0.670   8.000  20.961  0.00  0.00    +0.000 C 
BRANCH  25  27
ATOM     26  C   UNL     1       0.255   9.456  22.982  0.00  0.00    +0.000 C 
ATOM     27  C   UNL     1       1.080   8.936  22.057  0.00  0.00    +0.000 C 
ENDBRANCH  25  27
ENDBRANCH   1  25
BRANCH   2  28
ATOM     28  C   UNL     1       1.732   5.222  21.135  0.00  0.00    +0.000 C 
BRANCH  28  29
ATOM     29  C   UNL     1       2.388   3.829  21.191  0.00  0.00    +0.000 C 
ATOM     30  C   UNL     1       1.451   2.674  21.555  0.00  0.00    +0.000 C 
ENDBRANCH  28  29
ENDBRANCH   2  28
TORSDOF 9
ENDMDL
MODEL 8
REMARK VINA RESULT:      -7.2      3.715      7.296
REMARK  Name = 
REMARK  10 active torsions:
REMARK  status: ('A' for Active; 'I' for Inactive)
REMARK    1  A    between atoms: C_2  and  C_3
REMARK    2  A    between atoms: C_3  and  C_4
REMARK    3  A    between atoms: C_5  and  C_6
REMARK    4  A    between atoms: C_6  and  C_7
REMARK    5  A    between atoms: C_7  and  C_8
REMARK    6  A    between atoms: C_10  and  C_11
REMARK    7  A    between atoms: C_18  and  N_19
REMARK    8  A    between atoms: N_19  and  C_20
REMARK    9  A    between atoms: C_23  and  C_24
REMARK   10  A    between atoms: C_24  and  O_26
REMARK                            x       y       z     vdW  Elec       q    Type
REMARK                         _______ _______ _______ _____ _____    ______ ____
ROOT
ATOM      1  C   UNL     1       2.885   4.642  18.537  0.00  0.00    +0.000 A 
ATOM      2  C   UNL     1       3.156   3.498  17.776  0.00  0.00    +0.000 A 
ATOM      3  N   UNL     1       4.002   3.538  16.737  0.00  0.00    +0.000 NA
ATOM      4  C   UNL     1       4.630   4.688  16.456  0.00  0.00    +0.000 A 
ATOM      5  N   UNL     1       4.495   5.821  17.169  0.00  0.00    +0.000 NA
ATOM      6  C   UNL     1       3.605   5.806  18.182  0.00  0.00    +0.000 A 
ENDROOT
BRANCH   4   7
ATOM      7  C   UNL     1       5.513   4.667  15.273  0.00  0.00    +0.000 A 
ATOM      8  C   UNL     1       5.151   3.933  14.121  0.00  0.00    +0.000 A 
ATOM      9  C   UNL     1       5.993   3.841  13.010  0.00  0.00    +0.000 A 
ATOM     10  C   UNL     1       7.213   4.499  13.020  0.00  0.00    +0.000 A 
ATOM     11  C   UNL     1       7.587   5.263  14.128  0.00  0.00    +0.000 A 
ATOM     12  C   UNL     1       6.740   5.350  15.240  0.00  0.00    +0.000 A 
ENDBRANCH   4   7
BRANCH   6  13
ATOM     13  N   UNL     1       3.384   7.025  18.869  0.00  0.00    +0.000 N 
ATOM     14  H   UNL     1       3.928   7.068  19.721  0.00  0.00    +0.000 HD
BRANCH  13  15
ATOM     15  C   UNL     1       2.284   7.912  18.862  0.00  0.00    +0.000 A 
ATOM     16  C   UNL     1       1.665   8.247  20.077  0.00  0.00    +0.000 A 
ATOM     17  C   UNL     1       0.736   9.293  20.162  0.00  0.00    +0.000 A 
ATOM     18  C   UNL     1       0.405  10.049  19.032  0.00  0.00    +0.000 A 
ATOM     19  C   UNL     1       0.917   9.646  17.793  0.00  0.00    +0.000 A 
ATOM     20  C   UNL     1       1.845   8.584  17.714  0.00  0.00    +0.000 A 
BRANCH  18  21
ATOM     21  C   UNL     1      -0.451  11.255  19.254  0.00  0.00    +0.000 C 
ATOM     22  O   UNL     1      -1.070  11.436  20.293  0.00  0.00    +0.000 OA
BRANCH  21  23
ATOM     23  O   UNL     1      -0.448  12.174  18.266  0.00  0.00    +0.000 OA
ATOM     24  H   UNL     1      -0.752  11.883  17.391  0.00  0.00    +0.000 HD
ENDBRANCH  21  23
ENDBRANCH  18  21
ENDBRANCH  13  15
ENDBRANCH   6  13
BRANCH   1  25
ATOM     25  C   UNL     1       1.782   4.599  19.582  0.00  0.00    +0.000 C 
BRANCH  25  27
ATOM     26  C   UNL     1       1.868   3.194  21.678  0.00  0.00    +0.000 C 
ATOM     27  C   UNL     1       2.140   4.328  21.011  0.00  0.00    +0.000 C 
ENDBRANCH  25  27
ENDBRANCH   1  25
BRANCH   2  28
ATOM     28  C   UNL     1       2.552   2.144  18.081  0.00  0.00    +0.000 C 
BRANCH  28  29
ATOM     29  C   UNL     1       3.370   1.138  18.915  0.00  0.00    +0.000 C 
ATOM     30  C   UNL     1       4.527   1.737  19.719  0.00  0.00    +0.000 C 
ENDBRANCH  28  29
ENDBRANCH   2  28
TORSDOF 9
ENDMDL
MODEL 9
REMARK VINA RESULT:      -7.1      3.804      7.382
REMARK  Name = 
REMARK  10 active torsions:
REMARK  status: ('A' for Active; 'I' for Inactive)
REMARK    1  A    between atoms: C_2  and  C_3
REMARK    2  A    between atoms: C_3  and  C_4
REMARK    3  A    between atoms: C_5  and  C_6
REMARK    4  A    between atoms: C_6  and  C_7
REMARK    5  A    between atoms: C_7  and  C_8
REMARK    6  A    between atoms: C_10  and  C_11
REMARK    7  A    between atoms: C_18  and  N_19
REMARK    8  A    between atoms: N_19  and  C_20
REMARK    9  A    between atoms: C_23  and  C_24
REMARK   10  A    between atoms: C_24  and  O_26
REMARK                            x       y       z     vdW  Elec       q    Type
REMARK                         _______ _______ _______ _____ _____    ______ ____
ROOT
ATOM      1  C   UNL     1       2.989   4.723  18.385  0.00  0.00    +0.000 A 
ATOM      2  C   UNL     1       3.220   3.543  17.669  0.00  0.00    +0.000 A 
ATOM      3  N   UNL     1       4.050   3.518  16.616  0.00  0.00    +0.000 NA
ATOM      4  C   UNL     1       4.701   4.640  16.279  0.00  0.00    +0.000 A 
ATOM      5  N   UNL     1       4.605   5.805  16.946  0.00  0.00    +0.000 NA
ATOM      6  C   UNL     1       3.731   5.854  17.972  0.00  0.00    +0.000 A 
ENDROOT
BRANCH   4   7
ATOM      7  C   UNL     1       5.564   4.548  15.084  0.00  0.00    +0.000 A 
ATOM      8  C   UNL     1       6.816   5.203  15.050  0.00  0.00    +0.000 A 
ATOM      9  C   UNL     1       7.626   5.188  13.913  0.00  0.00    +0.000 A 
ATOM     10  C   UNL     1       7.209   4.498  12.785  0.00  0.00    +0.000 A 
ATOM     11  C   UNL     1       5.994   3.810  12.795  0.00  0.00    +0.000 A 
ATOM     12  C   UNL     1       5.184   3.830  13.938  0.00  0.00    +0.000 A 
ENDBRANCH   4   7
BRANCH   6  13
ATOM     13  N   UNL     1       3.550   7.105  18.610  0.00  0.00    +0.000 N 
ATOM     14  H   UNL     1       4.224   7.236  19.354  0.00  0.00    +0.000 HD
BRANCH  13  15
ATOM     15  C   UNL     1       2.410   7.931  18.735  0.00  0.00    +0.000 A 
ATOM     16  C   UNL     1       1.828   8.110  20.000  0.00  0.00    +0.000 A 
ATOM     17  C   UNL     1       0.856   9.093  20.227  0.00  0.00    +0.000 A 
ATOM     18  C   UNL     1       0.442   9.941  19.194  0.00  0.00    +0.000 A 
ATOM     19  C   UNL     1       0.920   9.692  17.901  0.00  0.00    +0.000 A 
ATOM     20  C   UNL     1       1.893   8.692  17.679  0.00  0.00    +0.000 A 
BRANCH  18  21
ATOM     21  C   UNL     1      -0.459  11.073  19.571  0.00  0.00    +0.000 C 
ATOM     22  O   UNL     1      -1.656  11.068  19.321  0.00  0.00    +0.000 OA
BRANCH  21  23
ATOM     23  O   UNL     1       0.111  12.079  20.268  0.00  0.00    +0.000 OA
ATOM     24  H   UNL     1      -0.043  12.982  19.947  0.00  0.00    +0.000 HD
ENDBRANCH  21  23
ENDBRANCH  18  21
ENDBRANCH  13  15
ENDBRANCH   6  13
BRANCH   1  25
ATOM     25  C   UNL     1       1.902   4.751  19.447  0.00  0.00    +0.000 C 
BRANCH  25  27
ATOM     26  C   UNL     1       1.874   3.485  21.632  0.00  0.00    +0.000 C 
ATOM     27  C   UNL     1       2.276   4.524  20.881  0.00  0.00    +0.000 C 
ENDBRANCH  25  27
ENDBRANCH   1  25
BRANCH   2  28
ATOM     28  C   UNL     1       2.589   2.217  18.039  0.00  0.00    +0.000 C 
BRANCH  28  29
ATOM     29  C   UNL     1       3.443   1.171  18.782  0.00  0.00    +0.000 C 
ATOM     30  C   UNL     1       4.450   1.737  19.787  0.00  0.00    +0.000 C 
ENDBRANCH  28  29
ENDBRANCH   2  28
TORSDOF 9
ENDMDL
