MODEL 1
REMARK VINA RESULT:      -7.2      0.000      0.000
REMARK  Name = 
REMARK  11 active torsions:
REMARK  status: ('A' for Active; 'I' for Inactive)
REMARK    1  A    between atoms: C_1  and  C_2
REMARK    2  A    between atoms: C_2  and  N_3
REMARK    3  A    between atoms: N_3  and  C_4
REMARK    4  A    between atoms: N_3  and  C_6
REMARK    5  A    between atoms: C_4  and  C_5
REMARK    6  A    between atoms: C_6  and  C_7
REMARK    7  A    between atoms: C_7  and  C_8
REMARK    8  A    between atoms: C_8  and  C_9
REMARK    9  A    between atoms: C_9  and  C_10
REMARK   10  A    between atoms: C_9  and  N_11
REMARK   11  A    between atoms: N_11  and  C_12
REMARK                            x       y       z     vdW  Elec       q    Type
REMARK                         _______ _______ _______ _____ _____    ______ ____
ROOT
ATOM      1  C   UNL     1       3.105   5.928  18.636  0.00  0.00    +0.000 A 
ATOM      2  C   UNL     1       2.519   4.752  19.274  0.00  0.00    +0.000 A 
ATOM      3  C   UNL     1       1.582   4.745  20.351  0.00  0.00    +0.000 A 
ATOM      4  C   UNL     1       1.132   3.568  20.940  0.00  0.00    +0.000 A 
ATOM      5  C   UNL     1       1.577   2.339  20.485  0.00  0.00    +0.000 A 
ATOM      6  C   UNL     1       2.447   2.286  19.409  0.00  0.00    +0.000 A 
ATOM      7  C   UNL     1       2.902   3.463  18.799  0.00  0.00    +0.000 A 
ATOM      8  N   UNL     1       3.718   3.330  17.736  0.00  0.00    +0.000 NA
ATOM      9  C   UNL     1       4.227   4.377  17.066  0.00  0.00    +0.000 A 
ATOM     10  C   UNL     1       5.026   4.111  15.946  0.00  0.00    +0.000 A 
ATOM     11  C   UNL     1       5.594   5.150  15.219  0.00  0.00    +0.000 A 
ATOM     12  C   UNL     1       5.375   6.463  15.615  0.00  0.00    +0.000 A 
ATOM     13  C   UNL     1       4.577   6.747  16.730  0.00  0.00    +0.000 A 
ATOM     14  C   UNL     1       3.963   5.705  17.492  0.00  0.00    +0.000 A 
ENDROOT
BRANCH   1  15
ATOM     15  N   UNL     1       2.903   7.303  19.090  0.00  0.00    +0.000 N 
ATOM     16  H   UNL     1       3.540   7.678  19.798  0.00  0.00    +0.000 HD
BRANCH  15  17
ATOM     17  C   UNL     1       1.736   8.150  18.885  0.00  0.00    +0.000 C 
ATOM     18  C   UNL     1       2.099   9.258  17.882  0.00  0.00    +0.000 C 
BRANCH  17  19
ATOM     19  C   UNL     1       1.222   8.777  20.199  0.00  0.00    +0.000 C 
BRANCH  19  20
ATOM     20  C   UNL     1       0.801  10.243  19.987  0.00  0.00    +0.000 C 
BRANCH  20  21
ATOM     21  C   UNL     1      -0.725  10.384  19.882  0.00  0.00    +0.000 C 
BRANCH  21  22
ATOM     22  N   UNL     1      -1.158  11.598  19.138  0.00  0.00    +0.000 NA
BRANCH  22  24
ATOM     23  C   UNL     1      -0.240  13.882  18.549  0.00  0.00    +0.000 C 
ATOM     24  C   UNL     1       0.043  12.394  18.780  0.00  0.00    +0.000 C 
ENDBRANCH  22  24
BRANCH  22  25
ATOM     25  C   UNL     1      -2.068  11.322  17.990  0.00  0.00    +0.000 C 
ATOM     26  C   UNL     1      -1.781  10.007  17.254  0.00  0.00    +0.000 C 
ENDBRANCH  22  25
ENDBRANCH  21  22
ENDBRANCH  20  21
ENDBRANCH  19  20
ENDBRANCH  17  19
ENDBRANCH  15  17
ENDBRANCH   1  15
TORSDOF 8
ENDMDL
MODEL 2
REMARK VINA RESULT:      -7.2      2.498      7.780
REMARK  Name = 
REMARK  11 active torsions:
REMARK  status: ('A' for Active; 'I' for Inactive)
REMARK    1  A    between atoms: C_1  and  C_2
REMARK    2  A    between atoms: C_2  and  N_3
REMARK    3  A    between atoms: N_3  and  C_4
REMARK    4  A    between atoms: N_3  and  C_6
REMARK    5  A    between atoms: C_4  and  C_5
REMARK    6  A    between atoms: C_6  and  C_7
REMARK    7  A    between atoms: C_7  and  C_8
REMARK    8  A    between atoms: C_8  and  C_9
REMARK    9  A    between atoms: C_9  and  C_10
REMARK   10  A    between atoms: C_9  and  N_11
REMARK   11  A    between atoms: N_11  and  C_12
REMARK                            x       y       z     vdW  Elec       q    Type
REMARK                         _______ _______ _______ _____ _____    ______ ____
ROOT
ATOM      1  C   UNL     1       3.606   5.627  18.346  0.00  0.00    +0.000 A 
ATOM      2  C   UNL     1       2.888   6.889  18.506  0.00  0.00    +0.000 A 
ATOM      3  C   UNL     1       2.895   7.993  17.603  0.00  0.00    +0.000 A 
ATOM      4  C   UNL     1       2.232   9.186  17.876  0.00  0.00    +0.000 A 
ATOM      5  C   UNL     1       1.519   9.339  19.053  0.00  0.00    +0.000 A 
ATOM      6  C   UNL     1       1.437   8.281  19.942  0.00  0.00    +0.000 A 
ATOM      7  C   UNL     1       2.092   7.070  19.676  0.00  0.00    +0.000 A 
ATOM      8  N   UNL     1       1.936   6.076  20.570  0.00  0.00    +0.000 NA
ATOM      9  C   UNL     1       2.514   4.871  20.435  0.00  0.00    +0.000 A 
ATOM     10  C   UNL     1       2.237   3.900  21.408  0.00  0.00    +0.000 A 
ATOM     11  C   UNL     1       2.815   2.639  21.333  0.00  0.00    +0.000 A 
ATOM     12  C   UNL     1       3.682   2.343  20.289  0.00  0.00    +0.000 A 
ATOM     13  C   UNL     1       3.967   3.299  19.307  0.00  0.00    +0.000 A 
ATOM     14  C   UNL     1       3.379   4.602  19.342  0.00  0.00    +0.000 A 
ENDROOT
BRANCH   1  15
ATOM     15  N   UNL     1       4.552   5.344  17.268  0.00  0.00    +0.000 N 
ATOM     16  H   UNL     1       4.195   4.916  16.409  0.00  0.00    +0.000 HD
BRANCH  15  17
ATOM     17  C   UNL     1       6.006   5.323  17.338  0.00  0.00    +0.000 C 
ATOM     18  C   UNL     1       6.495   6.673  17.892  0.00  0.00    +0.000 C 
BRANCH  17  19
ATOM     19  C   UNL     1       6.661   5.050  15.967  0.00  0.00    +0.000 C 
BRANCH  19  20
ATOM     20  C   UNL     1       6.015   3.834  15.275  0.00  0.00    +0.000 C 
BRANCH  20  21
ATOM     21  C   UNL     1       5.545   4.176  13.853  0.00  0.00    +0.000 C 
BRANCH  21  22
ATOM     22  N   UNL     1       6.421   3.617  12.788  0.00  0.00    +0.000 NA
BRANCH  22  24
ATOM     23  C   UNL     1       4.328   3.223  11.420  0.00  0.00    +0.000 C 
ATOM     24  C   UNL     1       5.635   2.652  11.979  0.00  0.00    +0.000 C 
ENDBRANCH  22  24
BRANCH  22  25
ATOM     25  C   UNL     1       7.138   4.644  11.980  0.00  0.00    +0.000 C 
ATOM     26  C   UNL     1       8.164   5.469  12.769  0.00  0.00    +0.000 C 
ENDBRANCH  22  25
ENDBRANCH  21  22
ENDBRANCH  20  21
ENDBRANCH  19  20
ENDBRANCH  17  19
ENDBRANCH  15  17
ENDBRANCH   1  15
TORSDOF 8
ENDMDL
MODEL 3
REMARK VINA RESULT:      -7.2      3.149      6.378
REMARK  Name = 
REMARK  11 active torsions:
REMARK  status: ('A' for Active; 'I' for Inactive)
REMARK    1  A    between atoms: C_1  and  C_2
REMARK    2  A    between atoms: C_2  and  N_3
REMARK    3  A    between atoms: N_3  and  C_4
REMARK    4  A    between atoms: N_3  and  C_6
REMARK    5  A    between atoms: C_4  and  C_5
REMARK    6  A    between atoms: C_6  and  C_7
REMARK    7  A    between atoms: C_7  and  C_8
REMARK    8  A    between atoms: C_8  and  C_9
REMARK    9  A    between atoms: C_9  and  C_10
REMARK   10  A    between atoms: C_9  and  N_11
REMARK   11  A    between atoms: N_11  and  C_12
REMARK                            x       y       z     vdW  Elec       q    Type
REMARK                         _______ _______ _______ _____ _____    ______ ____
ROOT
ATOM      1  C   UNL     1       5.597   3.800  16.164  0.00  0.00    +0.000 A 
ATOM      2  C   UNL     1       5.971   3.966  14.762  0.00  0.00    +0.000 A 
ATOM      3  C   UNL     1       5.395   3.295  13.642  0.00  0.00    +0.000 A 
ATOM      4  C   UNL     1       5.867   3.469  12.345  0.00  0.00    +0.000 A 
ATOM      5  C   UNL     1       6.925   4.324  12.090  0.00  0.00    +0.000 A 
ATOM      6  C   UNL     1       7.488   5.040  13.134  0.00  0.00    +0.000 A 
ATOM      7  C   UNL     1       7.017   4.883  14.445  0.00  0.00    +0.000 A 
ATOM      8  N   UNL     1       7.590   5.639  15.400  0.00  0.00    +0.000 NA
ATOM      9  C   UNL     1       7.234   5.580  16.694  0.00  0.00    +0.000 A 
ATOM     10  C   UNL     1       7.871   6.452  17.588  0.00  0.00    +0.000 A 
ATOM     11  C   UNL     1       7.558   6.430  18.941  0.00  0.00    +0.000 A 
ATOM     12  C   UNL     1       6.613   5.528  19.412  0.00  0.00    +0.000 A 
ATOM     13  C   UNL     1       5.965   4.653  18.533  0.00  0.00    +0.000 A 
ATOM     14  C   UNL     1       6.249   4.657  17.132  0.00  0.00    +0.000 A 
ENDROOT
BRANCH   1  15
ATOM     15  N   UNL     1       4.633   2.816  16.653  0.00  0.00    +0.000 N 
ATOM     16  H   UNL     1       4.442   1.994  16.073  0.00  0.00    +0.000 HD
BRANCH  15  17
ATOM     17  C   UNL     1       3.674   2.967  17.738  0.00  0.00    +0.000 C 
ATOM     18  C   UNL     1       3.675   1.682  18.583  0.00  0.00    +0.000 C 
BRANCH  17  19
ATOM     19  C   UNL     1       2.246   3.262  17.229  0.00  0.00    +0.000 C 
BRANCH  19  20
ATOM     20  C   UNL     1       1.712   4.585  17.808  0.00  0.00    +0.000 C 
BRANCH  20  21
ATOM     21  C   UNL     1       2.831   5.411  18.460  0.00  0.00    +0.000 C 
BRANCH  21  22
ATOM     22  N   UNL     1       2.500   5.879  19.833  0.00  0.00    +0.000 NA
BRANCH  22  24
ATOM     23  C   UNL     1       1.371   7.812  21.014  0.00  0.00    +0.000 C 
ATOM     24  C   UNL     1       2.108   7.310  19.769  0.00  0.00    +0.000 C 
ENDBRANCH  22  24
BRANCH  22  25
ATOM     25  C   UNL     1       1.526   5.015  20.558  0.00  0.00    +0.000 C 
ATOM     26  C   UNL     1       2.162   3.847  21.324  0.00  0.00    +0.000 C 
ENDBRANCH  22  25
ENDBRANCH  21  22
ENDBRANCH  20  21
ENDBRANCH  19  20
ENDBRANCH  17  19
ENDBRANCH  15  17
ENDBRANCH   1  15
TORSDOF 8
ENDMDL
MODEL 4
REMARK VINA RESULT:      -7.1      0.742      1.492
REMARK  Name = 
REMARK  11 active torsions:
REMARK  status: ('A' for Active; 'I' for Inactive)
REMARK    1  A    between atoms: C_1  and  C_2
REMARK    2  A    between atoms: C_2  and  N_3
REMARK    3  A    between atoms: N_3  and  C_4
REMARK    4  A    between atoms: N_3  and  C_6
REMARK    5  A    between atoms: C_4  and  C_5
REMARK    6  A    between atoms: C_6  and  C_7
REMARK    7  A    between atoms: C_7  and  C_8
REMARK    8  A    between atoms: C_8  and  C_9
REMARK    9  A    between atoms: C_9  and  C_10
REMARK   10  A    between atoms: C_9  and  N_11
REMARK   11  A    between atoms: N_11  and  C_12
REMARK                            x       y       z     vdW  Elec       q    Type
REMARK                         _______ _______ _______ _____ _____    ______ ____
ROOT
ATOM      1  C   UNL     1       3.087   5.875  18.619  0.00  0.00    +0.000 A 
ATOM      2  C   UNL     1       2.474   4.682  19.198  0.00  0.00    +0.000 A 
ATOM      3  C   UNL     1       1.514   4.645  20.253  0.00  0.00    +0.000 A 
ATOM      4  C   UNL     1       1.038   3.451  20.787  0.00  0.00    +0.000 A 
ATOM      5  C   UNL     1       1.480   2.236  20.295  0.00  0.00    +0.000 A 
ATOM      6  C   UNL     1       2.373   2.214  19.236  0.00  0.00    +0.000 A 
ATOM      7  C   UNL     1       2.854   3.408  18.682  0.00  0.00    +0.000 A 
ATOM      8  N   UNL     1       3.692   3.306  17.633  0.00  0.00    +0.000 NA
ATOM      9  C   UNL     1       4.227   4.373  17.015  0.00  0.00    +0.000 A 
ATOM     10  C   UNL     1       5.048   4.141  15.903  0.00  0.00    +0.000 A 
ATOM     11  C   UNL     1       5.643   5.200  15.230  0.00  0.00    +0.000 A 
ATOM     12  C   UNL     1       5.429   6.500  15.671  0.00  0.00    +0.000 A 
ATOM     13  C   UNL     1       4.609   6.749  16.778  0.00  0.00    +0.000 A 
ATOM     14  C   UNL     1       3.968   5.686  17.486  0.00  0.00    +0.000 A 
ENDROOT
BRANCH   1  15
ATOM     15  N   UNL     1       2.890   7.234  19.121  0.00  0.00    +0.000 N 
ATOM     16  H   UNL     1       3.511   7.572  19.861  0.00  0.00    +0.000 HD
BRANCH  15  17
ATOM     17  C   UNL     1       1.740   8.104  18.918  0.00  0.00    +0.000 C 
ATOM     18  C   UNL     1       2.085   9.133  17.828  0.00  0.00    +0.000 C 
BRANCH  17  19
ATOM     19  C   UNL     1       1.311   8.830  20.211  0.00  0.00    +0.000 C 
BRANCH  19  20
ATOM     20  C   UNL     1       0.715  10.215  19.899  0.00  0.00    +0.000 C 
BRANCH  20  21
ATOM     21  C   UNL     1      -0.805  10.143  19.689  0.00  0.00    +0.000 C 
BRANCH  21  22
ATOM     22  N   UNL     1      -1.295  11.023  18.594  0.00  0.00    +0.000 NA
BRANCH  22  24
ATOM     23  C   UNL     1      -3.188   9.837  17.404  0.00  0.00    +0.000 C 
ATOM     24  C   UNL     1      -1.695  10.177  17.441  0.00  0.00    +0.000 C 
ENDBRANCH  22  24
BRANCH  22  25
ATOM     25  C   UNL     1      -2.333  12.007  19.015  0.00  0.00    +0.000 C 
ATOM     26  C   UNL     1      -1.847  13.045  20.035  0.00  0.00    +0.000 C 
ENDBRANCH  22  25
ENDBRANCH  21  22
ENDBRANCH  20  21
ENDBRANCH  19  20
ENDBRANCH  17  19
ENDBRANCH  15  17
ENDBRANCH   1  15
TORSDOF 8
ENDMDL
MODEL 5
REMARK VINA RESULT:      -7.1      1.916      4.317
REMARK  Name = 
REMARK  11 active torsions:
REMARK  status: ('A' for Active; 'I' for Inactive)
REMARK    1  A    between atoms: C_1  and  C_2
REMARK    2  A    between atoms: C_2  and  N_3
REMARK    3  A    between atoms: N_3  and  C_4
REMARK    4  A    between atoms: N_3  and  C_6
REMARK    5  A    between atoms: C_4  and  C_5
REMARK    6  A    between atoms: C_6  and  C_7
REMARK    7  A    between atoms: C_7  and  C_8
REMARK    8  A    between atoms: C_8  and  C_9
REMARK    9  A    between atoms: C_9  and  C_10
REMARK   10  A    between atoms: C_9  and  N_11
REMARK   11  A    between atoms: N_11  and  C_12
REMARK                            x       y       z     vdW  Elec       q    Type
REMARK                         _______ _______ _______ _____ _____    ______ ____
ROOT
ATOM      1  C   UNL     1       3.184   5.724  18.490  0.00  0.00    +0.000 A 
ATOM      2  C   UNL     1       4.603   5.805  18.154  0.00  0.00    +0.000 A 
ATOM      3  C   UNL     1       5.244   6.840  17.412  0.00  0.00    +0.000 A 
ATOM      4  C   UNL     1       6.595   6.795  17.081  0.00  0.00    +0.000 A 
ATOM      5  C   UNL     1       7.380   5.727  17.479  0.00  0.00    +0.000 A 
ATOM      6  C   UNL     1       6.820   4.719  18.246  0.00  0.00    +0.000 A 
ATOM      7  C   UNL     1       5.463   4.755  18.595  0.00  0.00    +0.000 A 
ATOM      8  N   UNL     1       4.999   3.758  19.371  0.00  0.00    +0.000 NA
ATOM      9  C   UNL     1       3.720   3.674  19.772  0.00  0.00    +0.000 A 
ATOM     10  C   UNL     1       3.368   2.614  20.619  0.00  0.00    +0.000 A 
ATOM     11  C   UNL     1       2.058   2.464  21.056  0.00  0.00    +0.000 A 
ATOM     12  C   UNL     1       1.088   3.366  20.639  0.00  0.00    +0.000 A 
ATOM     13  C   UNL     1       1.423   4.432  19.796  0.00  0.00    +0.000 A 
ATOM     14  C   UNL     1       2.763   4.628  19.339  0.00  0.00    +0.000 A 
ENDROOT
BRANCH   1  15
ATOM     15  N   UNL     1       2.164   6.654  18.008  0.00  0.00    +0.000 N 
ATOM     16  H   UNL     1       1.871   6.589  17.030  0.00  0.00    +0.000 HD
BRANCH  15  17
ATOM     17  C   UNL     1       1.690   7.871  18.653  0.00  0.00    +0.000 C 
ATOM     18  C   UNL     1       2.158   9.082  17.829  0.00  0.00    +0.000 C 
BRANCH  17  19
ATOM     19  C   UNL     1       2.186   8.001  20.109  0.00  0.00    +0.000 C 
BRANCH  19  20
ATOM     20  C   UNL     1       1.007   8.008  21.100  0.00  0.00    +0.000 C 
BRANCH  20  21
ATOM     21  C   UNL     1       0.932   9.329  21.881  0.00  0.00    +0.000 C 
BRANCH  21  22
ATOM     22  N   UNL     1      -0.368  10.037  21.727  0.00  0.00    +0.000 NA
BRANCH  22  24
ATOM     23  C   UNL     1      -1.814  11.613  23.081  0.00  0.00    +0.000 C 
ATOM     24  C   UNL     1      -0.878  10.400  23.073  0.00  0.00    +0.000 C 
ENDBRANCH  22  24
BRANCH  22  25
ATOM     25  C   UNL     1      -0.338  11.172  20.762  0.00  0.00    +0.000 C 
ATOM     26  C   UNL     1       1.061  11.744  20.497  0.00  0.00    +0.000 C 
ENDBRANCH  22  25
ENDBRANCH  21  22
ENDBRANCH  20  21
ENDBRANCH  19  20
ENDBRANCH  17  19
ENDBRANCH  15  17
ENDBRANCH   1  15
TORSDOF 8
ENDMDL
MODEL 6
REMARK VINA RESULT:      -7.0      1.419      4.057
REMARK  Name = 
REMARK  11 active torsions:
REMARK  status: ('A' for Active; 'I' for Inactive)
REMARK    1  A    between atoms: C_1  and  C_2
REMARK    2  A    between atoms: C_2  and  N_3
REMARK    3  A    between atoms: N_3  and  C_4
REMARK    4  A    between atoms: N_3  and  C_6
REMARK    5  A    between atoms: C_4  and  C_5
REMARK    6  A    between atoms: C_6  and  C_7
REMARK    7  A    between atoms: C_7  and  C_8
REMARK    8  A    between atoms: C_8  and  C_9
REMARK    9  A    between atoms: C_9  and  C_10
REMARK   10  A    between atoms: C_9  and  N_11
REMARK   11  A    between atoms: N_11  and  C_12
REMARK                            x       y       z     vdW  Elec       q    Type
REMARK                         _______ _______ _______ _____ _____    ______ ____
ROOT
ATOM      1  C   UNL     1       3.280   5.823  18.693  0.00  0.00    +0.000 A 
ATOM      2  C   UNL     1       4.656   5.809  18.204  0.00  0.00    +0.000 A 
ATOM      3  C   UNL     1       5.306   6.838  17.460  0.00  0.00    +0.000 A 
ATOM      4  C   UNL     1       6.604   6.704  16.976  0.00  0.00    +0.000 A 
ATOM      5  C   UNL     1       7.326   5.548  17.215  0.00  0.00    +0.000 A 
ATOM      6  C   UNL     1       6.762   4.537  17.976  0.00  0.00    +0.000 A 
ATOM      7  C   UNL     1       5.459   4.662  18.478  0.00  0.00    +0.000 A 
ATOM      8  N   UNL     1       4.992   3.654  19.238  0.00  0.00    +0.000 NA
ATOM      9  C   UNL     1       3.760   3.649  19.774  0.00  0.00    +0.000 A 
ATOM     10  C   UNL     1       3.406   2.564  20.588  0.00  0.00    +0.000 A 
ATOM     11  C   UNL     1       2.142   2.493  21.161  0.00  0.00    +0.000 A 
ATOM     12  C   UNL     1       1.219   3.501  20.914  0.00  0.00    +0.000 A 
ATOM     13  C   UNL     1       1.558   4.593  20.106  0.00  0.00    +0.000 A 
ATOM     14  C   UNL     1       2.854   4.709  19.513  0.00  0.00    +0.000 A 
ENDROOT
BRANCH   1  15
ATOM     15  N   UNL     1       2.304   6.868  18.389  0.00  0.00    +0.000 N 
ATOM     16  H   UNL     1       1.743   6.776  17.538  0.00  0.00    +0.000 HD
BRANCH  15  17
ATOM     17  C   UNL     1       2.199   8.194  18.984  0.00  0.00    +0.000 C 
ATOM     18  C   UNL     1       1.567   8.061  20.380  0.00  0.00    +0.000 C 
BRANCH  17  19
ATOM     19  C   UNL     1       1.367   9.166  18.119  0.00  0.00    +0.000 C 
BRANCH  19  20
ATOM     20  C   UNL     1       1.927  10.598  18.198  0.00  0.00    +0.000 C 
BRANCH  20  21
ATOM     21  C   UNL     1       0.853  11.603  18.641  0.00  0.00    +0.000 C 
BRANCH  21  22
ATOM     22  N   UNL     1      -0.156  11.022  19.567  0.00  0.00    +0.000 NA
BRANCH  22  24
ATOM     23  C   UNL     1      -0.502  10.631  22.044  0.00  0.00    +0.000 C 
ATOM     24  C   UNL     1       0.134  11.489  20.946  0.00  0.00    +0.000 C 
ENDBRANCH  22  24
BRANCH  22  25
ATOM     25  C   UNL     1      -1.570  11.227  19.142  0.00  0.00    +0.000 C 
ATOM     26  C   UNL     1      -2.074  10.216  18.104  0.00  0.00    +0.000 C 
ENDBRANCH  22  25
ENDBRANCH  21  22
ENDBRANCH  20  21
ENDBRANCH  19  20
ENDBRANCH  17  19
ENDBRANCH  15  17
ENDBRANCH   1  15
TORSDOF 8
ENDMDL
MODEL 7
REMARK VINA RESULT:      -7.0      1.384      2.038
REMARK  Name = 
REMARK  11 active torsions:
REMARK  status: ('A' for Active; 'I' for Inactive)
REMARK    1  A    between atoms: C_1  and  C_2
REMARK    2  A    between atoms: C_2  and  N_3
REMARK    3  A    between atoms: N_3  and  C_4
REMARK    4  A    between atoms: N_3  and  C_6
REMARK    5  A    between atoms: C_4  and  C_5
REMARK    6  A    between atoms: C_6  and  C_7
REMARK    7  A    between atoms: C_7  and  C_8
REMARK    8  A    between atoms: C_8  and  C_9
REMARK    9  A    between atoms: C_9  and  C_10
REMARK   10  A    between atoms: C_9  and  N_11
REMARK   11  A    between atoms: N_11  and  C_12
REMARK                            x       y       z     vdW  Elec       q    Type
REMARK                         _______ _______ _______ _____ _____    ______ ____
ROOT
ATOM      1  C   UNL     1       3.186   5.758  18.551  0.00  0.00    +0.000 A 
ATOM      2  C   UNL     1       2.749   4.642  19.386  0.00  0.00    +0.000 A 
ATOM      3  C   UNL     1       1.428   4.410  19.874  0.00  0.00    +0.000 A 
ATOM      4  C   UNL     1       1.122   3.351  20.723  0.00  0.00    +0.000 A 
ATOM      5  C   UNL     1       2.106   2.463  21.123  0.00  0.00    +0.000 A 
ATOM      6  C   UNL     1       3.394   2.612  20.638  0.00  0.00    +0.000 A 
ATOM      7  C   UNL     1       3.716   3.668  19.773  0.00  0.00    +0.000 A 
ATOM      8  N   UNL     1       4.981   3.726  19.316  0.00  0.00    +0.000 NA
ATOM      9  C   UNL     1       5.418   4.689  18.487  0.00  0.00    +0.000 A 
ATOM     10  C   UNL     1       6.745   4.615  18.041  0.00  0.00    +0.000 A 
ATOM     11  C   UNL     1       7.261   5.588  17.194  0.00  0.00    +0.000 A 
ATOM     12  C   UNL     1       6.457   6.648  16.797  0.00  0.00    +0.000 A 
ATOM     13  C   UNL     1       5.128   6.735  17.231  0.00  0.00    +0.000 A 
ATOM     14  C   UNL     1       4.558   5.745  18.089  0.00  0.00    +0.000 A 
ENDROOT
BRANCH   1  15
ATOM     15  N   UNL     1       2.343   6.892  18.177  0.00  0.00    +0.000 N 
ATOM     16  H   UNL     1       1.894   6.880  17.257  0.00  0.00    +0.000 HD
BRANCH  15  17
ATOM     17  C   UNL     1       2.263   8.197  18.819  0.00  0.00    +0.000 C 
ATOM     18  C   UNL     1       1.725   8.014  20.248  0.00  0.00    +0.000 C 
BRANCH  17  19
ATOM     19  C   UNL     1       1.367   9.185  18.042  0.00  0.00    +0.000 C 
BRANCH  19  20
ATOM     20  C   UNL     1       0.822  10.288  18.969  0.00  0.00    +0.000 C 
BRANCH  20  21
ATOM     21  C   UNL     1      -0.714  10.286  19.008  0.00  0.00    +0.000 C 
BRANCH  21  22
ATOM     22  N   UNL     1      -1.336  11.124  17.947  0.00  0.00    +0.000 NA
BRANCH  22  24
ATOM     23  C   UNL     1      -3.331   9.601  17.620  0.00  0.00    +0.000 C 
ATOM     24  C   UNL     1      -2.079  10.240  17.013  0.00  0.00    +0.000 C 
ENDBRANCH  22  24
BRANCH  22  25
ATOM     25  C   UNL     1      -2.134  12.273  18.461  0.00  0.00    +0.000 C 
ATOM     26  C   UNL     1      -2.309  12.293  19.985  0.00  0.00    +0.000 C 
ENDBRANCH  22  25
ENDBRANCH  21  22
ENDBRANCH  20  21
ENDBRANCH  19  20
ENDBRANCH  17  19
ENDBRANCH  15  17
ENDBRANCH   1  15
TORSDOF 8
ENDMDL
MODEL 8
REMARK VINA RESULT:      -7.0      1.148      3.902
REMARK  Name = 
REMARK  11 active torsions:
REMARK  status: ('A' for Active; 'I' for Inactive)
REMARK    1  A    between atoms: C_1  and  C_2
REMARK    2  A    between atoms: C_2  and  N_3
REMARK    3  A    between atoms: N_3  and  C_4
REMARK    4  A    between atoms: N_3  and  C_6
REMARK    5  A    between atoms: C_4  and  C_5
REMARK    6  A    between atoms: C_6  and  C_7
REMARK    7  A    between atoms: C_7  and  C_8
REMARK    8  A    between atoms: C_8  and  C_9
REMARK    9  A    between atoms: C_9  and  C_10
REMARK   10  A    between atoms: C_9  and  N_11
REMARK   11  A    between atoms: N_11  and  C_12
REMARK                            x       y       z     vdW  Elec       q    Type
REMARK                         _______ _______ _______ _____ _____    ______ ____
ROOT
ATOM      1  C   UNL     1       3.252   5.637  18.966  0.00  0.00    +0.000 A 
ATOM      2  C   UNL     1       4.207   5.653  17.861  0.00  0.00    +0.000 A 
ATOM      3  C   UNL     1       5.197   6.649  17.606  0.00  0.00    +0.000 A 
ATOM      4  C   UNL     1       6.020   6.613  16.485  0.00  0.00    +0.000 A 
ATOM      5  C   UNL     1       5.911   5.584  15.566  0.00  0.00    +0.000 A 
ATOM      6  C   UNL     1       5.002   4.564  15.791  0.00  0.00    +0.000 A 
ATOM      7  C   UNL     1       4.173   4.581  16.921  0.00  0.00    +0.000 A 
ATOM      8  N   UNL     1       3.339   3.537  17.090  0.00  0.00    +0.000 NA
ATOM      9  C   UNL     1       2.492   3.435  18.127  0.00  0.00    +0.000 A 
ATOM     10  C   UNL     1       1.708   2.277  18.220  0.00  0.00    +0.000 A 
ATOM     11  C   UNL     1       0.801   2.118  19.261  0.00  0.00    +0.000 A 
ATOM     12  C   UNL     1       0.665   3.122  20.211  0.00  0.00    +0.000 A 
ATOM     13  C   UNL     1       1.443   4.284  20.135  0.00  0.00    +0.000 A 
ATOM     14  C   UNL     1       2.396   4.475  19.088  0.00  0.00    +0.000 A 
ENDROOT
BRANCH   1  15
ATOM     15  N   UNL     1       3.086   6.721  19.933  0.00  0.00    +0.000 N 
ATOM     16  H   UNL     1       3.451   6.587  20.879  0.00  0.00    +0.000 HD
BRANCH  15  17
ATOM     17  C   UNL     1       2.213   7.882  19.832  0.00  0.00    +0.000 C 
ATOM     18  C   UNL     1       1.157   7.807  20.947  0.00  0.00    +0.000 C 
BRANCH  17  19
ATOM     19  C   UNL     1       1.519   7.983  18.456  0.00  0.00    +0.000 C 
BRANCH  19  20
ATOM     20  C   UNL     1       1.750   9.365  17.817  0.00  0.00    +0.000 C 
BRANCH  20  21
ATOM     21  C   UNL     1       1.158  10.492  18.676  0.00  0.00    +0.000 C 
BRANCH  21  22
ATOM     22  N   UNL     1      -0.303  10.350  18.917  0.00  0.00    +0.000 NA
BRANCH  22  24
ATOM     23  C   UNL     1       0.585  11.474  21.004  0.00  0.00    +0.000 C 
ATOM     24  C   UNL     1      -0.619  10.878  20.268  0.00  0.00    +0.000 C 
ENDBRANCH  22  24
BRANCH  22  25
ATOM     25  C   UNL     1      -1.161  10.904  17.832  0.00  0.00    +0.000 C 
ATOM     26  C   UNL     1      -1.983   9.854  17.074  0.00  0.00    +0.000 C 
ENDBRANCH  22  25
ENDBRANCH  21  22
ENDBRANCH  20  21
ENDBRANCH  19  20
ENDBRANCH  17  19
ENDBRANCH  15  17
ENDBRANCH   1  15
TORSDOF 8
ENDMDL
MODEL 9
REMARK VINA RESULT:      -7.0      0.608      3.705
REMARK  Name = 
REMARK  11 active torsions:
REMARK  status: ('A' for Active; 'I' for Inactive)
REMARK    1  A    between atoms: C_1  and  C_2
REMARK    2  A    between atoms: C_2  and  N_3
REMARK    3  A    between atoms: N_3  and  C_4
REMARK    4  A    between atoms: N_3  and  C_6
REMARK    5  A    between atoms: C_4  and  C_5
REMARK    6  A    between atoms: C_6  and  C_7
REMARK    7  A    between atoms: C_7  and  C_8
REMARK    8  A    between atoms: C_8  and  C_9
REMARK    9  A    between atoms: C_9  and  C_10
REMARK   10  A    between atoms: C_9  and  N_11
REMARK   11  A    between atoms: N_11  and  C_12
REMARK                            x       y       z     vdW  Elec       q    Type
REMARK                         _______ _______ _______ _____ _____    ______ ____
ROOT
ATOM      1  C   UNL     1       3.136   5.955  18.946  0.00  0.00    +0.000 A 
ATOM      2  C   UNL     1       3.983   5.808  17.765  0.00  0.00    +0.000 A 
ATOM      3  C   UNL     1       4.700   6.846  17.098  0.00  0.00    +0.000 A 
ATOM      4  C   UNL     1       5.428   6.620  15.934  0.00  0.00    +0.000 A 
ATOM      5  C   UNL     1       5.491   5.354  15.378  0.00  0.00    +0.000 A 
ATOM      6  C   UNL     1       4.855   4.300  16.013  0.00  0.00    +0.000 A 
ATOM      7  C   UNL     1       4.126   4.510  17.191  0.00  0.00    +0.000 A 
ATOM      8  N   UNL     1       3.565   3.431  17.769  0.00  0.00    +0.000 NA
ATOM      9  C   UNL     1       2.838   3.497  18.897  0.00  0.00    +0.000 A 
ATOM     10  C   UNL     1       2.346   2.298  19.430  0.00  0.00    +0.000 A 
ATOM     11  C   UNL     1       1.575   2.300  20.585  0.00  0.00    +0.000 A 
ATOM     12  C   UNL     1       1.282   3.505  21.211  0.00  0.00    +0.000 A 
ATOM     13  C   UNL     1       1.769   4.712  20.695  0.00  0.00    +0.000 A 
ATOM     14  C   UNL     1       2.577   4.747  19.517  0.00  0.00    +0.000 A 
ENDROOT
BRANCH   1  15
ATOM     15  N   UNL     1       2.798   7.233  19.569  0.00  0.00    +0.000 N 
ATOM     16  H   UNL     1       3.241   7.471  20.460  0.00  0.00    +0.000 HD
BRANCH  15  17
ATOM     17  C   UNL     1       1.688   8.119  19.244  0.00  0.00    +0.000 C 
ATOM     18  C   UNL     1       2.087   8.992  18.042  0.00  0.00    +0.000 C 
BRANCH  17  19
ATOM     19  C   UNL     1       1.280   9.016  20.433  0.00  0.00    +0.000 C 
BRANCH  19  20
ATOM     20  C   UNL     1      -0.232   9.305  20.418  0.00  0.00    +0.000 C 
BRANCH  20  21
ATOM     21  C   UNL     1      -0.521  10.814  20.447  0.00  0.00    +0.000 C 
BRANCH  21  22
ATOM     22  N   UNL     1      -1.223  11.306  19.231  0.00  0.00    +0.000 NA
BRANCH  22  24
ATOM     23  C   UNL     1       0.901  12.566  18.675  0.00  0.00    +0.000 C 
ATOM     24  C   UNL     1      -0.623  12.602  18.824  0.00  0.00    +0.000 C 
ENDBRANCH  22  24
BRANCH  22  25
ATOM     25  C   UNL     1      -1.317  10.308  18.129  0.00  0.00    +0.000 C 
ATOM     26  C   UNL     1      -2.751   9.957  17.711  0.00  0.00    +0.000 C 
ENDBRANCH  22  25
ENDBRANCH  21  22
ENDBRANCH  20  21
ENDBRANCH  19  20
ENDBRANCH  17  19
ENDBRANCH  15  17
ENDBRANCH   1  15
TORSDOF 8
ENDMDL
