MODEL 1
REMARK VINA RESULT:      -8.0      0.000      0.000
REMARK  Name = 
REMARK  5 active torsions:
REMARK  status: ('A' for Active; 'I' for Inactive)
REMARK    1  A    between atoms: C_1  and  C_2
REMARK    2  A    between atoms: C_2  and  C_4
REMARK    3  A    between atoms: C_8  and  N_9
REMARK    4  A    between atoms: N_18  and  C_19
REMARK    5  A    between atoms: C_19  and  C_21
REMARK                            x       y       z     vdW  Elec       q    Type
REMARK                         _______ _______ _______ _____ _____    ______ ____
ROOT
ATOM      1  N   UNL     1       2.976   7.019  18.030  0.00  0.00    +0.000 N 
ATOM      2  C   UNL     1       4.150   7.441  17.266  0.00  0.00    +0.000 C 
ATOM      3  C   UNL     1       4.706   6.134  16.800  0.00  0.00    +0.000 A 
ATOM      4  C   UNL     1       5.841   5.966  16.013  0.00  0.00    +0.000 A 
ATOM      5  C   UNL     1       6.262   4.670  15.731  0.00  0.00    +0.000 A 
ATOM      6  C   UNL     1       5.559   3.576  16.251  0.00  0.00    +0.000 A 
ATOM      7  C   UNL     1       4.412   3.758  17.044  0.00  0.00    +0.000 A 
ATOM      8  C   UNL     1       3.968   5.045  17.293  0.00  0.00    +0.000 A 
ATOM      9  C   UNL     1       2.827   5.624  18.065  0.00  0.00    +0.000 C 
ATOM     10  N   UNL     1       1.858   5.058  18.714  0.00  0.00    +0.000 NA
ENDROOT
BRANCH   1  15
ATOM     11  C   UNL     1       1.061   9.093  20.491  0.00  0.00    +0.000 A 
ATOM     12  C   UNL     1       0.383   9.970  19.644  0.00  0.00    +0.000 A 
ATOM     13  C   UNL     1       0.569   9.875  18.268  0.00  0.00    +0.000 A 
ATOM     14  C   UNL     1       1.424   8.903  17.736  0.00  0.00    +0.000 A 
ATOM     15  C   UNL     1       2.124   8.005  18.556  0.00  0.00    +0.000 A 
ATOM     16  C   UNL     1       1.927   8.133  19.943  0.00  0.00    +0.000 A 
BRANCH  11  18
ATOM     17  C   UNL     1      -0.485   8.929  22.554  0.00  0.00    +0.000 C 
ATOM     18  C   UNL     1       0.890   9.125  21.974  0.00  0.00    +0.000 C 
ATOM     19  O   UNL     1       1.868   9.305  22.698  0.00  0.00    +0.000 OA
ENDBRANCH  11  18
ENDBRANCH   1  15
BRANCH  10  20
ATOM     20  C   UNL     1       1.565   3.727  18.787  0.00  0.00    +0.000 C 
ATOM     21  O   UNL     1       0.914   3.093  17.966  0.00  0.00    +0.000 OA
BRANCH  20  22
ATOM     22  C   UNL     1       2.009   3.160  20.132  0.00  0.00    +0.000 C 
ATOM     23 CL   UNL     1       2.212   4.415  21.367  0.00  0.00    +0.000 Cl
ENDBRANCH  20  22
ENDBRANCH  10  20
TORSDOF 4
ENDMDL
MODEL 2
REMARK VINA RESULT:      -7.7      1.322      2.042
REMARK  Name = 
REMARK  5 active torsions:
REMARK  status: ('A' for Active; 'I' for Inactive)
REMARK    1  A    between atoms: C_1  and  C_2
REMARK    2  A    between atoms: C_2  and  C_4
REMARK    3  A    between atoms: C_8  and  N_9
REMARK    4  A    between atoms: N_18  and  C_19
REMARK    5  A    between atoms: C_19  and  C_21
REMARK                            x       y       z     vdW  Elec       q    Type
REMARK                         _______ _______ _______ _____ _____    ______ ____
ROOT
ATOM      1  N   UNL     1       3.005   6.825  18.353  0.00  0.00    +0.000 N 
ATOM      2  C   UNL     1       4.025   7.446  17.507  0.00  0.00    +0.000 C 
ATOM      3  C   UNL     1       4.589   6.267  16.782  0.00  0.00    +0.000 A 
ATOM      4  C   UNL     1       5.605   6.304  15.832  0.00  0.00    +0.000 A 
ATOM      5  C   UNL     1       6.062   5.099  15.307  0.00  0.00    +0.000 A 
ATOM      6  C   UNL     1       5.515   3.889  15.752  0.00  0.00    +0.000 A 
ATOM      7  C   UNL     1       4.488   3.863  16.711  0.00  0.00    +0.000 A 
ATOM      8  C   UNL     1       4.004   5.062  17.205  0.00  0.00    +0.000 A 
ATOM      9  C   UNL     1       2.953   5.431  18.203  0.00  0.00    +0.000 C 
ATOM     10  N   UNL     1       2.129   4.702  18.887  0.00  0.00    +0.000 NA
ENDROOT
BRANCH   1  15
ATOM     11  C   UNL     1       0.772   9.663  19.346  0.00  0.00    +0.000 A 
ATOM     12  C   UNL     1       0.526   9.364  20.687  0.00  0.00    +0.000 A 
ATOM     13  C   UNL     1       1.092   8.225  21.250  0.00  0.00    +0.000 A 
ATOM     14  C   UNL     1       1.909   7.388  20.481  0.00  0.00    +0.000 A 
ATOM     15  C   UNL     1       2.178   7.654  19.130  0.00  0.00    +0.000 A 
ATOM     16  C   UNL     1       1.582   8.805  18.584  0.00  0.00    +0.000 A 
BRANCH  11  18
ATOM     17  C   UNL     1      -1.199  10.847  18.170  0.00  0.00    +0.000 C 
ATOM     18  C   UNL     1       0.215  10.880  18.685  0.00  0.00    +0.000 C 
ATOM     19  O   UNL     1       0.909  11.889  18.576  0.00  0.00    +0.000 OA
ENDBRANCH  11  18
ENDBRANCH   1  15
BRANCH  10  20
ATOM     20  C   UNL     1       1.936   3.353  18.803  0.00  0.00    +0.000 C 
ATOM     21  O   UNL     1       1.263   2.780  17.955  0.00  0.00    +0.000 OA
BRANCH  20  22
ATOM     22  C   UNL     1       2.530   2.655  20.022  0.00  0.00    +0.000 C 
ATOM     23 CL   UNL     1       1.546   2.874  21.480  0.00  0.00    +0.000 Cl
ENDBRANCH  20  22
ENDBRANCH  10  20
TORSDOF 4
ENDMDL
MODEL 3
REMARK VINA RESULT:      -7.7      1.598      1.774
REMARK  Name = 
REMARK  5 active torsions:
REMARK  status: ('A' for Active; 'I' for Inactive)
REMARK    1  A    between atoms: C_1  and  C_2
REMARK    2  A    between atoms: C_2  and  C_4
REMARK    3  A    between atoms: C_8  and  N_9
REMARK    4  A    between atoms: N_18  and  C_19
REMARK    5  A    between atoms: C_19  and  C_21
REMARK                            x       y       z     vdW  Elec       q    Type
REMARK                         _______ _______ _______ _____ _____    ______ ____
ROOT
ATOM      1  N   UNL     1       2.298   7.765  18.875  0.00  0.00    +0.000 N 
ATOM      2  C   UNL     1       3.193   8.090  17.765  0.00  0.00    +0.000 C 
ATOM      3  C   UNL     1       3.909   6.795  17.551  0.00  0.00    +0.000 A 
ATOM      4  C   UNL     1       4.885   6.552  16.589  0.00  0.00    +0.000 A 
ATOM      5  C   UNL     1       5.503   5.306  16.577  0.00  0.00    +0.000 A 
ATOM      6  C   UNL     1       5.152   4.341  17.529  0.00  0.00    +0.000 A 
ATOM      7  C   UNL     1       4.164   4.597  18.496  0.00  0.00    +0.000 A 
ATOM      8  C   UNL     1       3.519   5.821  18.485  0.00  0.00    +0.000 A 
ATOM      9  C   UNL     1       2.450   6.444  19.324  0.00  0.00    +0.000 C 
ATOM     10  N   UNL     1       1.760   5.978  20.316  0.00  0.00    +0.000 NA
ENDROOT
BRANCH   1  15
ATOM     11  C   UNL     1       0.213   9.916  21.124  0.00  0.00    +0.000 A 
ATOM     12  C   UNL     1      -0.506  10.669  20.195  0.00  0.00    +0.000 A 
ATOM     13  C   UNL     1      -0.292  10.468  18.835  0.00  0.00    +0.000 A 
ATOM     14  C   UNL     1       0.633   9.511  18.400  0.00  0.00    +0.000 A 
ATOM     15  C   UNL     1       1.375   8.735  19.303  0.00  0.00    +0.000 A 
ATOM     16  C   UNL     1       1.148   8.970  20.671  0.00  0.00    +0.000 A 
BRANCH  11  18
ATOM     17  C   UNL     1      -1.199  10.799  23.098  0.00  0.00    +0.000 C 
ATOM     18  C   UNL     1       0.016  10.065  22.596  0.00  0.00    +0.000 C 
ATOM     19  O   UNL     1       0.838   9.587  23.375  0.00  0.00    +0.000 OA
ENDBRANCH  11  18
ENDBRANCH   1  15
BRANCH  10  20
ATOM     20  C   UNL     1       1.768   4.708  20.818  0.00  0.00    +0.000 C 
ATOM     21  O   UNL     1       2.530   4.285  21.678  0.00  0.00    +0.000 OA
BRANCH  20  22
ATOM     22  C   UNL     1       0.808   3.821  20.030  0.00  0.00    +0.000 C 
ATOM     23 CL   UNL     1       1.551   2.293  19.524  0.00  0.00    +0.000 Cl
ENDBRANCH  20  22
ENDBRANCH  10  20
TORSDOF 4
ENDMDL
MODEL 4
REMARK VINA RESULT:      -7.4      2.754      6.969
REMARK  Name = 
REMARK  5 active torsions:
REMARK  status: ('A' for Active; 'I' for Inactive)
REMARK    1  A    between atoms: C_1  and  C_2
REMARK    2  A    between atoms: C_2  and  C_4
REMARK    3  A    between atoms: C_8  and  N_9
REMARK    4  A    between atoms: N_18  and  C_19
REMARK    5  A    between atoms: C_19  and  C_21
REMARK                            x       y       z     vdW  Elec       q    Type
REMARK                         _______ _______ _______ _____ _____    ______ ____
ROOT
ATOM      1  N   UNL     1       4.572   5.464  16.777  0.00  0.00    +0.000 N 
ATOM      2  C   UNL     1       4.048   6.829  16.842  0.00  0.00    +0.000 C 
ATOM      3  C   UNL     1       3.275   6.805  18.122  0.00  0.00    +0.000 A 
ATOM      4  C   UNL     1       2.571   7.873  18.669  0.00  0.00    +0.000 A 
ATOM      5  C   UNL     1       1.843   7.656  19.834  0.00  0.00    +0.000 A 
ATOM      6  C   UNL     1       1.817   6.382  20.417  0.00  0.00    +0.000 A 
ATOM      7  C   UNL     1       2.534   5.311  19.856  0.00  0.00    +0.000 A 
ATOM      8  C   UNL     1       3.290   5.534  18.719  0.00  0.00    +0.000 A 
ATOM      9  C   UNL     1       4.160   4.674  17.859  0.00  0.00    +0.000 C 
ATOM     10  N   UNL     1       4.503   3.428  17.964  0.00  0.00    +0.000 NA
ENDROOT
BRANCH   1  15
ATOM     11  C   UNL     1       5.854   4.080  13.541  0.00  0.00    +0.000 A 
ATOM     12  C   UNL     1       7.207   4.414  13.615  0.00  0.00    +0.000 A 
ATOM     13  C   UNL     1       7.684   5.099  14.728  0.00  0.00    +0.000 A 
ATOM     14  C   UNL     1       6.815   5.446  15.769  0.00  0.00    +0.000 A 
ATOM     15  C   UNL     1       5.449   5.129  15.730  0.00  0.00    +0.000 A 
ATOM     16  C   UNL     1       4.993   4.448  14.588  0.00  0.00    +0.000 A 
BRANCH  11  18
ATOM     17  C   UNL     1       6.099   2.235  11.750  0.00  0.00    +0.000 C 
ATOM     18  C   UNL     1       5.281   3.326  12.387  0.00  0.00    +0.000 C 
ATOM     19  O   UNL     1       4.154   3.599  11.977  0.00  0.00    +0.000 OA
ENDBRANCH  11  18
ENDBRANCH   1  15
BRANCH  10  20
ATOM     20  C   UNL     1       4.220   2.565  18.983  0.00  0.00    +0.000 C 
ATOM     21  O   UNL     1       4.814   2.504  20.053  0.00  0.00    +0.000 OA
BRANCH  20  22
ATOM     22  C   UNL     1       3.169   1.552  18.542  0.00  0.00    +0.000 C 
ATOM     23 CL   UNL     1       1.523   2.208  18.602  0.00  0.00    +0.000 Cl
ENDBRANCH  20  22
ENDBRANCH  10  20
TORSDOF 4
ENDMDL
MODEL 5
REMARK VINA RESULT:      -7.4      2.434      3.764
REMARK  Name = 
REMARK  5 active torsions:
REMARK  status: ('A' for Active; 'I' for Inactive)
REMARK    1  A    between atoms: C_1  and  C_2
REMARK    2  A    between atoms: C_2  and  C_4
REMARK    3  A    between atoms: C_8  and  N_9
REMARK    4  A    between atoms: N_18  and  C_19
REMARK    5  A    between atoms: C_19  and  C_21
REMARK                            x       y       z     vdW  Elec       q    Type
REMARK                         _______ _______ _______ _____ _____    ______ ____
ROOT
ATOM      1  N   UNL     1       2.445   6.502  19.622  0.00  0.00    +0.000 N 
ATOM      2  C   UNL     1       1.783   5.603  20.567  0.00  0.00    +0.000 C 
ATOM      3  C   UNL     1       2.654   4.390  20.506  0.00  0.00    +0.000 A 
ATOM      4  C   UNL     1       2.472   3.218  21.233  0.00  0.00    +0.000 A 
ATOM      5  C   UNL     1       3.338   2.155  20.999  0.00  0.00    +0.000 A 
ATOM      6  C   UNL     1       4.350   2.274  20.038  0.00  0.00    +0.000 A 
ATOM      7  C   UNL     1       4.526   3.464  19.311  0.00  0.00    +0.000 A 
ATOM      8  C   UNL     1       3.691   4.536  19.570  0.00  0.00    +0.000 A 
ATOM      9  C   UNL     1       3.571   5.921  19.020  0.00  0.00    +0.000 C 
ATOM     10  N   UNL     1       4.274   6.555  18.135  0.00  0.00    +0.000 NA
ENDROOT
BRANCH   1  15
ATOM     11  C   UNL     1       0.889   9.807  20.453  0.00  0.00    +0.000 A 
ATOM     12  C   UNL     1       0.923  10.447  19.213  0.00  0.00    +0.000 A 
ATOM     13  C   UNL     1       1.466   9.786  18.115  0.00  0.00    +0.000 A 
ATOM     14  C   UNL     1       1.968   8.487  18.250  0.00  0.00    +0.000 A 
ATOM     15  C   UNL     1       1.952   7.811  19.480  0.00  0.00    +0.000 A 
ATOM     16  C   UNL     1       1.410   8.508  20.574  0.00  0.00    +0.000 A 
BRANCH  11  18
ATOM     17  C   UNL     1      -0.390   9.583  22.686  0.00  0.00    +0.000 C 
ATOM     18  C   UNL     1       0.301  10.449  21.666  0.00  0.00    +0.000 C 
ATOM     19  O   UNL     1       0.392  11.665  21.819  0.00  0.00    +0.000 OA
ENDBRANCH  11  18
ENDBRANCH   1  15
BRANCH  10  20
ATOM     20  C   UNL     1       5.415   6.134  17.515  0.00  0.00    +0.000 C 
ATOM     21  O   UNL     1       6.551   6.240  17.961  0.00  0.00    +0.000 OA
BRANCH  20  22
ATOM     22  C   UNL     1       5.106   5.668  16.096  0.00  0.00    +0.000 C 
ATOM     23 CL   UNL     1       5.649   4.009  15.789  0.00  0.00    +0.000 Cl
ENDBRANCH  20  22
ENDBRANCH  10  20
TORSDOF 4
ENDMDL
MODEL 6
REMARK VINA RESULT:      -7.4      2.150      3.335
REMARK  Name = 
REMARK  5 active torsions:
REMARK  status: ('A' for Active; 'I' for Inactive)
REMARK    1  A    between atoms: C_1  and  C_2
REMARK    2  A    between atoms: C_2  and  C_4
REMARK    3  A    between atoms: C_8  and  N_9
REMARK    4  A    between atoms: N_18  and  C_19
REMARK    5  A    between atoms: C_19  and  C_21
REMARK                            x       y       z     vdW  Elec       q    Type
REMARK                         _______ _______ _______ _____ _____    ______ ____
ROOT
ATOM      1  N   UNL     1       2.389   6.377  18.650  0.00  0.00    +0.000 N 
ATOM      2  C   UNL     1       1.687   5.218  19.199  0.00  0.00    +0.000 C 
ATOM      3  C   UNL     1       2.510   4.081  18.685  0.00  0.00    +0.000 A 
ATOM      4  C   UNL     1       2.277   2.731  18.926  0.00  0.00    +0.000 A 
ATOM      5  C   UNL     1       3.102   1.798  18.306  0.00  0.00    +0.000 A 
ATOM      6  C   UNL     1       4.124   2.227  17.449  0.00  0.00    +0.000 A 
ATOM      7  C   UNL     1       4.352   3.593  17.214  0.00  0.00    +0.000 A 
ATOM      8  C   UNL     1       3.558   4.525  17.860  0.00  0.00    +0.000 A 
ATOM      9  C   UNL     1       3.495   6.019  17.865  0.00  0.00    +0.000 C 
ATOM     10  N   UNL     1       4.229   6.907  17.273  0.00  0.00    +0.000 NA
ENDROOT
BRANCH   1  15
ATOM     11  C   UNL     1       1.219   9.264  20.730  0.00  0.00    +0.000 A 
ATOM     12  C   UNL     1       1.031  10.247  19.757  0.00  0.00    +0.000 A 
ATOM     13  C   UNL     1       1.299   9.952  18.424  0.00  0.00    +0.000 A 
ATOM     14  C   UNL     1       1.748   8.677  18.059  0.00  0.00    +0.000 A 
ATOM     15  C   UNL     1       1.949   7.664  19.009  0.00  0.00    +0.000 A 
ATOM     16  C   UNL     1       1.683   7.994  20.349  0.00  0.00    +0.000 A 
BRANCH  11  18
ATOM     17  C   UNL     1      -0.497   9.723  22.605  0.00  0.00    +0.000 C 
ATOM     18  C   UNL     1       0.929   9.507  22.174  0.00  0.00    +0.000 C 
ATOM     19  O   UNL     1       1.850   9.521  22.989  0.00  0.00    +0.000 OA
ENDBRANCH  11  18
ENDBRANCH   1  15
BRANCH  10  20
ATOM     20  C   UNL     1       5.356   6.703  16.531  0.00  0.00    +0.000 C 
ATOM     21  O   UNL     1       5.385   6.411  15.342  0.00  0.00    +0.000 OA
BRANCH  20  22
ATOM     22  C   UNL     1       6.590   6.711  17.428  0.00  0.00    +0.000 C 
ATOM     23 CL   UNL     1       7.417   5.143  17.463  0.00  0.00    +0.000 Cl
ENDBRANCH  20  22
ENDBRANCH  10  20
TORSDOF 4
ENDMDL
MODEL 7
REMARK VINA RESULT:      -7.3      4.318      8.068
REMARK  Name = 
REMARK  5 active torsions:
REMARK  status: ('A' for Active; 'I' for Inactive)
REMARK    1  A    between atoms: C_1  and  C_2
REMARK    2  A    between atoms: C_2  and  C_4
REMARK    3  A    between atoms: C_8  and  N_9
REMARK    4  A    between atoms: N_18  and  C_19
REMARK    5  A    between atoms: C_19  and  C_21
REMARK                            x       y       z     vdW  Elec       q    Type
REMARK                         _______ _______ _______ _____ _____    ______ ____
ROOT
ATOM      1  N   UNL     1       5.307   4.619  15.914  0.00  0.00    +0.000 N 
ATOM      2  C   UNL     1       3.974   4.058  16.136  0.00  0.00    +0.000 C 
ATOM      3  C   UNL     1       3.661   4.536  17.518  0.00  0.00    +0.000 A 
ATOM      4  C   UNL     1       2.488   4.284  18.222  0.00  0.00    +0.000 A 
ATOM      5  C   UNL     1       2.392   4.745  19.531  0.00  0.00    +0.000 A 
ATOM      6  C   UNL     1       3.467   5.426  20.114  0.00  0.00    +0.000 A 
ATOM      7  C   UNL     1       4.648   5.677  19.394  0.00  0.00    +0.000 A 
ATOM      8  C   UNL     1       4.731   5.254  18.078  0.00  0.00    +0.000 A 
ATOM      9  C   UNL     1       5.786   5.333  17.022  0.00  0.00    +0.000 C 
ATOM     10  N   UNL     1       6.959   5.883  17.024  0.00  0.00    +0.000 NA
ENDROOT
BRANCH   1  15
ATOM     11  C   UNL     1       5.899   3.452  12.404  0.00  0.00    +0.000 A 
ATOM     12  C   UNL     1       7.106   4.083  12.104  0.00  0.00    +0.000 A 
ATOM     13  C   UNL     1       7.711   4.895  13.058  0.00  0.00    +0.000 A 
ATOM     14  C   UNL     1       7.118   5.072  14.313  0.00  0.00    +0.000 A 
ATOM     15  C   UNL     1       5.904   4.455  14.652  0.00  0.00    +0.000 A 
ATOM     16  C   UNL     1       5.309   3.651  13.663  0.00  0.00    +0.000 A 
BRANCH  11  18
ATOM     17  C   UNL     1       3.895   2.986  10.843  0.00  0.00    +0.000 C 
ATOM     18  C   UNL     1       5.208   2.550  11.435  0.00  0.00    +0.000 C 
ATOM     19  O   UNL     1       5.718   1.473  11.131  0.00  0.00    +0.000 OA
ENDBRANCH  11  18
ENDBRANCH   1  15
BRANCH  10  20
ATOM     20  C   UNL     1       7.525   6.646  18.004  0.00  0.00    +0.000 C 
ATOM     21  O   UNL     1       7.942   6.232  19.079  0.00  0.00    +0.000 OA
BRANCH  20  22
ATOM     22  C   UNL     1       7.407   8.126  17.658  0.00  0.00    +0.000 C 
ATOM     23 CL   UNL     1       8.622   9.118  18.484  0.00  0.00    +0.000 Cl
ENDBRANCH  20  22
ENDBRANCH  10  20
TORSDOF 4
ENDMDL
MODEL 8
REMARK VINA RESULT:      -7.3      1.765      2.358
REMARK  Name = 
REMARK  5 active torsions:
REMARK  status: ('A' for Active; 'I' for Inactive)
REMARK    1  A    between atoms: C_1  and  C_2
REMARK    2  A    between atoms: C_2  and  C_4
REMARK    3  A    between atoms: C_8  and  N_9
REMARK    4  A    between atoms: N_18  and  C_19
REMARK    5  A    between atoms: C_19  and  C_21
REMARK                            x       y       z     vdW  Elec       q    Type
REMARK                         _______ _______ _______ _____ _____    ______ ____
ROOT
ATOM      1  N   UNL     1       3.372   6.514  18.169  0.00  0.00    +0.000 N 
ATOM      2  C   UNL     1       4.094   7.180  17.085  0.00  0.00    +0.000 C 
ATOM      3  C   UNL     1       4.781   6.032  16.416  0.00  0.00    +0.000 A 
ATOM      4  C   UNL     1       5.608   6.115  15.301  0.00  0.00    +0.000 A 
ATOM      5  C   UNL     1       6.227   4.953  14.851  0.00  0.00    +0.000 A 
ATOM      6  C   UNL     1       6.025   3.744  15.529  0.00  0.00    +0.000 A 
ATOM      7  C   UNL     1       5.185   3.672  16.654  0.00  0.00    +0.000 A 
ATOM      8  C   UNL     1       4.537   4.818  17.080  0.00  0.00    +0.000 A 
ATOM      9  C   UNL     1       3.596   5.130  18.199  0.00  0.00    +0.000 C 
ATOM     10  N   UNL     1       3.061   4.371  19.103  0.00  0.00    +0.000 NA
ENDROOT
BRANCH   1  15
ATOM     11  C   UNL     1       1.101   9.270  19.300  0.00  0.00    +0.000 A 
ATOM     12  C   UNL     1       0.802   8.864  20.601  0.00  0.00    +0.000 A 
ATOM     13  C   UNL     1       1.345   7.680  21.092  0.00  0.00    +0.000 A 
ATOM     14  C   UNL     1       2.191   6.906  20.290  0.00  0.00    +0.000 A 
ATOM     15  C   UNL     1       2.514   7.280  18.977  0.00  0.00    +0.000 A 
ATOM     16  C   UNL     1       1.941   8.474  18.503  0.00  0.00    +0.000 A 
BRANCH  11  18
ATOM     17  C   UNL     1      -0.853  10.579  18.233  0.00  0.00    +0.000 C 
ATOM     18  C   UNL     1       0.571  10.539  18.719  0.00  0.00    +0.000 C 
ATOM     19  O   UNL     1       1.296  11.530  18.650  0.00  0.00    +0.000 OA
ENDBRANCH  11  18
ENDBRANCH   1  15
BRANCH  10  20
ATOM     20  C   UNL     1       3.151   3.014  19.217  0.00  0.00    +0.000 C 
ATOM     21  O   UNL     1       4.007   2.405  19.848  0.00  0.00    +0.000 OA
BRANCH  20  22
ATOM     22  C   UNL     1       2.137   2.337  18.301  0.00  0.00    +0.000 C 
ATOM     23 CL   UNL     1       0.469   2.524  18.873  0.00  0.00    +0.000 Cl
ENDBRANCH  20  22
ENDBRANCH  10  20
TORSDOF 4
ENDMDL
MODEL 9
REMARK VINA RESULT:      -7.3      1.895      2.545
REMARK  Name = 
REMARK  5 active torsions:
REMARK  status: ('A' for Active; 'I' for Inactive)
REMARK    1  A    between atoms: C_1  and  C_2
REMARK    2  A    between atoms: C_2  and  C_4
REMARK    3  A    between atoms: C_8  and  N_9
REMARK    4  A    between atoms: N_18  and  C_19
REMARK    5  A    between atoms: C_19  and  C_21
REMARK                            x       y       z     vdW  Elec       q    Type
REMARK                         _______ _______ _______ _____ _____    ______ ____
ROOT
ATOM      1  N   UNL     1       2.525   7.290  18.991  0.00  0.00    +0.000 N 
ATOM      2  C   UNL     1       3.347   7.753  17.873  0.00  0.00    +0.000 C 
ATOM      3  C   UNL     1       3.975   6.482  17.399  0.00  0.00    +0.000 A 
ATOM      4  C   UNL     1       4.859   6.358  16.332  0.00  0.00    +0.000 A 
ATOM      5  C   UNL     1       5.409   5.106  16.073  0.00  0.00    +0.000 A 
ATOM      6  C   UNL     1       5.084   4.015  16.889  0.00  0.00    +0.000 A 
ATOM      7  C   UNL     1       4.188   4.152  17.964  0.00  0.00    +0.000 A 
ATOM      8  C   UNL     1       3.609   5.387  18.199  0.00  0.00    +0.000 A 
ATOM      9  C   UNL     1       2.642   5.910  19.213  0.00  0.00    +0.000 C 
ATOM     10  N   UNL     1       2.008   5.317  20.176  0.00  0.00    +0.000 NA
ENDROOT
BRANCH   1  15
ATOM     11  C   UNL     1       0.218  10.185  19.559  0.00  0.00    +0.000 A 
ATOM     12  C   UNL     1       0.022  10.115  20.939  0.00  0.00    +0.000 A 
ATOM     13  C   UNL     1       0.646   9.108  21.669  0.00  0.00    +0.000 A 
ATOM     14  C   UNL     1       1.469   8.176  21.027  0.00  0.00    +0.000 A 
ATOM     15  C   UNL     1       1.690   8.214  19.642  0.00  0.00    +0.000 A 
ATOM     16  C   UNL     1       1.037   9.234  18.927  0.00  0.00    +0.000 A 
BRANCH  11  18
ATOM     17  C   UNL     1      -1.649  10.933  17.938  0.00  0.00    +0.000 C 
ATOM     18  C   UNL     1      -0.402  11.253  18.719  0.00  0.00    +0.000 C 
ATOM     19  O   UNL     1       0.106  12.372  18.679  0.00  0.00    +0.000 OA
ENDBRANCH  11  18
ENDBRANCH   1  15
BRANCH  10  20
ATOM     20  C   UNL     1       1.989   3.984  20.470  0.00  0.00    +0.000 C 
ATOM     21  O   UNL     1       2.877   3.367  21.045  0.00  0.00    +0.000 OA
BRANCH  20  22
ATOM     22  C   UNL     1       0.779   3.317  19.825  0.00  0.00    +0.000 C 
ATOM     23 CL   UNL     1       1.231   2.167  18.554  0.00  0.00    +0.000 Cl
ENDBRANCH  20  22
ENDBRANCH  10  20
TORSDOF 4
ENDMDL
