MODEL 1
REMARK VINA RESULT:      -9.1      0.000      0.000
REMARK  Name = 
REMARK  1 active torsions:
REMARK  status: ('A' for Active; 'I' for Inactive)
REMARK    1  A    between atoms: N_5  and  C_6
REMARK                            x       y       z     vdW  Elec       q    Type
REMARK                         _______ _______ _______ _____ _____    ______ ____
ROOT
ATOM      1  O   UNL     1       5.040   1.124  19.970  0.00  0.00    +0.000 OA
ATOM      2  C   UNL     1       4.385   2.154  20.105  0.00  0.00    +0.000 A 
ATOM      3  N   UNL     1       4.537   3.222  19.272  0.00  0.00    +0.000 NA
ATOM      4  C   UNL     1       3.811   4.308  19.344  0.00  0.00    +0.000 A 
ATOM      5  N   UNL     1       3.959   5.382  18.412  0.00  0.00    +0.000 N 
ATOM      6  C   UNL     1       3.123   6.554  18.604  0.00  0.00    +0.000 A 
ATOM      7  C   UNL     1       3.095   7.640  17.708  0.00  0.00    +0.000 A 
ATOM      8  C   UNL     1       2.351   8.798  17.969  0.00  0.00    +0.000 A 
ATOM      9  C   UNL     1       1.556   8.876  19.102  0.00  0.00    +0.000 A 
ATOM     10  C   UNL     1       1.487   7.787  19.964  0.00  0.00    +0.000 A 
ATOM     11  C   UNL     1       2.257   6.636  19.720  0.00  0.00    +0.000 A 
ATOM     12  C   UNL     1       2.109   5.508  20.631  0.00  0.00    +0.000 A 
ATOM     13  C   UNL     1       2.819   4.395  20.457  0.00  0.00    +0.000 A 
ATOM     14  C   UNL     1       2.644   3.258  21.367  0.00  0.00    +0.000 A 
ATOM     15  O   UNL     1       1.827   3.240  22.281  0.00  0.00    +0.000 OA
ATOM     16  N   UNL     1       3.465   2.211  21.106  0.00  0.00    +0.000 N 
ATOM     17  H   UNL     1       3.381   1.388  21.681  0.00  0.00    +0.000 HD
ENDROOT
BRANCH   5  18
ATOM     18  C   UNL     1       4.973   5.265  17.384  0.00  0.00    +0.000 A 
ATOM     19  C   UNL     1       4.690   4.635  16.152  0.00  0.00    +0.000 A 
ATOM     20  C   UNL     1       5.672   4.446  15.171  0.00  0.00    +0.000 A 
ATOM     21  C   UNL     1       6.951   4.952  15.357  0.00  0.00    +0.000 A 
ATOM     22  C   UNL     1       7.257   5.610  16.543  0.00  0.00    +0.000 A 
ATOM     23  C   UNL     1       6.295   5.722  17.552  0.00  0.00    +0.000 A 
ATOM     24  F   UNL     1       6.696   6.262  18.713  0.00  0.00    +0.000 F 
ENDBRANCH   5  18
TORSDOF 1
ENDMDL
MODEL 2
REMARK VINA RESULT:      -9.0      0.981      1.393
REMARK  Name = 
REMARK  1 active torsions:
REMARK  status: ('A' for Active; 'I' for Inactive)
REMARK    1  A    between atoms: N_5  and  C_6
REMARK                            x       y       z     vdW  Elec       q    Type
REMARK                         _______ _______ _______ _____ _____    ______ ____
ROOT
ATOM      1  O   UNL     1       5.135   1.115  20.090  0.00  0.00    +0.000 OA
ATOM      2  C   UNL     1       4.456   2.133  20.203  0.00  0.00    +0.000 A 
ATOM      3  N   UNL     1       4.612   3.201  19.372  0.00  0.00    +0.000 NA
ATOM      4  C   UNL     1       3.863   4.273  19.420  0.00  0.00    +0.000 A 
ATOM      5  N   UNL     1       4.018   5.349  18.490  0.00  0.00    +0.000 N 
ATOM      6  C   UNL     1       3.153   6.504  18.654  0.00  0.00    +0.000 A 
ATOM      7  C   UNL     1       3.132   7.587  17.755  0.00  0.00    +0.000 A 
ATOM      8  C   UNL     1       2.357   8.731  17.990  0.00  0.00    +0.000 A 
ATOM      9  C   UNL     1       1.527   8.796  19.098  0.00  0.00    +0.000 A 
ATOM     10  C   UNL     1       1.454   7.707  19.960  0.00  0.00    +0.000 A 
ATOM     11  C   UNL     1       2.253   6.571  19.742  0.00  0.00    +0.000 A 
ATOM     12  C   UNL     1       2.099   5.442  20.651  0.00  0.00    +0.000 A 
ATOM     13  C   UNL     1       2.837   4.343  20.501  0.00  0.00    +0.000 A 
ATOM     14  C   UNL     1       2.656   3.205  21.409  0.00  0.00    +0.000 A 
ATOM     15  O   UNL     1       1.813   3.172  22.298  0.00  0.00    +0.000 OA
ATOM     16  N   UNL     1       3.505   2.173  21.175  0.00  0.00    +0.000 N 
ATOM     17  H   UNL     1       3.420   1.350  21.750  0.00  0.00    +0.000 HD
ENDROOT
BRANCH   5  18
ATOM     18  C   UNL     1       5.065   5.249  17.493  0.00  0.00    +0.000 A 
ATOM     19  C   UNL     1       6.277   5.958  17.637  0.00  0.00    +0.000 A 
ATOM     20  C   UNL     1       7.274   5.934  16.654  0.00  0.00    +0.000 A 
ATOM     21  C   UNL     1       7.125   5.134  15.528  0.00  0.00    +0.000 A 
ATOM     22  C   UNL     1       5.960   4.393  15.370  0.00  0.00    +0.000 A 
ATOM     23  C   UNL     1       4.934   4.487  16.315  0.00  0.00    +0.000 A 
ATOM     24  F   UNL     1       3.793   3.838  16.036  0.00  0.00    +0.000 F 
ENDBRANCH   5  18
TORSDOF 1
ENDMDL
MODEL 3
REMARK VINA RESULT:      -8.9      2.922      5.665
REMARK  Name = 
REMARK  1 active torsions:
REMARK  status: ('A' for Active; 'I' for Inactive)
REMARK    1  A    between atoms: N_5  and  C_6
REMARK                            x       y       z     vdW  Elec       q    Type
REMARK                         _______ _______ _______ _____ _____    ______ ____
ROOT
ATOM      1  O   UNL     1       7.237   8.517  17.192  0.00  0.00    +0.000 OA
ATOM      2  C   UNL     1       6.737   7.398  17.266  0.00  0.00    +0.000 A 
ATOM      3  N   UNL     1       5.446   7.207  17.661  0.00  0.00    +0.000 NA
ATOM      4  C   UNL     1       4.861   6.037  17.686  0.00  0.00    +0.000 A 
ATOM      5  N   UNL     1       3.486   5.885  18.048  0.00  0.00    +0.000 N 
ATOM      6  C   UNL     1       2.946   4.537  18.074  0.00  0.00    +0.000 A 
ATOM      7  C   UNL     1       1.589   4.252  18.316  0.00  0.00    +0.000 A 
ATOM      8  C   UNL     1       1.116   2.938  18.429  0.00  0.00    +0.000 A 
ATOM      9  C   UNL     1       1.976   1.867  18.234  0.00  0.00    +0.000 A 
ATOM     10  C   UNL     1       3.304   2.111  17.904  0.00  0.00    +0.000 A 
ATOM     11  C   UNL     1       3.787   3.428  17.819  0.00  0.00    +0.000 A 
ATOM     12  C   UNL     1       5.176   3.623  17.422  0.00  0.00    +0.000 A 
ATOM     13  C   UNL     1       5.693   4.848  17.336  0.00  0.00    +0.000 A 
ATOM     14  C   UNL     1       7.086   5.032  16.913  0.00  0.00    +0.000 A 
ATOM     15  O   UNL     1       7.821   4.110  16.576  0.00  0.00    +0.000 OA
ATOM     16  N   UNL     1       7.496   6.324  16.917  0.00  0.00    +0.000 N 
ATOM     17  H   UNL     1       8.437   6.524  16.616  0.00  0.00    +0.000 HD
ENDROOT
BRANCH   5  18
ATOM     18  C   UNL     1       2.741   7.068  18.429  0.00  0.00    +0.000 A 
ATOM     19  C   UNL     1       2.513   8.112  17.506  0.00  0.00    +0.000 A 
ATOM     20  C   UNL     1       1.858   9.296  17.869  0.00  0.00    +0.000 A 
ATOM     21  C   UNL     1       1.339   9.441  19.149  0.00  0.00    +0.000 A 
ATOM     22  C   UNL     1       1.512   8.418  20.074  0.00  0.00    +0.000 A 
ATOM     23  C   UNL     1       2.239   7.275  19.728  0.00  0.00    +0.000 A 
ATOM     24  F   UNL     1       2.469   6.386  20.707  0.00  0.00    +0.000 F 
ENDBRANCH   5  18
TORSDOF 1
ENDMDL
MODEL 4
REMARK VINA RESULT:      -8.4      2.912      5.727
REMARK  Name = 
REMARK  1 active torsions:
REMARK  status: ('A' for Active; 'I' for Inactive)
REMARK    1  A    between atoms: N_5  and  C_6
REMARK                            x       y       z     vdW  Elec       q    Type
REMARK                         _______ _______ _______ _____ _____    ______ ____
ROOT
ATOM      1  O   UNL     1       7.226   8.510  17.330  0.00  0.00    +0.000 OA
ATOM      2  C   UNL     1       6.725   7.389  17.363  0.00  0.00    +0.000 A 
ATOM      3  N   UNL     1       5.453   7.178  17.803  0.00  0.00    +0.000 NA
ATOM      4  C   UNL     1       4.865   6.008  17.788  0.00  0.00    +0.000 A 
ATOM      5  N   UNL     1       3.507   5.838  18.202  0.00  0.00    +0.000 N 
ATOM      6  C   UNL     1       2.963   4.492  18.175  0.00  0.00    +0.000 A 
ATOM      7  C   UNL     1       1.617   4.195  18.461  0.00  0.00    +0.000 A 
ATOM      8  C   UNL     1       1.144   2.878  18.521  0.00  0.00    +0.000 A 
ATOM      9  C   UNL     1       1.990   1.819  18.227  0.00  0.00    +0.000 A 
ATOM     10  C   UNL     1       3.303   2.079  17.852  0.00  0.00    +0.000 A 
ATOM     11  C   UNL     1       3.787   3.398  17.821  0.00  0.00    +0.000 A 
ATOM     12  C   UNL     1       5.158   3.614  17.374  0.00  0.00    +0.000 A 
ATOM     13  C   UNL     1       5.675   4.840  17.334  0.00  0.00    +0.000 A 
ATOM     14  C   UNL     1       7.048   5.046  16.860  0.00  0.00    +0.000 A 
ATOM     15  O   UNL     1       7.764   4.144  16.439  0.00  0.00    +0.000 OA
ATOM     16  N   UNL     1       7.464   6.335  16.919  0.00  0.00    +0.000 N 
ATOM     17  H   UNL     1       8.391   6.550  16.588  0.00  0.00    +0.000 HD
ENDROOT
BRANCH   5  18
ATOM     18  C   UNL     1       2.785   6.999  18.683  0.00  0.00    +0.000 A 
ATOM     19  C   UNL     1       2.323   7.069  20.015  0.00  0.00    +0.000 A 
ATOM     20  C   UNL     1       1.563   8.148  20.484  0.00  0.00    +0.000 A 
ATOM     21  C   UNL     1       1.305   9.232  19.655  0.00  0.00    +0.000 A 
ATOM     22  C   UNL     1       1.775   9.214  18.346  0.00  0.00    +0.000 A 
ATOM     23  C   UNL     1       2.462   8.098  17.862  0.00  0.00    +0.000 A 
ATOM     24  F   UNL     1       2.779   8.101  16.558  0.00  0.00    +0.000 F 
ENDBRANCH   5  18
TORSDOF 1
ENDMDL
MODEL 5
REMARK VINA RESULT:      -7.9      2.662      4.664
REMARK  Name = 
REMARK  1 active torsions:
REMARK  status: ('A' for Active; 'I' for Inactive)
REMARK    1  A    between atoms: N_5  and  C_6
REMARK                            x       y       z     vdW  Elec       q    Type
REMARK                         _______ _______ _______ _____ _____    ______ ____
ROOT
ATOM      1  O   UNL     1       2.582   9.889  17.444  0.00  0.00    +0.000 OA
ATOM      2  C   UNL     1       2.377   8.949  18.206  0.00  0.00    +0.000 A 
ATOM      3  N   UNL     1       3.024   7.757  18.074  0.00  0.00    +0.000 NA
ATOM      4  C   UNL     1       2.881   6.757  18.907  0.00  0.00    +0.000 A 
ATOM      5  N   UNL     1       3.624   5.543  18.769  0.00  0.00    +0.000 N 
ATOM      6  C   UNL     1       3.364   4.487  19.732  0.00  0.00    +0.000 A 
ATOM      7  C   UNL     1       4.091   3.282  19.773  0.00  0.00    +0.000 A 
ATOM      8  C   UNL     1       3.754   2.242  20.650  0.00  0.00    +0.000 A 
ATOM      9  C   UNL     1       2.722   2.405  21.562  0.00  0.00    +0.000 A 
ATOM     10  C   UNL     1       2.041   3.616  21.611  0.00  0.00    +0.000 A 
ATOM     11  C   UNL     1       2.357   4.649  20.712  0.00  0.00    +0.000 A 
ATOM     12  C   UNL     1       1.642   5.912  20.842  0.00  0.00    +0.000 A 
ATOM     13  C   UNL     1       1.891   6.924  20.012  0.00  0.00    +0.000 A 
ATOM     14  C   UNL     1       1.181   8.198  20.168  0.00  0.00    +0.000 A 
ATOM     15  O   UNL     1       0.381   8.423  21.069  0.00  0.00    +0.000 OA
ATOM     16  N   UNL     1       1.493   9.122  19.227  0.00  0.00    +0.000 N 
ATOM     17  H   UNL     1       1.057  10.028  19.288  0.00  0.00    +0.000 HD
ENDROOT
BRANCH   5  18
ATOM     18  C   UNL     1       4.533   5.418  17.648  0.00  0.00    +0.000 A 
ATOM     19  C   UNL     1       5.666   6.252  17.534  0.00  0.00    +0.000 A 
ATOM     20  C   UNL     1       6.520   6.200  16.425  0.00  0.00    +0.000 A 
ATOM     21  C   UNL     1       6.314   5.253  15.430  0.00  0.00    +0.000 A 
ATOM     22  C   UNL     1       5.228   4.390  15.527  0.00  0.00    +0.000 A 
ATOM     23  C   UNL     1       4.333   4.504  16.595  0.00  0.00    +0.000 A 
ATOM     24  F   UNL     1       3.245   3.720  16.559  0.00  0.00    +0.000 F 
ENDBRANCH   5  18
TORSDOF 1
ENDMDL
MODEL 6
REMARK VINA RESULT:      -7.9      3.141      6.017
REMARK  Name = 
REMARK  1 active torsions:
REMARK  status: ('A' for Active; 'I' for Inactive)
REMARK    1  A    between atoms: N_5  and  C_6
REMARK                            x       y       z     vdW  Elec       q    Type
REMARK                         _______ _______ _______ _____ _____    ______ ____
ROOT
ATOM      1  O   UNL     1      -0.015   8.783  21.260  0.00  0.00    +0.000 OA
ATOM      2  C   UNL     1       0.808   8.604  20.367  0.00  0.00    +0.000 A 
ATOM      3  N   UNL     1       1.328   7.372  20.100  0.00  0.00    +0.000 NA
ATOM      4  C   UNL     1       2.155   7.132  19.114  0.00  0.00    +0.000 A 
ATOM      5  N   UNL     1       2.631   5.815  18.828  0.00  0.00    +0.000 N 
ATOM      6  C   UNL     1       3.570   5.666  17.730  0.00  0.00    +0.000 A 
ATOM      7  C   UNL     1       4.042   4.419  17.279  0.00  0.00    +0.000 A 
ATOM      8  C   UNL     1       5.020   4.313  16.281  0.00  0.00    +0.000 A 
ATOM      9  C   UNL     1       5.505   5.451  15.655  0.00  0.00    +0.000 A 
ATOM     10  C   UNL     1       4.996   6.694  16.011  0.00  0.00    +0.000 A 
ATOM     11  C   UNL     1       4.037   6.805  17.033  0.00  0.00    +0.000 A 
ATOM     12  C   UNL     1       3.504   8.129  17.331  0.00  0.00    +0.000 A 
ATOM     13  C   UNL     1       2.602   8.298  18.296  0.00  0.00    +0.000 A 
ATOM     14  C   UNL     1       2.057   9.633  18.570  0.00  0.00    +0.000 A 
ATOM     15  O   UNL     1       2.347  10.631  17.922  0.00  0.00    +0.000 OA
ATOM     16  N   UNL     1       1.187   9.669  19.609  0.00  0.00    +0.000 N 
ATOM     17  H   UNL     1       0.758  10.552  19.838  0.00  0.00    +0.000 HD
ENDROOT
BRANCH   5  18
ATOM     18  C   UNL     1       2.204   4.729  19.687  0.00  0.00    +0.000 A 
ATOM     19  C   UNL     1       2.691   4.611  21.007  0.00  0.00    +0.000 A 
ATOM     20  C   UNL     1       2.349   3.532  21.833  0.00  0.00    +0.000 A 
ATOM     21  C   UNL     1       1.444   2.576  21.392  0.00  0.00    +0.000 A 
ATOM     22  C   UNL     1       0.915   2.680  20.110  0.00  0.00    +0.000 A 
ATOM     23  C   UNL     1       1.325   3.713  19.263  0.00  0.00    +0.000 A 
ATOM     24  F   UNL     1       0.866   3.681  18.003  0.00  0.00    +0.000 F 
ENDBRANCH   5  18
TORSDOF 1
ENDMDL
MODEL 7
REMARK VINA RESULT:      -7.9      2.391      4.418
REMARK  Name = 
REMARK  1 active torsions:
REMARK  status: ('A' for Active; 'I' for Inactive)
REMARK    1  A    between atoms: N_5  and  C_6
REMARK                            x       y       z     vdW  Elec       q    Type
REMARK                         _______ _______ _______ _____ _____    ______ ____
ROOT
ATOM      1  O   UNL     1       2.649   9.780  17.348  0.00  0.00    +0.000 OA
ATOM      2  C   UNL     1       2.460   8.839  18.115  0.00  0.00    +0.000 A 
ATOM      3  N   UNL     1       3.121   7.655  17.982  0.00  0.00    +0.000 NA
ATOM      4  C   UNL     1       2.994   6.656  18.819  0.00  0.00    +0.000 A 
ATOM      5  N   UNL     1       3.751   5.451  18.680  0.00  0.00    +0.000 N 
ATOM      6  C   UNL     1       3.509   4.394  19.647  0.00  0.00    +0.000 A 
ATOM      7  C   UNL     1       4.250   3.198  19.687  0.00  0.00    +0.000 A 
ATOM      8  C   UNL     1       3.931   2.157  20.569  0.00  0.00    +0.000 A 
ATOM      9  C   UNL     1       2.903   2.310  21.487  0.00  0.00    +0.000 A 
ATOM     10  C   UNL     1       2.208   3.513  21.537  0.00  0.00    +0.000 A 
ATOM     11  C   UNL     1       2.506   4.547  20.633  0.00  0.00    +0.000 A 
ATOM     12  C   UNL     1       1.777   5.803  20.764  0.00  0.00    +0.000 A 
ATOM     13  C   UNL     1       2.009   6.814  19.929  0.00  0.00    +0.000 A 
ATOM     14  C   UNL     1       1.285   8.080  20.086  0.00  0.00    +0.000 A 
ATOM     15  O   UNL     1       0.487   8.299  20.991  0.00  0.00    +0.000 OA
ATOM     16  N   UNL     1       1.580   9.005  19.140  0.00  0.00    +0.000 N 
ATOM     17  H   UNL     1       1.133   9.906  19.201  0.00  0.00    +0.000 HD
ENDROOT
BRANCH   5  18
ATOM     18  C   UNL     1       4.655   5.333  17.554  0.00  0.00    +0.000 A 
ATOM     19  C   UNL     1       4.259   4.676  16.369  0.00  0.00    +0.000 A 
ATOM     20  C   UNL     1       5.136   4.487  15.294  0.00  0.00    +0.000 A 
ATOM     21  C   UNL     1       6.417   5.021  15.337  0.00  0.00    +0.000 A 
ATOM     22  C   UNL     1       6.831   5.706  16.474  0.00  0.00    +0.000 A 
ATOM     23  C   UNL     1       5.977   5.819  17.575  0.00  0.00    +0.000 A 
ATOM     24  F   UNL     1       6.485   6.388  18.679  0.00  0.00    +0.000 F 
ENDBRANCH   5  18
TORSDOF 1
ENDMDL
MODEL 8
REMARK VINA RESULT:      -7.6      2.665      5.020
REMARK  Name = 
REMARK  1 active torsions:
REMARK  status: ('A' for Active; 'I' for Inactive)
REMARK    1  A    between atoms: N_5  and  C_6
REMARK                            x       y       z     vdW  Elec       q    Type
REMARK                         _______ _______ _______ _____ _____    ______ ____
ROOT
ATOM      1  O   UNL     1       5.364   2.829  16.604  0.00  0.00    +0.000 OA
ATOM      2  C   UNL     1       4.931   3.971  16.738  0.00  0.00    +0.000 A 
ATOM      3  N   UNL     1       4.016   4.289  17.696  0.00  0.00    +0.000 NA
ATOM      4  C   UNL     1       3.584   5.505  17.912  0.00  0.00    +0.000 A 
ATOM      5  N   UNL     1       2.668   5.808  18.967  0.00  0.00    +0.000 N 
ATOM      6  C   UNL     1       2.230   7.187  19.097  0.00  0.00    +0.000 A 
ATOM      7  C   UNL     1       1.410   7.642  20.147  0.00  0.00    +0.000 A 
ATOM      8  C   UNL     1       0.925   8.956  20.193  0.00  0.00    +0.000 A 
ATOM      9  C   UNL     1       1.304   9.874  19.226  0.00  0.00    +0.000 A 
ATOM     10  C   UNL     1       2.185   9.484  18.224  0.00  0.00    +0.000 A 
ATOM     11  C   UNL     1       2.648   8.159  18.159  0.00  0.00    +0.000 A 
ATOM     12  C   UNL     1       3.608   7.820  17.115  0.00  0.00    +0.000 A 
ATOM     13  C   UNL     1       4.074   6.578  16.997  0.00  0.00    +0.000 A 
ATOM     14  C   UNL     1       5.057   6.255  15.956  0.00  0.00    +0.000 A 
ATOM     15  O   UNL     1       5.533   7.086  15.190  0.00  0.00    +0.000 OA
ATOM     16  N   UNL     1       5.407   4.946  15.916  0.00  0.00    +0.000 N 
ATOM     17  H   UNL     1       6.095   4.659  15.238  0.00  0.00    +0.000 HD
ENDROOT
BRANCH   5  18
ATOM     18  C   UNL     1       2.186   4.719  19.792  0.00  0.00    +0.000 A 
ATOM     19  C   UNL     1       2.688   4.516  21.095  0.00  0.00    +0.000 A 
ATOM     20  C   UNL     1       2.291   3.429  21.885  0.00  0.00    +0.000 A 
ATOM     21  C   UNL     1       1.316   2.554  21.427  0.00  0.00    +0.000 A 
ATOM     22  C   UNL     1       0.771   2.744  20.162  0.00  0.00    +0.000 A 
ATOM     23  C   UNL     1       1.233   3.782  19.347  0.00  0.00    +0.000 A 
ATOM     24  F   UNL     1       0.748   3.830  18.097  0.00  0.00    +0.000 F 
ENDBRANCH   5  18
TORSDOF 1
ENDMDL
MODEL 9
REMARK VINA RESULT:      -7.5      2.044      4.789
REMARK  Name = 
REMARK  1 active torsions:
REMARK  status: ('A' for Active; 'I' for Inactive)
REMARK    1  A    between atoms: N_5  and  C_6
REMARK                            x       y       z     vdW  Elec       q    Type
REMARK                         _______ _______ _______ _____ _____    ______ ____
ROOT
ATOM      1  O   UNL     1      -0.011   2.938  19.391  0.00  0.00    +0.000 OA
ATOM      2  C   UNL     1       1.127   3.095  18.957  0.00  0.00    +0.000 A 
ATOM      3  N   UNL     1       1.680   4.332  18.807  0.00  0.00    +0.000 NA
ATOM      4  C   UNL     1       2.911   4.533  18.412  0.00  0.00    +0.000 A 
ATOM      5  N   UNL     1       3.474   5.845  18.325  0.00  0.00    +0.000 N 
ATOM      6  C   UNL     1       4.840   5.955  17.845  0.00  0.00    +0.000 A 
ATOM      7  C   UNL     1       5.549   7.171  17.803  0.00  0.00    +0.000 A 
ATOM      8  C   UNL     1       6.831   7.263  17.245  0.00  0.00    +0.000 A 
ATOM      9  C   UNL     1       7.472   6.126  16.776  0.00  0.00    +0.000 A 
ATOM     10  C   UNL     1       6.839   4.893  16.885  0.00  0.00    +0.000 A 
ATOM     11  C   UNL     1       5.540   4.803  17.416  0.00  0.00    +0.000 A 
ATOM     12  C   UNL     1       4.945   3.479  17.549  0.00  0.00    +0.000 A 
ATOM     13  C   UNL     1       3.714   3.332  18.035  0.00  0.00    +0.000 A 
ATOM     14  C   UNL     1       3.136   1.992  18.186  0.00  0.00    +0.000 A 
ATOM     15  O   UNL     1       3.743   0.958  17.931  0.00  0.00    +0.000 OA
ATOM     16  N   UNL     1       1.859   1.991  18.644  0.00  0.00    +0.000 N 
ATOM     17  H   UNL     1       1.409   1.102  18.791  0.00  0.00    +0.000 HD
ENDROOT
BRANCH   5  18
ATOM     18  C   UNL     1       2.632   6.977  18.654  0.00  0.00    +0.000 A 
ATOM     19  C   UNL     1       2.287   7.935  17.677  0.00  0.00    +0.000 A 
ATOM     20  C   UNL     1       1.534   9.075  17.986  0.00  0.00    +0.000 A 
ATOM     21  C   UNL     1       1.032   9.253  19.268  0.00  0.00    +0.000 A 
ATOM     22  C   UNL     1       1.321   8.311  20.249  0.00  0.00    +0.000 A 
ATOM     23  C   UNL     1       2.143   7.219  19.953  0.00  0.00    +0.000 A 
ATOM     24  F   UNL     1       2.476   6.418  20.976  0.00  0.00    +0.000 F 
ENDBRANCH   5  18
TORSDOF 1
ENDMDL
