MODEL 1
REMARK VINA RESULT:      -6.6      0.000      0.000
REMARK  Name = 
REMARK  9 active torsions:
REMARK  status: ('A' for Active; 'I' for Inactive)
REMARK    1  A    between atoms: C_1  and  C_2
REMARK    2  A    between atoms: C_2  and  C_3
REMARK    3  A    between atoms: C_2  and  O_4
REMARK    4  A    between atoms: O_4  and  C_5
REMARK    5  A    between atoms: C_5  and  C_7
REMARK    6  A    between atoms: C_8  and  C_9
REMARK    7  A    between atoms: C_15  and  C_16
REMARK    8  A    between atoms: C_16  and  O_18
REMARK    9  A    between atoms: C_19  and  C_20
REMARK                            x       y       z     vdW  Elec       q    Type
REMARK                         _______ _______ _______ _____ _____    ______ ____
ROOT
ATOM      1  C   UNL     1       4.584   5.745  17.843  0.00  0.00    +0.000 C 
ATOM      2  C   UNL     1       4.946   5.036  19.179  0.00  0.00    +0.000 C 
ATOM      3  C   UNL     1       5.966   4.162  18.370  0.00  0.00    +0.000 C 
ATOM      4  C   UNL     1       5.152   4.509  17.090  0.00  0.00    +0.000 C 
ENDROOT
BRANCH   2   5
ATOM      5  C   UNL     1       3.814   4.273  20.011  0.00  0.00    +0.000 A 
ATOM      6  C   UNL     1       2.785   4.941  20.703  0.00  0.00    +0.000 A 
ATOM      7  C   UNL     1       1.804   4.260  21.427  0.00  0.00    +0.000 A 
ATOM      8  C   UNL     1       1.820   2.873  21.478  0.00  0.00    +0.000 A 
ATOM      9  C   UNL     1       2.816   2.175  20.807  0.00  0.00    +0.000 A 
ATOM     10  C   UNL     1       3.796   2.866  20.088  0.00  0.00    +0.000 A 
ENDBRANCH   2   5
BRANCH   4  11
ATOM     11  C   UNL     1       5.888   4.652  15.695  0.00  0.00    +0.000 A 
ATOM     12  C   UNL     1       5.570   3.773  14.638  0.00  0.00    +0.000 A 
ATOM     13  C   UNL     1       6.201   3.837  13.397  0.00  0.00    +0.000 A 
ATOM     14  C   UNL     1       7.177   4.799  13.168  0.00  0.00    +0.000 A 
ATOM     15  C   UNL     1       7.505   5.699  14.177  0.00  0.00    +0.000 A 
ATOM     16  C   UNL     1       6.865   5.625  15.417  0.00  0.00    +0.000 A 
ENDBRANCH   4  11
BRANCH   1  17
ATOM     17  C   UNL     1       3.128   6.169  17.563  0.00  0.00    +0.000 C 
ATOM     18  O   UNL     1       2.168   5.404  17.507  0.00  0.00    +0.000 OA
BRANCH  17  19
ATOM     19  O   UNL     1       3.006   7.531  17.507  0.00  0.00    +0.000 OA
BRANCH  19  21
ATOM     20  C   UNL     1       2.051   7.940  19.663  0.00  0.00    +0.000 C 
ATOM     21  C   UNL     1       1.853   8.093  18.158  0.00  0.00    +0.000 C 
ATOM     22  C   UNL     1       1.769   9.566  17.780  0.00  0.00    +0.000 C 
ENDBRANCH  19  21
ENDBRANCH  17  19
ENDBRANCH   1  17
BRANCH   3  23
ATOM     23  C   UNL     1       7.456   4.605  18.452  0.00  0.00    +0.000 C 
ATOM     24  O   UNL     1       7.906   5.487  19.174  0.00  0.00    +0.000 OA
BRANCH  23  25
ATOM     25  O   UNL     1       8.291   3.886  17.650  0.00  0.00    +0.000 OA
ATOM     26  H   UNL     1       7.883   3.589  16.813  0.00  0.00    +0.000 HD
ENDBRANCH  23  25
ENDBRANCH   3  23
TORSDOF 7
ENDMDL
MODEL 2
REMARK VINA RESULT:      -6.4      8.363     12.426
REMARK  Name = 
REMARK  9 active torsions:
REMARK  status: ('A' for Active; 'I' for Inactive)
REMARK    1  A    between atoms: C_1  and  C_2
REMARK    2  A    between atoms: C_2  and  C_3
REMARK    3  A    between atoms: C_2  and  O_4
REMARK    4  A    between atoms: O_4  and  C_5
REMARK    5  A    between atoms: C_5  and  C_7
REMARK    6  A    between atoms: C_8  and  C_9
REMARK    7  A    between atoms: C_15  and  C_16
REMARK    8  A    between atoms: C_16  and  O_18
REMARK    9  A    between atoms: C_19  and  C_20
REMARK                            x       y       z     vdW  Elec       q    Type
REMARK                         _______ _______ _______ _____ _____    ______ ____
ROOT
ATOM      1  C   UNL     1      -2.812  13.386  21.332  0.00  0.00    +0.000 C 
ATOM      2  C   UNL     1      -2.311  14.771  21.831  0.00  0.00    +0.000 C 
ATOM      3  C   UNL     1      -1.022  14.049  22.357  0.00  0.00    +0.000 C 
ATOM      4  C   UNL     1      -1.836  12.723  22.344  0.00  0.00    +0.000 C 
ENDROOT
BRANCH   2   5
ATOM      5  C   UNL     1      -3.178  15.601  22.887  0.00  0.00    +0.000 A 
ATOM      6  C   UNL     1      -2.878  15.649  24.263  0.00  0.00    +0.000 A 
ATOM      7  C   UNL     1      -3.648  16.376  25.173  0.00  0.00    +0.000 A 
ATOM      8  C   UNL     1      -4.752  17.091  24.729  0.00  0.00    +0.000 A 
ATOM      9  C   UNL     1      -5.081  17.074  23.379  0.00  0.00    +0.000 A 
ATOM     10  C   UNL     1      -4.307  16.338  22.476  0.00  0.00    +0.000 A 
ENDBRANCH   2   5
BRANCH   4  11
ATOM     11  C   UNL     1      -1.113  11.351  22.025  0.00  0.00    +0.000 A 
ATOM     12  C   UNL     1      -0.792  10.463  23.074  0.00  0.00    +0.000 A 
ATOM     13  C   UNL     1      -0.135   9.254  22.855  0.00  0.00    +0.000 A 
ATOM     14  C   UNL     1       0.218   8.884  21.564  0.00  0.00    +0.000 A 
ATOM     15  C   UNL     1      -0.099   9.721  20.498  0.00  0.00    +0.000 A 
ATOM     16  C   UNL     1      -0.758  10.931  20.730  0.00  0.00    +0.000 A 
ENDBRANCH   4  11
BRANCH   1  17
ATOM     17  C   UNL     1      -4.309  13.029  21.415  0.00  0.00    +0.000 C 
ATOM     18  O   UNL     1      -5.147  13.293  20.555  0.00  0.00    +0.000 OA
BRANCH  17  19
ATOM     19  O   UNL     1      -4.581  12.262  22.516  0.00  0.00    +0.000 OA
BRANCH  19  21
ATOM     20  C   UNL     1      -6.674  12.635  23.616  0.00  0.00    +0.000 C 
ATOM     21  C   UNL     1      -5.180  12.943  23.632  0.00  0.00    +0.000 C 
ATOM     22  C   UNL     1      -4.540  12.409  24.908  0.00  0.00    +0.000 C 
ENDBRANCH  19  21
ENDBRANCH  17  19
ENDBRANCH   1  17
BRANCH   3  23
ATOM     23  C   UNL     1       0.238  14.162  21.451  0.00  0.00    +0.000 C 
ATOM     24  O   UNL     1       0.240  14.292  20.232  0.00  0.00    +0.000 OA
BRANCH  23  25
ATOM     25  O   UNL     1       1.415  14.144  22.137  0.00  0.00    +0.000 OA
ATOM     26  H   UNL     1       2.207  14.255  21.576  0.00  0.00    +0.000 HD
ENDBRANCH  23  25
ENDBRANCH   3  23
TORSDOF 7
ENDMDL
MODEL 3
REMARK VINA RESULT:      -6.4      9.379     12.225
REMARK  Name = 
REMARK  9 active torsions:
REMARK  status: ('A' for Active; 'I' for Inactive)
REMARK    1  A    between atoms: C_1  and  C_2
REMARK    2  A    between atoms: C_2  and  C_3
REMARK    3  A    between atoms: C_2  and  O_4
REMARK    4  A    between atoms: O_4  and  C_5
REMARK    5  A    between atoms: C_5  and  C_7
REMARK    6  A    between atoms: C_8  and  C_9
REMARK    7  A    between atoms: C_15  and  C_16
REMARK    8  A    between atoms: C_16  and  O_18
REMARK    9  A    between atoms: C_19  and  C_20
REMARK                            x       y       z     vdW  Elec       q    Type
REMARK                         _______ _______ _______ _____ _____    ______ ____
ROOT
ATOM      1  C   UNL     1      10.388  13.436  21.303  0.00  0.00    +0.000 C 
ATOM      2  C   UNL     1      10.639  14.923  20.923  0.00  0.00    +0.000 C 
ATOM      3  C   UNL     1       9.289  15.273  21.640  0.00  0.00    +0.000 C 
ATOM      4  C   UNL     1       8.881  13.782  21.460  0.00  0.00    +0.000 C 
ENDROOT
BRANCH   2   5
ATOM      5  C   UNL     1      10.793  15.339  19.387  0.00  0.00    +0.000 A 
ATOM      6  C   UNL     1      11.976  15.140  18.649  0.00  0.00    +0.000 A 
ATOM      7  C   UNL     1      12.094  15.511  17.308  0.00  0.00    +0.000 A 
ATOM      8  C   UNL     1      11.018  16.096  16.655  0.00  0.00    +0.000 A 
ATOM      9  C   UNL     1       9.831  16.308  17.344  0.00  0.00    +0.000 A 
ATOM     10  C   UNL     1       9.724  15.936  18.689  0.00  0.00    +0.000 A 
ENDBRANCH   2   5
BRANCH   4  11
ATOM     11  C   UNL     1       7.973  13.071  22.546  0.00  0.00    +0.000 A 
ATOM     12  C   UNL     1       6.588  13.340  22.592  0.00  0.00    +0.000 A 
ATOM     13  C   UNL     1       5.746  12.762  23.539  0.00  0.00    +0.000 A 
ATOM     14  C   UNL     1       6.265  11.879  24.478  0.00  0.00    +0.000 A 
ATOM     15  C   UNL     1       7.622  11.571  24.454  0.00  0.00    +0.000 A 
ATOM     16  C   UNL     1       8.457  12.157  23.499  0.00  0.00    +0.000 A 
ENDBRANCH   4  11
BRANCH   1  17
ATOM     17  C   UNL     1      10.785  12.311  20.327  0.00  0.00    +0.000 C 
ATOM     18  O   UNL     1      11.939  11.990  20.052  0.00  0.00    +0.000 OA
BRANCH  17  19
ATOM     19  O   UNL     1       9.689  11.615  19.892  0.00  0.00    +0.000 OA
BRANCH  19  21
ATOM     20  C   UNL     1       8.816  10.014  18.342  0.00  0.00    +0.000 C 
ATOM     21  C   UNL     1       9.671  11.268  18.497  0.00  0.00    +0.000 C 
ATOM     22  C   UNL     1       9.053  12.431  17.730  0.00  0.00    +0.000 C 
ENDBRANCH  19  21
ENDBRANCH  17  19
ENDBRANCH   1  17
BRANCH   3  23
ATOM     23  C   UNL     1       9.413  15.846  23.081  0.00  0.00    +0.000 C 
ATOM     24  O   UNL     1      10.433  15.874  23.760  0.00  0.00    +0.000 OA
BRANCH  23  25
ATOM     25  O   UNL     1       8.256  16.383  23.563  0.00  0.00    +0.000 OA
ATOM     26  H   UNL     1       7.551  15.728  23.728  0.00  0.00    +0.000 HD
ENDBRANCH  23  25
ENDBRANCH   3  23
TORSDOF 7
ENDMDL
MODEL 4
REMARK VINA RESULT:      -6.4      0.117      1.151
REMARK  Name = 
REMARK  9 active torsions:
REMARK  status: ('A' for Active; 'I' for Inactive)
REMARK    1  A    between atoms: C_1  and  C_2
REMARK    2  A    between atoms: C_2  and  C_3
REMARK    3  A    between atoms: C_2  and  O_4
REMARK    4  A    between atoms: O_4  and  C_5
REMARK    5  A    between atoms: C_5  and  C_7
REMARK    6  A    between atoms: C_8  and  C_9
REMARK    7  A    between atoms: C_15  and  C_16
REMARK    8  A    between atoms: C_16  and  O_18
REMARK    9  A    between atoms: C_19  and  C_20
REMARK                            x       y       z     vdW  Elec       q    Type
REMARK                         _______ _______ _______ _____ _____    ______ ____
ROOT
ATOM      1  C   UNL     1       4.589   5.733  17.793  0.00  0.00    +0.000 C 
ATOM      2  C   UNL     1       4.938   5.002  19.120  0.00  0.00    +0.000 C 
ATOM      3  C   UNL     1       5.933   4.111  18.298  0.00  0.00    +0.000 C 
ATOM      4  C   UNL     1       5.123   4.491  17.025  0.00  0.00    +0.000 C 
ENDROOT
BRANCH   2   5
ATOM      5  C   UNL     1       3.790   4.259  19.948  0.00  0.00    +0.000 A 
ATOM      6  C   UNL     1       3.649   2.858  19.985  0.00  0.00    +0.000 A 
ATOM      7  C   UNL     1       2.640   2.225  20.713  0.00  0.00    +0.000 A 
ATOM      8  C   UNL     1       1.730   2.983  21.438  0.00  0.00    +0.000 A 
ATOM      9  C   UNL     1       1.835   4.368  21.432  0.00  0.00    +0.000 A 
ATOM     10  C   UNL     1       2.848   4.993  20.697  0.00  0.00    +0.000 A 
ENDBRANCH   2   5
BRANCH   4  11
ATOM     11  C   UNL     1       5.857   4.629  15.629  0.00  0.00    +0.000 A 
ATOM     12  C   UNL     1       5.501   3.781  14.559  0.00  0.00    +0.000 A 
ATOM     13  C   UNL     1       6.129   3.841  13.316  0.00  0.00    +0.000 A 
ATOM     14  C   UNL     1       7.139   4.769  13.097  0.00  0.00    +0.000 A 
ATOM     15  C   UNL     1       7.506   5.639  14.120  0.00  0.00    +0.000 A 
ATOM     16  C   UNL     1       6.869   5.569  15.362  0.00  0.00    +0.000 A 
ENDBRANCH   4  11
BRANCH   1  17
ATOM     17  C   UNL     1       3.143   6.196  17.522  0.00  0.00    +0.000 C 
ATOM     18  O   UNL     1       2.164   5.456  17.462  0.00  0.00    +0.000 OA
BRANCH  17  19
ATOM     19  O   UNL     1       3.055   7.561  17.479  0.00  0.00    +0.000 OA
BRANCH  19  21
ATOM     20  C   UNL     1       2.021   7.910  19.609  0.00  0.00    +0.000 C 
ATOM     21  C   UNL     1       1.898   8.142  18.106  0.00  0.00    +0.000 C 
ATOM     22  C   UNL     1       1.895   9.635  17.797  0.00  0.00    +0.000 C 
ENDBRANCH  19  21
ENDBRANCH  17  19
ENDBRANCH   1  17
BRANCH   3  23
ATOM     23  C   UNL     1       7.434   4.515  18.379  0.00  0.00    +0.000 C 
ATOM     24  O   UNL     1       8.341   4.056  17.694  0.00  0.00    +0.000 OA
BRANCH  23  25
ATOM     25  O   UNL     1       7.693   5.498  19.287  0.00  0.00    +0.000 OA
ATOM     26  H   UNL     1       7.674   6.400  18.915  0.00  0.00    +0.000 HD
ENDBRANCH  23  25
ENDBRANCH   3  23
TORSDOF 7
ENDMDL
MODEL 5
REMARK VINA RESULT:      -6.4      9.509     12.082
REMARK  Name = 
REMARK  9 active torsions:
REMARK  status: ('A' for Active; 'I' for Inactive)
REMARK    1  A    between atoms: C_1  and  C_2
REMARK    2  A    between atoms: C_2  and  C_3
REMARK    3  A    between atoms: C_2  and  O_4
REMARK    4  A    between atoms: O_4  and  C_5
REMARK    5  A    between atoms: C_5  and  C_7
REMARK    6  A    between atoms: C_8  and  C_9
REMARK    7  A    between atoms: C_15  and  C_16
REMARK    8  A    between atoms: C_16  and  O_18
REMARK    9  A    between atoms: C_19  and  C_20
REMARK                            x       y       z     vdW  Elec       q    Type
REMARK                         _______ _______ _______ _____ _____    ______ ____
ROOT
ATOM      1  C   UNL     1       7.976  13.730  21.351  0.00  0.00    +0.000 C 
ATOM      2  C   UNL     1       8.678  12.344  21.285  0.00  0.00    +0.000 C 
ATOM      3  C   UNL     1       9.161  12.585  22.757  0.00  0.00    +0.000 C 
ATOM      4  C   UNL     1       8.934  14.105  22.517  0.00  0.00    +0.000 C 
ENDROOT
BRANCH   2   5
ATOM      5  C   UNL     1       9.795  12.068  20.174  0.00  0.00    +0.000 A 
ATOM      6  C   UNL     1      11.175  12.044  20.458  0.00  0.00    +0.000 A 
ATOM      7  C   UNL     1      12.138  11.803  19.477  0.00  0.00    +0.000 A 
ATOM      8  C   UNL     1      11.746  11.572  18.165  0.00  0.00    +0.000 A 
ATOM      9  C   UNL     1      10.395  11.584  17.842  0.00  0.00    +0.000 A 
ATOM     10  C   UNL     1       9.438  11.830  18.832  0.00  0.00    +0.000 A 
ENDBRANCH   2   5
BRANCH   4  11
ATOM     11  C   UNL     1       8.467  15.036  23.710  0.00  0.00    +0.000 A 
ATOM     12  C   UNL     1       9.427  15.646  24.544  0.00  0.00    +0.000 A 
ATOM     13  C   UNL     1       9.075  16.456  25.622  0.00  0.00    +0.000 A 
ATOM     14  C   UNL     1       7.734  16.691  25.899  0.00  0.00    +0.000 A 
ATOM     15  C   UNL     1       6.755  16.126  25.087  0.00  0.00    +0.000 A 
ATOM     16  C   UNL     1       7.121  15.316  24.009  0.00  0.00    +0.000 A 
ENDBRANCH   4  11
BRANCH   1  17
ATOM     17  C   UNL     1       7.942  14.641  20.108  0.00  0.00    +0.000 C 
ATOM     18  O   UNL     1       7.065  14.628  19.247  0.00  0.00    +0.000 OA
BRANCH  17  19
ATOM     19  O   UNL     1       8.950  15.567  20.137  0.00  0.00    +0.000 OA
BRANCH  19  21
ATOM     20  C   UNL     1       9.625  16.858  18.239  0.00  0.00    +0.000 C 
ATOM     21  C   UNL     1       9.848  15.563  19.014  0.00  0.00    +0.000 C 
ATOM     22  C   UNL     1      11.273  15.503  19.551  0.00  0.00    +0.000 C 
ENDBRANCH  19  21
ENDBRANCH  17  19
ENDBRANCH   1  17
BRANCH   3  23
ATOM     23  C   UNL     1       8.337  11.871  23.868  0.00  0.00    +0.000 C 
ATOM     24  O   UNL     1       7.236  11.351  23.726  0.00  0.00    +0.000 OA
BRANCH  23  25
ATOM     25  O   UNL     1       8.965  11.822  25.076  0.00  0.00    +0.000 OA
ATOM     26  H   UNL     1       9.885  12.150  25.061  0.00  0.00    +0.000 HD
ENDBRANCH  23  25
ENDBRANCH   3  23
TORSDOF 7
ENDMDL
MODEL 6
REMARK VINA RESULT:      -6.3      5.567     10.306
REMARK  Name = 
REMARK  9 active torsions:
REMARK  status: ('A' for Active; 'I' for Inactive)
REMARK    1  A    between atoms: C_1  and  C_2
REMARK    2  A    between atoms: C_2  and  C_3
REMARK    3  A    between atoms: C_2  and  O_4
REMARK    4  A    between atoms: O_4  and  C_5
REMARK    5  A    between atoms: C_5  and  C_7
REMARK    6  A    between atoms: C_8  and  C_9
REMARK    7  A    between atoms: C_15  and  C_16
REMARK    8  A    between atoms: C_16  and  O_18
REMARK    9  A    between atoms: C_19  and  C_20
REMARK                            x       y       z     vdW  Elec       q    Type
REMARK                         _______ _______ _______ _____ _____    ______ ____
ROOT
ATOM      1  C   UNL     1       0.212  12.333  19.300  0.00  0.00    +0.000 C 
ATOM      2  C   UNL     1      -0.036  11.003  18.533  0.00  0.00    +0.000 C 
ATOM      3  C   UNL     1      -1.513  11.045  19.057  0.00  0.00    +0.000 C 
ATOM      4  C   UNL     1      -1.019  11.993  20.187  0.00  0.00    +0.000 C 
ENDROOT
BRANCH   2   5
ATOM      5  C   UNL     1       0.837   9.709  18.878  0.00  0.00    +0.000 A 
ATOM      6  C   UNL     1       0.851   9.106  20.151  0.00  0.00    +0.000 A 
ATOM      7  C   UNL     1       1.620   7.976  20.437  0.00  0.00    +0.000 A 
ATOM      8  C   UNL     1       2.406   7.405  19.444  0.00  0.00    +0.000 A 
ATOM      9  C   UNL     1       2.418   7.966  18.174  0.00  0.00    +0.000 A 
ATOM     10  C   UNL     1       1.647   9.100  17.898  0.00  0.00    +0.000 A 
ENDBRANCH   2   5
BRANCH   4  11
ATOM     11  C   UNL     1      -1.975  13.124  20.750  0.00  0.00    +0.000 A 
ATOM     12  C   UNL     1      -3.049  12.779  21.598  0.00  0.00    +0.000 A 
ATOM     13  C   UNL     1      -3.936  13.727  22.103  0.00  0.00    +0.000 A 
ATOM     14  C   UNL     1      -3.771  15.069  21.780  0.00  0.00    +0.000 A 
ATOM     15  C   UNL     1      -2.712  15.453  20.964  0.00  0.00    +0.000 A 
ATOM     16  C   UNL     1      -1.829  14.493  20.462  0.00  0.00    +0.000 A 
ENDBRANCH   4  11
BRANCH   1  17
ATOM     17  C   UNL     1       1.567  12.588  19.991  0.00  0.00    +0.000 C 
ATOM     18  O   UNL     1       1.810  12.358  21.173  0.00  0.00    +0.000 OA
BRANCH  17  19
ATOM     19  O   UNL     1       2.520  12.987  19.093  0.00  0.00    +0.000 OA
BRANCH  19  21
ATOM     20  C   UNL     1       4.229  14.464  18.302  0.00  0.00    +0.000 C 
ATOM     21  C   UNL     1       3.130  14.265  19.341  0.00  0.00    +0.000 C 
ATOM     22  C   UNL     1       2.056  15.336  19.191  0.00  0.00    +0.000 C 
ENDBRANCH  19  21
ENDBRANCH  17  19
ENDBRANCH   1  17
BRANCH   3  23
ATOM     23  C   UNL     1      -2.577  11.571  18.050  0.00  0.00    +0.000 C 
ATOM     24  O   UNL     1      -3.787  11.616  18.240  0.00  0.00    +0.000 OA
BRANCH  23  25
ATOM     25  O   UNL     1      -2.050  12.041  16.885  0.00  0.00    +0.000 OA
ATOM     26  H   UNL     1      -1.838  11.345  16.233  0.00  0.00    +0.000 HD
ENDBRANCH  23  25
ENDBRANCH   3  23
TORSDOF 7
ENDMDL
MODEL 7
REMARK VINA RESULT:      -6.3      0.798      1.413
REMARK  Name = 
REMARK  9 active torsions:
REMARK  status: ('A' for Active; 'I' for Inactive)
REMARK    1  A    between atoms: C_1  and  C_2
REMARK    2  A    between atoms: C_2  and  C_3
REMARK    3  A    between atoms: C_2  and  O_4
REMARK    4  A    between atoms: O_4  and  C_5
REMARK    5  A    between atoms: C_5  and  C_7
REMARK    6  A    between atoms: C_8  and  C_9
REMARK    7  A    between atoms: C_15  and  C_16
REMARK    8  A    between atoms: C_16  and  O_18
REMARK    9  A    between atoms: C_19  and  C_20
REMARK                            x       y       z     vdW  Elec       q    Type
REMARK                         _______ _______ _______ _____ _____    ______ ____
ROOT
ATOM      1  C   UNL     1       3.959   5.288  17.815  0.00  0.00    +0.000 C 
ATOM      2  C   UNL     1       4.476   4.910  19.232  0.00  0.00    +0.000 C 
ATOM      3  C   UNL     1       5.736   4.283  18.540  0.00  0.00    +0.000 C 
ATOM      4  C   UNL     1       4.896   4.191  17.234  0.00  0.00    +0.000 C 
ENDROOT
BRANCH   2   5
ATOM      5  C   UNL     1       3.600   3.961  20.174  0.00  0.00    +0.000 A 
ATOM      6  C   UNL     1       3.963   2.636  20.485  0.00  0.00    +0.000 A 
ATOM      7  C   UNL     1       3.185   1.819  21.309  0.00  0.00    +0.000 A 
ATOM      8  C   UNL     1       2.008   2.310  21.857  0.00  0.00    +0.000 A 
ATOM      9  C   UNL     1       1.614   3.612  21.578  0.00  0.00    +0.000 A 
ATOM     10  C   UNL     1       2.398   4.421  20.748  0.00  0.00    +0.000 A 
ENDBRANCH   2   5
BRANCH   4  11
ATOM     11  C   UNL     1       5.598   4.360  15.825  0.00  0.00    +0.000 A 
ATOM     12  C   UNL     1       5.143   3.611  14.718  0.00  0.00    +0.000 A 
ATOM     13  C   UNL     1       5.737   3.701  13.461  0.00  0.00    +0.000 A 
ATOM     14  C   UNL     1       6.813   4.558  13.264  0.00  0.00    +0.000 A 
ATOM     15  C   UNL     1       7.278   5.330  14.324  0.00  0.00    +0.000 A 
ATOM     16  C   UNL     1       6.674   5.231  15.581  0.00  0.00    +0.000 A 
ENDBRANCH   4  11
BRANCH   1  17
ATOM     17  C   UNL     1       2.453   5.211  17.495  0.00  0.00    +0.000 C 
ATOM     18  O   UNL     1       1.859   4.198  17.130  0.00  0.00    +0.000 OA
BRANCH  17  19
ATOM     19  O   UNL     1       1.817   6.388  17.787  0.00  0.00    +0.000 OA
BRANCH  19  21
ATOM     20  C   UNL     1       2.545   8.659  17.584  0.00  0.00    +0.000 C 
ATOM     21  C   UNL     1       2.614   7.395  18.435  0.00  0.00    +0.000 C 
ATOM     22  C   UNL     1       2.019   7.649  19.815  0.00  0.00    +0.000 C 
ENDBRANCH  19  21
ENDBRANCH  17  19
ENDBRANCH   1  17
BRANCH   3  23
ATOM     23  C   UNL     1       7.021   5.162  18.543  0.00  0.00    +0.000 C 
ATOM     24  O   UNL     1       7.057   6.384  18.643  0.00  0.00    +0.000 OA
BRANCH  23  25
ATOM     25  O   UNL     1       8.178   4.448  18.460  0.00  0.00    +0.000 OA
ATOM     26  H   UNL     1       8.050   3.502  18.255  0.00  0.00    +0.000 HD
ENDBRANCH  23  25
ENDBRANCH   3  23
TORSDOF 7
ENDMDL
MODEL 8
REMARK VINA RESULT:      -6.3      9.394     12.215
REMARK  Name = 
REMARK  9 active torsions:
REMARK  status: ('A' for Active; 'I' for Inactive)
REMARK    1  A    between atoms: C_1  and  C_2
REMARK    2  A    between atoms: C_2  and  C_3
REMARK    3  A    between atoms: C_2  and  O_4
REMARK    4  A    between atoms: O_4  and  C_5
REMARK    5  A    between atoms: C_5  and  C_7
REMARK    6  A    between atoms: C_8  and  C_9
REMARK    7  A    between atoms: C_15  and  C_16
REMARK    8  A    between atoms: C_16  and  O_18
REMARK    9  A    between atoms: C_19  and  C_20
REMARK                            x       y       z     vdW  Elec       q    Type
REMARK                         _______ _______ _______ _____ _____    ______ ____
ROOT
ATOM      1  C   UNL     1      10.333  13.461  21.327  0.00  0.00    +0.000 C 
ATOM      2  C   UNL     1      10.597  14.946  20.948  0.00  0.00    +0.000 C 
ATOM      3  C   UNL     1       9.252  15.308  21.667  0.00  0.00    +0.000 C 
ATOM      4  C   UNL     1       8.829  13.821  21.486  0.00  0.00    +0.000 C 
ENDROOT
BRANCH   2   5
ATOM      5  C   UNL     1      10.752  15.361  19.412  0.00  0.00    +0.000 A 
ATOM      6  C   UNL     1       9.700  15.911  18.652  0.00  0.00    +0.000 A 
ATOM      7  C   UNL     1       9.851  16.267  17.311  0.00  0.00    +0.000 A 
ATOM      8  C   UNL     1      11.075  16.087  16.680  0.00  0.00    +0.000 A 
ATOM      9  C   UNL     1      12.140  15.551  17.394  0.00  0.00    +0.000 A 
ATOM     10  C   UNL     1      11.977  15.193  18.736  0.00  0.00    +0.000 A 
ENDBRANCH   2   5
BRANCH   4  11
ATOM     11  C   UNL     1       7.916  13.118  22.574  0.00  0.00    +0.000 A 
ATOM     12  C   UNL     1       8.487  12.210  23.491  0.00  0.00    +0.000 A 
ATOM     13  C   UNL     1       7.731  11.545  24.453  0.00  0.00    +0.000 A 
ATOM     14  C   UNL     1       6.363  11.774  24.536  0.00  0.00    +0.000 A 
ATOM     15  C   UNL     1       5.764  12.678  23.664  0.00  0.00    +0.000 A 
ATOM     16  C   UNL     1       6.534  13.339  22.703  0.00  0.00    +0.000 A 
ENDBRANCH   4  11
BRANCH   1  17
ATOM     17  C   UNL     1      10.717  12.332  20.350  0.00  0.00    +0.000 C 
ATOM     18  O   UNL     1      11.867  11.981  20.095  0.00  0.00    +0.000 OA
BRANCH  17  19
ATOM     19  O   UNL     1       9.611  11.672  19.887  0.00  0.00    +0.000 OA
BRANCH  19  21
ATOM     20  C   UNL     1       8.830  10.022  18.339  0.00  0.00    +0.000 C 
ATOM     21  C   UNL     1       9.620  11.318  18.493  0.00  0.00    +0.000 C 
ATOM     22  C   UNL     1       8.950  12.445  17.716  0.00  0.00    +0.000 C 
ENDBRANCH  19  21
ENDBRANCH  17  19
ENDBRANCH   1  17
BRANCH   3  23
ATOM     23  C   UNL     1       9.383  15.879  23.108  0.00  0.00    +0.000 C 
ATOM     24  O   UNL     1      10.402  15.884  23.791  0.00  0.00    +0.000 OA
BRANCH  23  25
ATOM     25  O   UNL     1       8.238  16.441  23.586  0.00  0.00    +0.000 OA
ATOM     26  H   UNL     1       7.635  15.809  24.023  0.00  0.00    +0.000 HD
ENDBRANCH  23  25
ENDBRANCH   3  23
TORSDOF 7
ENDMDL
MODEL 9
REMARK VINA RESULT:      -6.3      9.499     12.047
REMARK  Name = 
REMARK  9 active torsions:
REMARK  status: ('A' for Active; 'I' for Inactive)
REMARK    1  A    between atoms: C_1  and  C_2
REMARK    2  A    between atoms: C_2  and  C_3
REMARK    3  A    between atoms: C_2  and  O_4
REMARK    4  A    between atoms: O_4  and  C_5
REMARK    5  A    between atoms: C_5  and  C_7
REMARK    6  A    between atoms: C_8  and  C_9
REMARK    7  A    between atoms: C_15  and  C_16
REMARK    8  A    between atoms: C_16  and  O_18
REMARK    9  A    between atoms: C_19  and  C_20
REMARK                            x       y       z     vdW  Elec       q    Type
REMARK                         _______ _______ _______ _____ _____    ______ ____
ROOT
ATOM      1  C   UNL     1       7.997  13.737  21.314  0.00  0.00    +0.000 C 
ATOM      2  C   UNL     1       8.691  12.347  21.239  0.00  0.00    +0.000 C 
ATOM      3  C   UNL     1       9.174  12.576  22.714  0.00  0.00    +0.000 C 
ATOM      4  C   UNL     1       8.957  14.099  22.483  0.00  0.00    +0.000 C 
ENDROOT
BRANCH   2   5
ATOM      5  C   UNL     1       9.807  12.071  20.129  0.00  0.00    +0.000 A 
ATOM      6  C   UNL     1       9.505  11.854  18.770  0.00  0.00    +0.000 A 
ATOM      7  C   UNL     1      10.491  11.612  17.812  0.00  0.00    +0.000 A 
ATOM      8  C   UNL     1      11.828  11.583  18.187  0.00  0.00    +0.000 A 
ATOM      9  C   UNL     1      12.170  11.796  19.516  0.00  0.00    +0.000 A 
ATOM     10  C   UNL     1      11.174  12.033  20.469  0.00  0.00    +0.000 A 
ENDBRANCH   2   5
BRANCH   4  11
ATOM     11  C   UNL     1       8.495  15.026  23.681  0.00  0.00    +0.000 A 
ATOM     12  C   UNL     1       7.130  15.352  23.832  0.00  0.00    +0.000 A 
ATOM     13  C   UNL     1       6.669  16.182  24.852  0.00  0.00    +0.000 A 
ATOM     14  C   UNL     1       7.567  16.712  25.771  0.00  0.00    +0.000 A 
ATOM     15  C   UNL     1       8.918  16.397  25.670  0.00  0.00    +0.000 A 
ATOM     16  C   UNL     1       9.369  15.564  24.642  0.00  0.00    +0.000 A 
ENDBRANCH   4  11
BRANCH   1  17
ATOM     17  C   UNL     1       7.970  14.656  20.076  0.00  0.00    +0.000 C 
ATOM     18  O   UNL     1       7.103  14.641  19.205  0.00  0.00    +0.000 OA
BRANCH  17  19
ATOM     19  O   UNL     1       8.969  15.590  20.123  0.00  0.00    +0.000 OA
BRANCH  19  21
ATOM     20  C   UNL     1       9.701  16.757  18.166  0.00  0.00    +0.000 C 
ATOM     21  C   UNL     1       9.935  15.542  19.058  0.00  0.00    +0.000 C 
ATOM     22  C   UNL     1      11.325  15.598  19.680  0.00  0.00    +0.000 C 
ENDBRANCH  19  21
ENDBRANCH  17  19
ENDBRANCH   1  17
BRANCH   3  23
ATOM     23  C   UNL     1       8.344  11.860  23.819  0.00  0.00    +0.000 C 
ATOM     24  O   UNL     1       7.234  11.360  23.676  0.00  0.00    +0.000 OA
BRANCH  23  25
ATOM     25  O   UNL     1       8.978  11.785  25.023  0.00  0.00    +0.000 OA
ATOM     26  H   UNL     1       9.866  11.382  24.983  0.00  0.00    +0.000 HD
ENDBRANCH  23  25
ENDBRANCH   3  23
TORSDOF 7
ENDMDL
