MODEL 1
REMARK VINA RESULT:      -8.3      0.000      0.000
REMARK  Name = 
REMARK  4 active torsions:
REMARK  status: ('A' for Active; 'I' for Inactive)
REMARK    1  A    between atoms: N_12  and  C_13
REMARK    2  A    between atoms: C_13  and  C_14
REMARK    3  A    between atoms: N_22  and  C_23
REMARK    4  A    between atoms: C_23  and  C_24
REMARK                            x       y       z     vdW  Elec       q    Type
REMARK                         _______ _______ _______ _____ _____    ______ ____
ROOT
ATOM      1  O   UNL     1       5.272   7.541  15.754  0.00  0.00    +0.000 OA
ATOM      2  C   UNL     1       5.159   6.674  16.617  0.00  0.00    +0.000 A 
ATOM      3  C   UNL     1       4.166   6.709  17.627  0.00  0.00    +0.000 A 
ATOM      4  C   UNL     1       4.031   5.738  18.573  0.00  0.00    +0.000 A 
ATOM      5  N   UNL     1       3.010   5.984  19.430  0.00  0.00    +0.000 NA
ATOM      6  C   UNL     1       2.534   7.160  19.052  0.00  0.00    +0.000 A 
ATOM      7  C   UNL     1       1.510   7.973  19.608  0.00  0.00    +0.000 A 
ATOM      8  C   UNL     1       1.250   9.185  19.064  0.00  0.00    +0.000 A 
ATOM      9  C   UNL     1       1.991   9.675  17.920  0.00  0.00    +0.000 A 
ATOM     10  C   UNL     1       2.955   8.912  17.381  0.00  0.00    +0.000 A 
ATOM     11  N   UNL     1       3.224   7.657  17.943  0.00  0.00    +0.000 N 
ATOM     12  N   UNL     1       4.932   4.704  18.681  0.00  0.00    +0.000 N 
ATOM     13  C   UNL     1       6.068   4.725  17.853  0.00  0.00    +0.000 A 
ATOM     14  O   UNL     1       7.076   4.065  18.129  0.00  0.00    +0.000 OA
ATOM     15  N   UNL     1       6.017   5.578  16.729  0.00  0.00    +0.000 N 
ENDROOT
BRANCH  12  16
ATOM     16  C   UNL     1       4.828   3.727  19.767  0.00  0.00    +0.000 C 
BRANCH  16  17
ATOM     17  C   UNL     1       3.447   3.106  19.885  0.00  0.00    +0.000 A 
ATOM     18  C   UNL     1       2.837   2.498  18.777  0.00  0.00    +0.000 A 
ATOM     19  C   UNL     1       1.529   2.012  18.858  0.00  0.00    +0.000 A 
ATOM     20  C   UNL     1       0.818   2.116  20.051  0.00  0.00    +0.000 A 
ATOM     21  C   UNL     1       1.429   2.661  21.176  0.00  0.00    +0.000 A 
ATOM     22  C   UNL     1       2.736   3.159  21.094  0.00  0.00    +0.000 A 
ENDBRANCH  16  17
ENDBRANCH  12  16
BRANCH  15  23
ATOM     23  C   UNL     1       7.103   5.462  15.749  0.00  0.00    +0.000 C 
BRANCH  23  24
ATOM     24  C   UNL     1       6.660   4.806  14.451  0.00  0.00    +0.000 A 
ATOM     25  C   UNL     1       5.443   4.113  14.366  0.00  0.00    +0.000 A 
ATOM     26  C   UNL     1       5.088   3.443  13.190  0.00  0.00    +0.000 A 
ATOM     27  C   UNL     1       5.938   3.463  12.086  0.00  0.00    +0.000 A 
ATOM     28  C   UNL     1       7.129   4.184  12.144  0.00  0.00    +0.000 A 
ATOM     29  C   UNL     1       7.483   4.855  13.315  0.00  0.00    +0.000 A 
ENDBRANCH  23  24
ENDBRANCH  15  23
TORSDOF 4
ENDMDL
MODEL 2
REMARK VINA RESULT:      -7.8      2.475      7.187
REMARK  Name = 
REMARK  4 active torsions:
REMARK  status: ('A' for Active; 'I' for Inactive)
REMARK    1  A    between atoms: N_12  and  C_13
REMARK    2  A    between atoms: C_13  and  C_14
REMARK    3  A    between atoms: N_22  and  C_23
REMARK    4  A    between atoms: C_23  and  C_24
REMARK                            x       y       z     vdW  Elec       q    Type
REMARK                         _______ _______ _______ _____ _____    ______ ____
ROOT
ATOM      1  O   UNL     1       3.327   3.921  16.316  0.00  0.00    +0.000 OA
ATOM      2  C   UNL     1       4.354   4.437  16.753  0.00  0.00    +0.000 A 
ATOM      3  C   UNL     1       5.495   4.692  15.953  0.00  0.00    +0.000 A 
ATOM      4  C   UNL     1       6.626   5.279  16.434  0.00  0.00    +0.000 A 
ATOM      5  N   UNL     1       7.582   5.424  15.484  0.00  0.00    +0.000 NA
ATOM      6  C   UNL     1       7.065   4.864  14.402  0.00  0.00    +0.000 A 
ATOM      7  C   UNL     1       7.617   4.644  13.112  0.00  0.00    +0.000 A 
ATOM      8  C   UNL     1       6.894   3.980  12.180  0.00  0.00    +0.000 A 
ATOM      9  C   UNL     1       5.562   3.488  12.466  0.00  0.00    +0.000 A 
ATOM     10  C   UNL     1       5.027   3.697  13.679  0.00  0.00    +0.000 A 
ATOM     11  N   UNL     1       5.774   4.385  14.644  0.00  0.00    +0.000 N 
ATOM     12  N   UNL     1       6.779   5.563  17.771  0.00  0.00    +0.000 N 
ATOM     13  C   UNL     1       5.777   5.136  18.659  0.00  0.00    +0.000 A 
ATOM     14  O   UNL     1       5.999   5.022  19.870  0.00  0.00    +0.000 OA
ATOM     15  N   UNL     1       4.531   4.793  18.092  0.00  0.00    +0.000 N 
ENDROOT
BRANCH  12  16
ATOM     16  C   UNL     1       8.042   6.101  18.285  0.00  0.00    +0.000 C 
BRANCH  16  17
ATOM     17  C   UNL     1       8.091   7.619  18.285  0.00  0.00    +0.000 A 
ATOM     18  C   UNL     1       7.308   8.362  17.389  0.00  0.00    +0.000 A 
ATOM     19  C   UNL     1       7.424   9.753  17.323  0.00  0.00    +0.000 A 
ATOM     20  C   UNL     1       8.315  10.421  18.159  0.00  0.00    +0.000 A 
ATOM     21  C   UNL     1       9.055   9.706  19.095  0.00  0.00    +0.000 A 
ATOM     22  C   UNL     1       8.949   8.310  19.156  0.00  0.00    +0.000 A 
ENDBRANCH  16  17
ENDBRANCH  12  16
BRANCH  15  23
ATOM     23  C   UNL     1       3.419   4.542  19.014  0.00  0.00    +0.000 C 
BRANCH  23  24
ATOM     24  C   UNL     1       2.671   5.809  19.398  0.00  0.00    +0.000 A 
ATOM     25  C   UNL     1       2.717   6.953  18.586  0.00  0.00    +0.000 A 
ATOM     26  C   UNL     1       2.092   8.137  18.992  0.00  0.00    +0.000 A 
ATOM     27  C   UNL     1       1.412   8.192  20.207  0.00  0.00    +0.000 A 
ATOM     28  C   UNL     1       1.323   7.051  21.001  0.00  0.00    +0.000 A 
ATOM     29  C   UNL     1       1.942   5.867  20.595  0.00  0.00    +0.000 A 
ENDBRANCH  23  24
ENDBRANCH  15  23
TORSDOF 4
ENDMDL
MODEL 3
REMARK VINA RESULT:      -7.3      5.937     11.588
REMARK  Name = 
REMARK  4 active torsions:
REMARK  status: ('A' for Active; 'I' for Inactive)
REMARK    1  A    between atoms: N_12  and  C_13
REMARK    2  A    between atoms: C_13  and  C_14
REMARK    3  A    between atoms: N_22  and  C_23
REMARK    4  A    between atoms: C_23  and  C_24
REMARK                            x       y       z     vdW  Elec       q    Type
REMARK                         _______ _______ _______ _____ _____    ______ ____
ROOT
ATOM      1  O   UNL     1      -0.635  10.124  23.016  0.00  0.00    +0.000 OA
ATOM      2  C   UNL     1      -0.585  10.858  22.031  0.00  0.00    +0.000 A 
ATOM      3  C   UNL     1       0.016  10.473  20.807  0.00  0.00    +0.000 A 
ATOM      4  C   UNL     1       0.056  11.280  19.710  0.00  0.00    +0.000 A 
ATOM      5  N   UNL     1       0.678  10.698  18.656  0.00  0.00    +0.000 NA
ATOM      6  C   UNL     1       1.090   9.527  19.118  0.00  0.00    +0.000 A 
ATOM      7  C   UNL     1       1.861   8.503  18.506  0.00  0.00    +0.000 A 
ATOM      8  C   UNL     1       2.209   7.410  19.224  0.00  0.00    +0.000 A 
ATOM      9  C   UNL     1       1.810   7.255  20.608  0.00  0.00    +0.000 A 
ATOM     10  C   UNL     1       1.074   8.212  21.194  0.00  0.00    +0.000 A 
ATOM     11  N   UNL     1       0.712   9.344  20.451  0.00  0.00    +0.000 N 
ATOM     12  N   UNL     1      -0.391  12.581  19.754  0.00  0.00    +0.000 N 
ATOM     13  C   UNL     1      -0.798  13.101  20.995  0.00  0.00    +0.000 A 
ATOM     14  O   UNL     1      -0.858  14.320  21.191  0.00  0.00    +0.000 OA
ATOM     15  N   UNL     1      -1.077  12.165  22.014  0.00  0.00    +0.000 N 
ENDROOT
BRANCH  12  16
ATOM     16  C   UNL     1      -0.247  13.464  18.594  0.00  0.00    +0.000 C 
BRANCH  16  17
ATOM     17  C   UNL     1       1.074  14.213  18.570  0.00  0.00    +0.000 A 
ATOM     18  C   UNL     1       2.262  13.560  18.206  0.00  0.00    +0.000 A 
ATOM     19  C   UNL     1       3.491  14.222  18.277  0.00  0.00    +0.000 A 
ATOM     20  C   UNL     1       3.548  15.547  18.700  0.00  0.00    +0.000 A 
ATOM     21  C   UNL     1       2.374  16.227  19.007  0.00  0.00    +0.000 A 
ATOM     22  C   UNL     1       1.142  15.563  18.948  0.00  0.00    +0.000 A 
ENDBRANCH  16  17
ENDBRANCH  12  16
BRANCH  15  23
ATOM     23  C   UNL     1      -1.693  12.674  23.243  0.00  0.00    +0.000 C 
BRANCH  23  24
ATOM     24  C   UNL     1      -3.213  12.651  23.196  0.00  0.00    +0.000 A 
ATOM     25  C   UNL     1      -3.903  12.750  21.978  0.00  0.00    +0.000 A 
ATOM     26  C   UNL     1      -5.300  12.812  21.957  0.00  0.00    +0.000 A 
ATOM     27  C   UNL     1      -6.024  12.771  23.147  0.00  0.00    +0.000 A 
ATOM     28  C   UNL     1      -5.352  12.630  24.359  0.00  0.00    +0.000 A 
ATOM     29  C   UNL     1      -3.958  12.564  24.382  0.00  0.00    +0.000 A 
ENDBRANCH  23  24
ENDBRANCH  15  23
TORSDOF 4
ENDMDL
MODEL 4
REMARK VINA RESULT:      -7.3      5.404      9.672
REMARK  Name = 
REMARK  4 active torsions:
REMARK  status: ('A' for Active; 'I' for Inactive)
REMARK    1  A    between atoms: N_12  and  C_13
REMARK    2  A    between atoms: C_13  and  C_14
REMARK    3  A    between atoms: N_22  and  C_23
REMARK    4  A    between atoms: C_23  and  C_24
REMARK                            x       y       z     vdW  Elec       q    Type
REMARK                         _______ _______ _______ _____ _____    ______ ____
ROOT
ATOM      1  O   UNL     1      -1.152  10.319  19.976  0.00  0.00    +0.000 OA
ATOM      2  C   UNL     1      -0.201  11.095  20.030  0.00  0.00    +0.000 A 
ATOM      3  C   UNL     1      -0.118  12.154  20.968  0.00  0.00    +0.000 A 
ATOM      4  C   UNL     1       0.944  13.004  21.040  0.00  0.00    +0.000 A 
ATOM      5  N   UNL     1       0.803  13.934  22.016  0.00  0.00    +0.000 NA
ATOM      6  C   UNL     1      -0.395  13.701  22.527  0.00  0.00    +0.000 A 
ATOM      7  C   UNL     1      -1.131  14.389  23.529  0.00  0.00    +0.000 A 
ATOM      8  C   UNL     1      -2.385  13.983  23.834  0.00  0.00    +0.000 A 
ATOM      9  C   UNL     1      -3.000  12.857  23.162  0.00  0.00    +0.000 A 
ATOM     10  C   UNL     1      -2.312  12.194  22.219  0.00  0.00    +0.000 A 
ATOM     11  N   UNL     1      -1.013  12.613  21.904  0.00  0.00    +0.000 N 
ATOM     12  N   UNL     1       1.967  12.960  20.121  0.00  0.00    +0.000 N 
ATOM     13  C   UNL     1       1.843  12.080  19.032  0.00  0.00    +0.000 A 
ATOM     14  O   UNL     1       2.510  12.236  18.002  0.00  0.00    +0.000 OA
ATOM     15  N   UNL     1       0.885  11.052  19.154  0.00  0.00    +0.000 N 
ENDROOT
BRANCH  12  16
ATOM     16  C   UNL     1       3.050  13.947  20.154  0.00  0.00    +0.000 C 
BRANCH  16  17
ATOM     17  C   UNL     1       2.813  15.128  19.228  0.00  0.00    +0.000 A 
ATOM     18  C   UNL     1       1.736  16.002  19.441  0.00  0.00    +0.000 A 
ATOM     19  C   UNL     1       1.461  17.030  18.536  0.00  0.00    +0.000 A 
ATOM     20  C   UNL     1       2.266  17.208  17.413  0.00  0.00    +0.000 A 
ATOM     21  C   UNL     1       3.374  16.389  17.220  0.00  0.00    +0.000 A 
ATOM     22  C   UNL     1       3.645  15.350  18.119  0.00  0.00    +0.000 A 
ENDBRANCH  16  17
ENDBRANCH  12  16
BRANCH  15  23
ATOM     23  C   UNL     1       0.882  10.010  18.121  0.00  0.00    +0.000 C 
BRANCH  23  24
ATOM     24  C   UNL     1       1.703   8.790  18.510  0.00  0.00    +0.000 A 
ATOM     25  C   UNL     1       2.607   8.206  17.609  0.00  0.00    +0.000 A 
ATOM     26  C   UNL     1       3.293   7.036  17.950  0.00  0.00    +0.000 A 
ATOM     27  C   UNL     1       3.090   6.439  19.193  0.00  0.00    +0.000 A 
ATOM     28  C   UNL     1       2.228   7.032  20.112  0.00  0.00    +0.000 A 
ATOM     29  C   UNL     1       1.545   8.203  19.774  0.00  0.00    +0.000 A 
ENDBRANCH  23  24
ENDBRANCH  15  23
TORSDOF 4
ENDMDL
MODEL 5
REMARK VINA RESULT:      -7.3      2.318      7.203
REMARK  Name = 
REMARK  4 active torsions:
REMARK  status: ('A' for Active; 'I' for Inactive)
REMARK    1  A    between atoms: N_12  and  C_13
REMARK    2  A    between atoms: C_13  and  C_14
REMARK    3  A    between atoms: N_22  and  C_23
REMARK    4  A    between atoms: C_23  and  C_24
REMARK                            x       y       z     vdW  Elec       q    Type
REMARK                         _______ _______ _______ _____ _____    ______ ____
ROOT
ATOM      1  O   UNL     1       1.055   7.423  21.135  0.00  0.00    +0.000 OA
ATOM      2  C   UNL     1       1.638   7.377  20.054  0.00  0.00    +0.000 A 
ATOM      3  C   UNL     1       2.234   6.196  19.545  0.00  0.00    +0.000 A 
ATOM      4  C   UNL     1       2.866   6.141  18.339  0.00  0.00    +0.000 A 
ATOM      5  N   UNL     1       3.354   4.907  18.062  0.00  0.00    +0.000 NA
ATOM      6  C   UNL     1       3.077   4.190  19.140  0.00  0.00    +0.000 A 
ATOM      7  C   UNL     1       3.400   2.848  19.474  0.00  0.00    +0.000 A 
ATOM      8  C   UNL     1       3.051   2.359  20.687  0.00  0.00    +0.000 A 
ATOM      9  C   UNL     1       2.350   3.174  21.657  0.00  0.00    +0.000 A 
ATOM     10  C   UNL     1       2.031   4.441  21.350  0.00  0.00    +0.000 A 
ATOM     11  N   UNL     1       2.391   4.948  20.094  0.00  0.00    +0.000 N 
ATOM     12  N   UNL     1       3.067   7.269  17.577  0.00  0.00    +0.000 N 
ATOM     13  C   UNL     1       2.698   8.511  18.120  0.00  0.00    +0.000 A 
ATOM     14  O   UNL     1       3.165   9.568  17.680  0.00  0.00    +0.000 OA
ATOM     15  N   UNL     1       1.817   8.484  19.222  0.00  0.00    +0.000 N 
ENDROOT
BRANCH  12  16
ATOM     16  C   UNL     1       3.837   7.206  16.331  0.00  0.00    +0.000 C 
BRANCH  16  17
ATOM     17  C   UNL     1       5.152   6.462  16.476  0.00  0.00    +0.000 A 
ATOM     18  C   UNL     1       5.408   5.304  15.725  0.00  0.00    +0.000 A 
ATOM     19  C   UNL     1       6.576   4.565  15.927  0.00  0.00    +0.000 A 
ATOM     20  C   UNL     1       7.511   4.979  16.872  0.00  0.00    +0.000 A 
ATOM     21  C   UNL     1       7.302   6.158  17.582  0.00  0.00    +0.000 A 
ATOM     22  C   UNL     1       6.126   6.895  17.390  0.00  0.00    +0.000 A 
ENDBRANCH  16  17
ENDBRANCH  12  16
BRANCH  15  23
ATOM     23  C   UNL     1       1.263   9.766  19.672  0.00  0.00    +0.000 C 
BRANCH  23  24
ATOM     24  C   UNL     1      -0.071  10.096  19.020  0.00  0.00    +0.000 A 
ATOM     25  C   UNL     1      -0.428   9.545  17.779  0.00  0.00    +0.000 A 
ATOM     26  C   UNL     1      -1.621   9.922  17.153  0.00  0.00    +0.000 A 
ATOM     27  C   UNL     1      -2.471  10.846  17.757  0.00  0.00    +0.000 A 
ATOM     28  C   UNL     1      -2.148  11.366  19.008  0.00  0.00    +0.000 A 
ATOM     29  C   UNL     1      -0.960  10.988  19.637  0.00  0.00    +0.000 A 
ENDBRANCH  23  24
ENDBRANCH  15  23
TORSDOF 4
ENDMDL
MODEL 6
REMARK VINA RESULT:      -7.3      5.681     11.360
REMARK  Name = 
REMARK  4 active torsions:
REMARK  status: ('A' for Active; 'I' for Inactive)
REMARK    1  A    between atoms: N_12  and  C_13
REMARK    2  A    between atoms: C_13  and  C_14
REMARK    3  A    between atoms: N_22  and  C_23
REMARK    4  A    between atoms: C_23  and  C_24
REMARK                            x       y       z     vdW  Elec       q    Type
REMARK                         _______ _______ _______ _____ _____    ______ ____
ROOT
ATOM      1  O   UNL     1      -0.228   9.948  22.617  0.00  0.00    +0.000 OA
ATOM      2  C   UNL     1      -0.158  10.746  21.685  0.00  0.00    +0.000 A 
ATOM      3  C   UNL     1       0.420  10.425  20.431  0.00  0.00    +0.000 A 
ATOM      4  C   UNL     1       0.483  11.304  19.392  0.00  0.00    +0.000 A 
ATOM      5  N   UNL     1       1.075  10.774  18.295  0.00  0.00    +0.000 NA
ATOM      6  C   UNL     1       1.446   9.559  18.671  0.00  0.00    +0.000 A 
ATOM      7  C   UNL     1       2.174   8.552  17.983  0.00  0.00    +0.000 A 
ATOM      8  C   UNL     1       2.487   7.400  18.621  0.00  0.00    +0.000 A 
ATOM      9  C   UNL     1       2.092   7.165  19.994  0.00  0.00    +0.000 A 
ATOM     10  C   UNL     1       1.396   8.106  20.652  0.00  0.00    +0.000 A 
ATOM     11  N   UNL     1       1.071   9.298  19.992  0.00  0.00    +0.000 N 
ATOM     12  N   UNL     1       0.085  12.614  19.530  0.00  0.00    +0.000 N 
ATOM     13  C   UNL     1      -0.294  13.061  20.808  0.00  0.00    +0.000 A 
ATOM     14  O   UNL     1      -0.307  14.266  21.088  0.00  0.00    +0.000 OA
ATOM     15  N   UNL     1      -0.601  12.068  21.762  0.00  0.00    +0.000 N 
ENDROOT
BRANCH  12  16
ATOM     16  C   UNL     1       0.253  13.570  18.432  0.00  0.00    +0.000 C 
BRANCH  16  17
ATOM     17  C   UNL     1       1.558  14.343  18.505  0.00  0.00    +0.000 A 
ATOM     18  C   UNL     1       1.560  15.725  18.746  0.00  0.00    +0.000 A 
ATOM     19  C   UNL     1       2.753  16.453  18.717  0.00  0.00    +0.000 A 
ATOM     20  C   UNL     1       3.960  15.808  18.461  0.00  0.00    +0.000 A 
ATOM     21  C   UNL     1       3.983  14.429  18.281  0.00  0.00    +0.000 A 
ATOM     22  C   UNL     1       2.788  13.698  18.297  0.00  0.00    +0.000 A 
ENDBRANCH  16  17
ENDBRANCH  12  16
BRANCH  15  23
ATOM     23  C   UNL     1      -1.189  12.513  23.030  0.00  0.00    +0.000 C 
BRANCH  23  24
ATOM     24  C   UNL     1      -2.699  12.679  22.955  0.00  0.00    +0.000 A 
ATOM     25  C   UNL     1      -3.480  12.747  24.120  0.00  0.00    +0.000 A 
ATOM     26  C   UNL     1      -4.875  12.815  24.036  0.00  0.00    +0.000 A 
ATOM     27  C   UNL     1      -5.504  12.822  22.792  0.00  0.00    +0.000 A 
ATOM     28  C   UNL     1      -4.738  12.799  21.630  0.00  0.00    +0.000 A 
ATOM     29  C   UNL     1      -3.346  12.734  21.712  0.00  0.00    +0.000 A 
ENDBRANCH  23  24
ENDBRANCH  15  23
TORSDOF 4
ENDMDL
MODEL 7
REMARK VINA RESULT:      -7.3      8.652     12.992
REMARK  Name = 
REMARK  4 active torsions:
REMARK  status: ('A' for Active; 'I' for Inactive)
REMARK    1  A    between atoms: N_12  and  C_13
REMARK    2  A    between atoms: C_13  and  C_14
REMARK    3  A    between atoms: N_22  and  C_23
REMARK    4  A    between atoms: C_23  and  C_24
REMARK                            x       y       z     vdW  Elec       q    Type
REMARK                         _______ _______ _______ _____ _____    ______ ____
ROOT
ATOM      1  O   UNL     1      -6.432  12.241  19.661  0.00  0.00    +0.000 OA
ATOM      2  C   UNL     1      -5.315  12.414  20.143  0.00  0.00    +0.000 A 
ATOM      3  C   UNL     1      -4.117  12.214  19.413  0.00  0.00    +0.000 A 
ATOM      4  C   UNL     1      -2.879  12.423  19.943  0.00  0.00    +0.000 A 
ATOM      5  N   UNL     1      -1.884  12.171  19.058  0.00  0.00    +0.000 NA
ATOM      6  C   UNL     1      -2.505  11.740  17.972  0.00  0.00    +0.000 A 
ATOM      7  C   UNL     1      -1.996  11.255  16.737  0.00  0.00    +0.000 A 
ATOM      8  C   UNL     1      -2.854  10.805  15.792  0.00  0.00    +0.000 A 
ATOM      9  C   UNL     1      -4.286  10.808  16.007  0.00  0.00    +0.000 A 
ATOM     10  C   UNL     1      -4.779  11.271  17.166  0.00  0.00    +0.000 A 
ATOM     11  N   UNL     1      -3.892  11.738  18.145  0.00  0.00    +0.000 N 
ATOM     12  N   UNL     1      -2.705  12.735  21.272  0.00  0.00    +0.000 N 
ATOM     13  C   UNL     1      -3.836  12.733  22.107  0.00  0.00    +0.000 A 
ATOM     14  O   UNL     1      -3.726  12.640  23.335  0.00  0.00    +0.000 OA
ATOM     15  N   UNL     1      -5.094  12.786  21.470  0.00  0.00    +0.000 N 
ENDROOT
BRANCH  12  16
ATOM     16  C   UNL     1      -1.363  12.856  21.846  0.00  0.00    +0.000 C 
BRANCH  16  17
ATOM     17  C   UNL     1      -0.665  11.520  22.027  0.00  0.00    +0.000 A 
ATOM     18  C   UNL     1      -1.009  10.668  23.088  0.00  0.00    +0.000 A 
ATOM     19  C   UNL     1      -0.303   9.484  23.311  0.00  0.00    +0.000 A 
ATOM     20  C   UNL     1       0.749   9.127  22.470  0.00  0.00    +0.000 A 
ATOM     21  C   UNL     1       1.064   9.930  21.378  0.00  0.00    +0.000 A 
ATOM     22  C   UNL     1       0.365  11.123  21.158  0.00  0.00    +0.000 A 
ENDBRANCH  16  17
ENDBRANCH  12  16
BRANCH  15  23
ATOM     23  C   UNL     1      -6.271  12.988  22.323  0.00  0.00    +0.000 C 
BRANCH  23  24
ATOM     24  C   UNL     1      -6.641  14.454  22.482  0.00  0.00    +0.000 A 
ATOM     25  C   UNL     1      -6.176  15.206  23.573  0.00  0.00    +0.000 A 
ATOM     26  C   UNL     1      -6.592  16.530  23.751  0.00  0.00    +0.000 A 
ATOM     27  C   UNL     1      -7.470  17.119  22.844  0.00  0.00    +0.000 A 
ATOM     28  C   UNL     1      -7.904  16.397  21.734  0.00  0.00    +0.000 A 
ATOM     29  C   UNL     1      -7.487  15.077  21.553  0.00  0.00    +0.000 A 
ENDBRANCH  23  24
ENDBRANCH  15  23
TORSDOF 4
ENDMDL
MODEL 8
REMARK VINA RESULT:      -7.3      8.596     13.081
REMARK  Name = 
REMARK  4 active torsions:
REMARK  status: ('A' for Active; 'I' for Inactive)
REMARK    1  A    between atoms: N_12  and  C_13
REMARK    2  A    between atoms: C_13  and  C_14
REMARK    3  A    between atoms: N_22  and  C_23
REMARK    4  A    between atoms: C_23  and  C_24
REMARK                            x       y       z     vdW  Elec       q    Type
REMARK                         _______ _______ _______ _____ _____    ______ ____
ROOT
ATOM      1  O   UNL     1      -6.419  12.506  20.359  0.00  0.00    +0.000 OA
ATOM      2  C   UNL     1      -5.272  12.613  20.786  0.00  0.00    +0.000 A 
ATOM      3  C   UNL     1      -4.123  12.391  19.986  0.00  0.00    +0.000 A 
ATOM      4  C   UNL     1      -2.851  12.526  20.456  0.00  0.00    +0.000 A 
ATOM      5  N   UNL     1      -1.916  12.266  19.510  0.00  0.00    +0.000 NA
ATOM      6  C   UNL     1      -2.612  11.903  18.444  0.00  0.00    +0.000 A 
ATOM      7  C   UNL     1      -2.190  11.444  17.167  0.00  0.00    +0.000 A 
ATOM      8  C   UNL     1      -3.115  11.066  16.254  0.00  0.00    +0.000 A 
ATOM      9  C   UNL     1      -4.533  11.122  16.546  0.00  0.00    +0.000 A 
ATOM     10  C   UNL     1      -4.944  11.561  17.746  0.00  0.00    +0.000 A 
ATOM     11  N   UNL     1      -3.987  11.953  18.692  0.00  0.00    +0.000 N 
ATOM     12  N   UNL     1      -2.594  12.781  21.783  0.00  0.00    +0.000 N 
ATOM     13  C   UNL     1      -3.679  12.795  22.677  0.00  0.00    +0.000 A 
ATOM     14  O   UNL     1      -3.509  12.651  23.894  0.00  0.00    +0.000 OA
ATOM     15  N   UNL     1      -4.965  12.925  22.112  0.00  0.00    +0.000 N 
ENDROOT
BRANCH  12  16
ATOM     16  C   UNL     1      -1.220  12.824  22.288  0.00  0.00    +0.000 C 
BRANCH  16  17
ATOM     17  C   UNL     1      -0.524  11.474  22.248  0.00  0.00    +0.000 A 
ATOM     18  C   UNL     1       0.487  11.216  21.310  0.00  0.00    +0.000 A 
ATOM     19  C   UNL     1       1.060   9.946  21.208  0.00  0.00    +0.000 A 
ATOM     20  C   UNL     1       0.639   8.919  22.051  0.00  0.00    +0.000 A 
ATOM     21  C   UNL     1      -0.319   9.174  23.027  0.00  0.00    +0.000 A 
ATOM     22  C   UNL     1      -0.903  10.444  23.123  0.00  0.00    +0.000 A 
ENDBRANCH  16  17
ENDBRANCH  12  16
BRANCH  15  23
ATOM     23  C   UNL     1      -6.085  13.145  23.033  0.00  0.00    +0.000 C 
BRANCH  23  24
ATOM     24  C   UNL     1      -6.462  14.612  23.167  0.00  0.00    +0.000 A 
ATOM     25  C   UNL     1      -7.623  15.121  22.564  0.00  0.00    +0.000 A 
ATOM     26  C   UNL     1      -7.914  16.488  22.625  0.00  0.00    +0.000 A 
ATOM     27  C   UNL     1      -7.055  17.360  23.291  0.00  0.00    +0.000 A 
ATOM     28  C   UNL     1      -5.923  16.860  23.931  0.00  0.00    +0.000 A 
ATOM     29  C   UNL     1      -5.633  15.495  23.874  0.00  0.00    +0.000 A 
ENDBRANCH  23  24
ENDBRANCH  15  23
TORSDOF 4
ENDMDL
MODEL 9
REMARK VINA RESULT:      -7.2      6.813     11.635
REMARK  Name = 
REMARK  4 active torsions:
REMARK  status: ('A' for Active; 'I' for Inactive)
REMARK    1  A    between atoms: N_12  and  C_13
REMARK    2  A    between atoms: C_13  and  C_14
REMARK    3  A    between atoms: N_22  and  C_23
REMARK    4  A    between atoms: C_23  and  C_24
REMARK                            x       y       z     vdW  Elec       q    Type
REMARK                         _______ _______ _______ _____ _____    ______ ____
ROOT
ATOM      1  O   UNL     1      -4.675  12.509  21.353  0.00  0.00    +0.000 OA
ATOM      2  C   UNL     1      -3.466  12.369  21.178  0.00  0.00    +0.000 A 
ATOM      3  C   UNL     1      -2.894  12.091  19.912  0.00  0.00    +0.000 A 
ATOM      4  C   UNL     1      -1.553  11.953  19.715  0.00  0.00    +0.000 A 
ATOM      5  N   UNL     1      -1.240  11.694  18.422  0.00  0.00    +0.000 NA
ATOM      6  C   UNL     1      -2.409  11.608  17.807  0.00  0.00    +0.000 A 
ATOM      7  C   UNL     1      -2.733  11.284  16.462  0.00  0.00    +0.000 A 
ATOM      8  C   UNL     1      -4.032  11.198  16.090  0.00  0.00    +0.000 A 
ATOM      9  C   UNL     1      -5.105  11.431  17.033  0.00  0.00    +0.000 A 
ATOM     10  C   UNL     1      -4.812  11.745  18.305  0.00  0.00    +0.000 A 
ATOM     11  N   UNL     1      -3.468  11.836  18.691  0.00  0.00    +0.000 N 
ATOM     12  N   UNL     1      -0.664  11.964  20.765  0.00  0.00    +0.000 N 
ATOM     13  C   UNL     1      -1.181  12.014  22.071  0.00  0.00    +0.000 A 
ATOM     14  O   UNL     1      -0.502  11.665  23.043  0.00  0.00    +0.000 OA
ATOM     15  N   UNL     1      -2.523  12.428  22.206  0.00  0.00    +0.000 N 
ENDROOT
BRANCH  12  16
ATOM     16  C   UNL     1       0.763  11.713  20.544  0.00  0.00    +0.000 C 
BRANCH  16  17
ATOM     17  C   UNL     1       1.077  10.258  20.244  0.00  0.00    +0.000 A 
ATOM     18  C   UNL     1       0.972   9.281  21.245  0.00  0.00    +0.000 A 
ATOM     19  C   UNL     1       1.353   7.959  20.996  0.00  0.00    +0.000 A 
ATOM     20  C   UNL     1       1.832   7.594  19.740  0.00  0.00    +0.000 A 
ATOM     21  C   UNL     1       1.885   8.538  18.719  0.00  0.00    +0.000 A 
ATOM     22  C   UNL     1       1.515   9.865  18.969  0.00  0.00    +0.000 A 
ENDBRANCH  16  17
ENDBRANCH  12  16
BRANCH  15  23
ATOM     23  C   UNL     1      -3.015  12.680  23.564  0.00  0.00    +0.000 C 
BRANCH  23  24
ATOM     24  C   UNL     1      -2.873  14.135  23.984  0.00  0.00    +0.000 A 
ATOM     25  C   UNL     1      -1.613  14.696  24.242  0.00  0.00    +0.000 A 
ATOM     26  C   UNL     1      -1.504  16.011  24.708  0.00  0.00    +0.000 A 
ATOM     27  C   UNL     1      -2.647  16.780  24.915  0.00  0.00    +0.000 A 
ATOM     28  C   UNL     1      -3.900  16.249  24.621  0.00  0.00    +0.000 A 
ATOM     29  C   UNL     1      -4.011  14.938  24.153  0.00  0.00    +0.000 A 
ENDBRANCH  23  24
ENDBRANCH  15  23
TORSDOF 4
ENDMDL
