MODEL 1
REMARK VINA RESULT:      -6.5      0.000      0.000
REMARK  Name = 
REMARK  12 active torsions:
REMARK  status: ('A' for Active; 'I' for Inactive)
REMARK    1  A    between atoms: C_1  and  C_2
REMARK    2  A    between atoms: C_2  and  C_3
REMARK    3  A    between atoms: C_3  and  C_4
REMARK    4  A    between atoms: C_4  and  N_5
REMARK    5  A    between atoms: C_6  and  N_7
REMARK    6  A    between atoms: C_8  and  N_9
REMARK    7  A    between atoms: N_9  and  C_10
REMARK    8  A    between atoms: C_10  and  C_11
REMARK    9  A    between atoms: C_11  and  O_12
REMARK   10  A    between atoms: O_12  and  C_13
REMARK   11  A    between atoms: C_14  and  C_16
REMARK   12  A    between atoms: C_25  and  C_26
REMARK                            x       y       z     vdW  Elec       q    Type
REMARK                         _______ _______ _______ _____ _____    ______ ____
ROOT
ATOM      1  N   UNL     1      -0.829  11.820  20.557  0.00  0.00    +0.000 N 
ATOM      2  C   UNL     1       0.130  12.890  20.675  0.00  0.00    +0.000 C 
ATOM      3  O   UNL     1       1.169  12.707  21.321  0.00  0.00    +0.000 OA
ENDROOT
BRANCH   2   4
ATOM      4  C   UNL     1      -0.141  14.222  20.103  0.00  0.00    +0.000 A 
ATOM      5  O   UNL     1      -1.103  15.030  20.665  0.00  0.00    +0.000 OA
ATOM      6  C   UNL     1      -1.201  16.158  19.897  0.00  0.00    +0.000 A 
ATOM      7  C   UNL     1      -2.021  17.264  20.109  0.00  0.00    +0.000 A 
ATOM      8 CL   UNL     1      -2.928  17.501  21.527  0.00  0.00    +0.000 Cl
ATOM      9  C   UNL     1      -2.045  18.260  19.136  0.00  0.00    +0.000 A 
ATOM     10  C   UNL     1      -1.262  18.154  17.995  0.00  0.00    +0.000 A 
ATOM     11  C   UNL     1      -0.376  17.082  17.841  0.00  0.00    +0.000 A 
ATOM     12  C   UNL     1      -0.330  16.077  18.828  0.00  0.00    +0.000 A 
ATOM     13  C   UNL     1       0.497  14.939  19.085  0.00  0.00    +0.000 A 
ATOM     14  C   UNL     1       1.786  14.661  18.395  0.00  0.00    +0.000 C 
ENDBRANCH   2   4
BRANCH   1  17
ATOM     15  N   UNL     1      -3.127  11.108  17.740  0.00  0.00    +0.000 N 
ATOM     16  C   UNL     1      -1.924  11.292  18.433  0.00  0.00    +0.000 A 
ATOM     17  C   UNL     1      -1.914  11.868  19.665  0.00  0.00    +0.000 A 
ATOM     18  C   UNL     1      -3.183  12.505  20.146  0.00  0.00    +0.000 A 
ATOM     19  O   UNL     1      -3.282  13.051  21.240  0.00  0.00    +0.000 OA
ATOM     20  N   UNL     1      -4.234  12.485  19.271  0.00  0.00    +0.000 N 
ATOM     21  C   UNL     1      -4.325  11.685  18.175  0.00  0.00    +0.000 A 
ATOM     22  O   UNL     1      -5.421  11.513  17.637  0.00  0.00    +0.000 OA
ATOM     23  H   UNL     1      -5.090  12.904  19.591  0.00  0.00    +0.000 HD
BRANCH  16  24
ATOM     24  N   UNL     1      -0.742  10.818  17.878  0.00  0.00    +0.000 N 
ATOM     25  H   UNL     1       0.033  11.064  18.482  0.00  0.00    +0.000 HD
ATOM     26  H   UNL     1      -0.580  11.242  16.969  0.00  0.00    +0.000 HD
ENDBRANCH  16  24
BRANCH  15  27
ATOM     27  C   UNL     1      -3.212  10.165  16.597  0.00  0.00    +0.000 C 
BRANCH  27  28
ATOM     28  C   UNL     1      -3.160  10.866  15.225  0.00  0.00    +0.000 C 
BRANCH  28  30
ATOM     29  C   UNL     1      -4.172   9.921  13.143  0.00  0.00    +0.000 C 
ATOM     30  C   UNL     1      -2.923   9.961  14.024  0.00  0.00    +0.000 C 
ENDBRANCH  28  30
ENDBRANCH  27  28
ENDBRANCH  15  27
ENDBRANCH   1  17
BRANCH   1  31
ATOM     31  C   UNL     1      -0.529  10.661  21.412  0.00  0.00    +0.000 C 
BRANCH  31  32
ATOM     32  C   UNL     1      -0.782  10.586  22.930  0.00  0.00    +0.000 C 
BRANCH  32  33
ATOM     33  O   UNL     1       0.173   9.841  23.682  0.00  0.00    +0.000 OA
ATOM     34  C   UNL     1       1.167   9.227  22.872  0.00  0.00    +0.000 C 
ENDBRANCH  32  33
ENDBRANCH  31  32
ENDBRANCH   1  31
TORSDOF 9
ENDMDL
MODEL 2
REMARK VINA RESULT:      -6.4      2.981      5.825
REMARK  Name = 
REMARK  12 active torsions:
REMARK  status: ('A' for Active; 'I' for Inactive)
REMARK    1  A    between atoms: C_1  and  C_2
REMARK    2  A    between atoms: C_2  and  C_3
REMARK    3  A    between atoms: C_3  and  C_4
REMARK    4  A    between atoms: C_4  and  N_5
REMARK    5  A    between atoms: C_6  and  N_7
REMARK    6  A    between atoms: C_8  and  N_9
REMARK    7  A    between atoms: N_9  and  C_10
REMARK    8  A    between atoms: C_10  and  C_11
REMARK    9  A    between atoms: C_11  and  O_12
REMARK   10  A    between atoms: O_12  and  C_13
REMARK   11  A    between atoms: C_14  and  C_16
REMARK   12  A    between atoms: C_25  and  C_26
REMARK                            x       y       z     vdW  Elec       q    Type
REMARK                         _______ _______ _______ _____ _____    ______ ____
ROOT
ATOM      1  N   UNL     1      -1.493  14.396  21.304  0.00  0.00    +0.000 N 
ATOM      2  C   UNL     1      -2.797  14.977  21.505  0.00  0.00    +0.000 C 
ATOM      3  O   UNL     1      -2.926  16.207  21.473  0.00  0.00    +0.000 OA
ENDROOT
BRANCH   2   4
ATOM      4  C   UNL     1      -3.966  14.136  21.819  0.00  0.00    +0.000 A 
ATOM      5  O   UNL     1      -4.661  13.517  20.806  0.00  0.00    +0.000 OA
ATOM      6  C   UNL     1      -5.732  12.875  21.365  0.00  0.00    +0.000 A 
ATOM      7  C   UNL     1      -6.688  12.092  20.721  0.00  0.00    +0.000 A 
ATOM      8 CL   UNL     1      -6.567  11.614  19.094  0.00  0.00    +0.000 Cl
ATOM      9  C   UNL     1      -7.764  11.620  21.469  0.00  0.00    +0.000 A 
ATOM     10  C   UNL     1      -7.869  11.916  22.821  0.00  0.00    +0.000 A 
ATOM     11  C   UNL     1      -6.854  12.626  23.473  0.00  0.00    +0.000 A 
ATOM     12  C   UNL     1      -5.751  13.093  22.730  0.00  0.00    +0.000 A 
ATOM     13  C   UNL     1      -4.503  13.716  23.041  0.00  0.00    +0.000 A 
ATOM     14  C   UNL     1      -3.934  13.824  24.413  0.00  0.00    +0.000 C 
ENDBRANCH   2   4
BRANCH   1  17
ATOM     15  N   UNL     1      -0.785  11.118  19.731  0.00  0.00    +0.000 N 
ATOM     16  C   UNL     1      -1.292  12.415  19.883  0.00  0.00    +0.000 A 
ATOM     17  C   UNL     1      -1.298  13.020  21.102  0.00  0.00    +0.000 A 
ATOM     18  C   UNL     1      -0.969  12.179  22.297  0.00  0.00    +0.000 A 
ATOM     19  O   UNL     1      -0.946  12.624  23.440  0.00  0.00    +0.000 OA
ATOM     20  N   UNL     1      -0.733  10.854  22.054  0.00  0.00    +0.000 N 
ATOM     21  C   UNL     1      -0.462  10.318  20.834  0.00  0.00    +0.000 A 
ATOM     22  O   UNL     1       0.038   9.193  20.759  0.00  0.00    +0.000 OA
ATOM     23  H   UNL     1      -0.504  10.285  22.851  0.00  0.00    +0.000 HD
BRANCH  16  24
ATOM     24  N   UNL     1      -1.731  13.107  18.761  0.00  0.00    +0.000 N 
ATOM     25  H   UNL     1      -2.166  13.974  19.053  0.00  0.00    +0.000 HD
ATOM     26  H   UNL     1      -2.423  12.563  18.254  0.00  0.00    +0.000 HD
ENDBRANCH  16  24
BRANCH  15  27
ATOM     27  C   UNL     1      -0.423  10.593  18.391  0.00  0.00    +0.000 C 
BRANCH  27  28
ATOM     28  C   UNL     1      -1.528   9.724  17.760  0.00  0.00    +0.000 C 
BRANCH  28  30
ATOM     29  C   UNL     1      -3.749  10.595  17.012  0.00  0.00    +0.000 C 
ATOM     30  C   UNL     1      -2.294  10.356  16.606  0.00  0.00    +0.000 C 
ENDBRANCH  28  30
ENDBRANCH  27  28
ENDBRANCH  15  27
ENDBRANCH   1  17
BRANCH   1  31
ATOM     31  C   UNL     1      -0.403  15.385  21.278  0.00  0.00    +0.000 C 
BRANCH  31  32
ATOM     32  C   UNL     1       0.334  15.864  20.012  0.00  0.00    +0.000 C 
BRANCH  32  33
ATOM     33  O   UNL     1      -0.407  15.784  18.796  0.00  0.00    +0.000 OA
ATOM     34  C   UNL     1      -0.618  17.050  18.186  0.00  0.00    +0.000 C 
ENDBRANCH  32  33
ENDBRANCH  31  32
ENDBRANCH   1  31
TORSDOF 9
ENDMDL
MODEL 3
REMARK VINA RESULT:      -6.4      1.003      1.070
REMARK  Name = 
REMARK  12 active torsions:
REMARK  status: ('A' for Active; 'I' for Inactive)
REMARK    1  A    between atoms: C_1  and  C_2
REMARK    2  A    between atoms: C_2  and  C_3
REMARK    3  A    between atoms: C_3  and  C_4
REMARK    4  A    between atoms: C_4  and  N_5
REMARK    5  A    between atoms: C_6  and  N_7
REMARK    6  A    between atoms: C_8  and  N_9
REMARK    7  A    between atoms: N_9  and  C_10
REMARK    8  A    between atoms: C_10  and  C_11
REMARK    9  A    between atoms: C_11  and  O_12
REMARK   10  A    between atoms: O_12  and  C_13
REMARK   11  A    between atoms: C_14  and  C_16
REMARK   12  A    between atoms: C_25  and  C_26
REMARK                            x       y       z     vdW  Elec       q    Type
REMARK                         _______ _______ _______ _____ _____    ______ ____
ROOT
ATOM      1  N   UNL     1      -0.390  12.042  20.637  0.00  0.00    +0.000 N 
ATOM      2  C   UNL     1       0.497  13.176  20.714  0.00  0.00    +0.000 C 
ATOM      3  O   UNL     1       1.535  13.091  21.383  0.00  0.00    +0.000 OA
ENDROOT
BRANCH   2   4
ATOM      4  C   UNL     1       0.154  14.457  20.072  0.00  0.00    +0.000 A 
ATOM      5  O   UNL     1      -0.897  15.208  20.550  0.00  0.00    +0.000 OA
ATOM      6  C   UNL     1      -1.043  16.292  19.729  0.00  0.00    +0.000 A 
ATOM      7  C   UNL     1      -1.957  17.337  19.851  0.00  0.00    +0.000 A 
ATOM      8 CL   UNL     1      -2.953  17.556  21.211  0.00  0.00    +0.000 Cl
ATOM      9  C   UNL     1      -2.008  18.288  18.836  0.00  0.00    +0.000 A 
ATOM     10  C   UNL     1      -1.160  18.200  17.740  0.00  0.00    +0.000 A 
ATOM     11  C   UNL     1      -0.185  17.197  17.677  0.00  0.00    +0.000 A 
ATOM     12  C   UNL     1      -0.112  16.239  18.708  0.00  0.00    +0.000 A 
ATOM     13  C   UNL     1       0.786  15.183  19.056  0.00  0.00    +0.000 A 
ATOM     14  C   UNL     1       2.128  14.982  18.444  0.00  0.00    +0.000 C 
ENDBRANCH   2   4
BRANCH   1  17
ATOM     15  N   UNL     1      -2.543  11.119  17.767  0.00  0.00    +0.000 N 
ATOM     16  C   UNL     1      -1.382  11.434  18.484  0.00  0.00    +0.000 A 
ATOM     17  C   UNL     1      -1.460  11.977  19.729  0.00  0.00    +0.000 A 
ATOM     18  C   UNL     1      -2.805  12.440  20.202  0.00  0.00    +0.000 A 
ATOM     19  O   UNL     1      -2.986  12.944  21.307  0.00  0.00    +0.000 OA
ATOM     20  N   UNL     1      -3.834  12.312  19.310  0.00  0.00    +0.000 N 
ATOM     21  C   UNL     1      -3.810  11.533  18.195  0.00  0.00    +0.000 A 
ATOM     22  O   UNL     1      -4.869  11.239  17.635  0.00  0.00    +0.000 OA
ATOM     23  H   UNL     1      -4.740  12.614  19.625  0.00  0.00    +0.000 HD
BRANCH  16  24
ATOM     24  N   UNL     1      -0.143  11.123  17.938  0.00  0.00    +0.000 N 
ATOM     25  H   UNL     1       0.402  10.607  18.618  0.00  0.00    +0.000 HD
ATOM     26  H   UNL     1       0.367  11.971  17.705  0.00  0.00    +0.000 HD
ENDBRANCH  16  24
BRANCH  15  27
ATOM     27  C   UNL     1      -2.495  10.200  16.602  0.00  0.00    +0.000 C 
BRANCH  27  28
ATOM     28  C   UNL     1      -2.883  10.881  15.275  0.00  0.00    +0.000 C 
BRANCH  28  30
ATOM     29  C   UNL     1      -2.815   9.529  13.173  0.00  0.00    +0.000 C 
ATOM     30  C   UNL     1      -3.703  10.037  14.310  0.00  0.00    +0.000 C 
ENDBRANCH  28  30
ENDBRANCH  27  28
ENDBRANCH  15  27
ENDBRANCH   1  17
BRANCH   1  31
ATOM     31  C   UNL     1      -0.033  10.949  21.554  0.00  0.00    +0.000 C 
BRANCH  31  32
ATOM     32  C   UNL     1       0.066   9.460  21.168  0.00  0.00    +0.000 C 
BRANCH  32  33
ATOM     33  O   UNL     1       0.954   9.155  20.095  0.00  0.00    +0.000 OA
ATOM     34  C   UNL     1       1.712   7.973  20.316  0.00  0.00    +0.000 C 
ENDBRANCH  32  33
ENDBRANCH  31  32
ENDBRANCH   1  31
TORSDOF 9
ENDMDL
MODEL 4
REMARK VINA RESULT:      -6.3      3.212      5.771
REMARK  Name = 
REMARK  12 active torsions:
REMARK  status: ('A' for Active; 'I' for Inactive)
REMARK    1  A    between atoms: C_1  and  C_2
REMARK    2  A    between atoms: C_2  and  C_3
REMARK    3  A    between atoms: C_3  and  C_4
REMARK    4  A    between atoms: C_4  and  N_5
REMARK    5  A    between atoms: C_6  and  N_7
REMARK    6  A    between atoms: C_8  and  N_9
REMARK    7  A    between atoms: N_9  and  C_10
REMARK    8  A    between atoms: C_10  and  C_11
REMARK    9  A    between atoms: C_11  and  O_12
REMARK   10  A    between atoms: O_12  and  C_13
REMARK   11  A    between atoms: C_14  and  C_16
REMARK   12  A    between atoms: C_25  and  C_26
REMARK                            x       y       z     vdW  Elec       q    Type
REMARK                         _______ _______ _______ _____ _____    ______ ____
ROOT
ATOM      1  N   UNL     1      -0.685  13.488  20.815  0.00  0.00    +0.000 N 
ATOM      2  C   UNL     1      -1.944  14.163  20.619  0.00  0.00    +0.000 C 
ATOM      3  O   UNL     1      -1.961  15.395  20.503  0.00  0.00    +0.000 OA
ENDROOT
BRANCH   2   4
ATOM      4  C   UNL     1      -3.217  13.420  20.629  0.00  0.00    +0.000 A 
ATOM      5  O   UNL     1      -3.686  12.842  19.471  0.00  0.00    +0.000 OA
ATOM      6  C   UNL     1      -4.909  12.294  19.744  0.00  0.00    +0.000 A 
ATOM      7  C   UNL     1      -5.734  11.577  18.879  0.00  0.00    +0.000 A 
ATOM      8 CL   UNL     1      -5.251  11.066  17.331  0.00  0.00    +0.000 Cl
ATOM      9  C   UNL     1      -6.995  11.202  19.334  0.00  0.00    +0.000 A 
ATOM     10  C   UNL     1      -7.410  11.526  20.619  0.00  0.00    +0.000 A 
ATOM     11  C   UNL     1      -6.535  12.164  21.506  0.00  0.00    +0.000 A 
ATOM     12  C   UNL     1      -5.249  12.533  21.062  0.00  0.00    +0.000 A 
ATOM     13  C   UNL     1      -4.072  13.062  21.677  0.00  0.00    +0.000 A 
ATOM     14  C   UNL     1      -3.855  13.146  23.148  0.00  0.00    +0.000 C 
ENDBRANCH   2   4
BRANCH   1  17
ATOM     15  N   UNL     1      -0.000  10.069  19.565  0.00  0.00    +0.000 N 
ATOM     16  C   UNL     1      -0.442  11.398  19.567  0.00  0.00    +0.000 A 
ATOM     17  C   UNL     1      -0.552  12.092  20.731  0.00  0.00    +0.000 A 
ATOM     18  C   UNL     1      -0.414  11.327  22.012  0.00  0.00    +0.000 A 
ATOM     19  O   UNL     1      -0.496  11.855  23.117  0.00  0.00    +0.000 OA
ATOM     20  N   UNL     1      -0.231   9.977  21.890  0.00  0.00    +0.000 N 
ATOM     21  C   UNL     1       0.145   9.338  20.750  0.00  0.00    +0.000 A 
ATOM     22  O   UNL     1       0.582   8.187  20.813  0.00  0.00    +0.000 OA
ATOM     23  H   UNL     1      -0.131   9.459  22.746  0.00  0.00    +0.000 HD
BRANCH  16  24
ATOM     24  N   UNL     1      -0.706  12.026  18.356  0.00  0.00    +0.000 N 
ATOM     25  H   UNL     1      -0.505  13.015  18.442  0.00  0.00    +0.000 HD
ATOM     26  H   UNL     1      -1.686  11.925  18.107  0.00  0.00    +0.000 HD
ENDBRANCH  16  24
BRANCH  15  27
ATOM     27  C   UNL     1       0.482   9.427  18.316  0.00  0.00    +0.000 C 
BRANCH  27  28
ATOM     28  C   UNL     1       1.955   9.748  17.998  0.00  0.00    +0.000 C 
BRANCH  28  30
ATOM     29  C   UNL     1       2.097   7.253  17.921  0.00  0.00    +0.000 C 
ATOM     30  C   UNL     1       2.899   8.555  17.943  0.00  0.00    +0.000 C 
ENDBRANCH  28  30
ENDBRANCH  27  28
ENDBRANCH  15  27
ENDBRANCH   1  17
BRANCH   1  31
ATOM     31  C   UNL     1       0.444  14.401  21.053  0.00  0.00    +0.000 C 
BRANCH  31  32
ATOM     32  C   UNL     1       1.636  14.610  20.099  0.00  0.00    +0.000 C 
BRANCH  32  33
ATOM     33  O   UNL     1       1.397  14.292  18.730  0.00  0.00    +0.000 OA
ATOM     34  C   UNL     1       2.493  13.635  18.108  0.00  0.00    +0.000 C 
ENDBRANCH  32  33
ENDBRANCH  31  32
ENDBRANCH   1  31
TORSDOF 9
ENDMDL
MODEL 5
REMARK VINA RESULT:      -6.2      3.462      6.001
REMARK  Name = 
REMARK  12 active torsions:
REMARK  status: ('A' for Active; 'I' for Inactive)
REMARK    1  A    between atoms: C_1  and  C_2
REMARK    2  A    between atoms: C_2  and  C_3
REMARK    3  A    between atoms: C_3  and  C_4
REMARK    4  A    between atoms: C_4  and  N_5
REMARK    5  A    between atoms: C_6  and  N_7
REMARK    6  A    between atoms: C_8  and  N_9
REMARK    7  A    between atoms: N_9  and  C_10
REMARK    8  A    between atoms: C_10  and  C_11
REMARK    9  A    between atoms: C_11  and  O_12
REMARK   10  A    between atoms: O_12  and  C_13
REMARK   11  A    between atoms: C_14  and  C_16
REMARK   12  A    between atoms: C_25  and  C_26
REMARK                            x       y       z     vdW  Elec       q    Type
REMARK                         _______ _______ _______ _____ _____    ______ ____
ROOT
ATOM      1  N   UNL     1       1.235  12.504  19.611  0.00  0.00    +0.000 N 
ATOM      2  C   UNL     1       0.135  13.274  19.086  0.00  0.00    +0.000 C 
ATOM      3  O   UNL     1       0.324  14.448  18.742  0.00  0.00    +0.000 OA
ENDROOT
BRANCH   2   4
ATOM      4  C   UNL     1      -1.225  12.711  19.018  0.00  0.00    +0.000 A 
ATOM      5  O   UNL     1      -1.581  11.892  17.971  0.00  0.00    +0.000 OA
ATOM      6  C   UNL     1      -2.905  11.583  18.114  0.00  0.00    +0.000 A 
ATOM      7  C   UNL     1      -3.678  10.752  17.304  0.00  0.00    +0.000 A 
ATOM      8 CL   UNL     1      -3.032   9.782  16.068  0.00  0.00    +0.000 Cl
ATOM      9  C   UNL     1      -5.043  10.663  17.568  0.00  0.00    +0.000 A 
ATOM     10  C   UNL     1      -5.609  11.374  18.617  0.00  0.00    +0.000 A 
ATOM     11  C   UNL     1      -4.804  12.131  19.477  0.00  0.00    +0.000 A 
ATOM     12  C   UNL     1      -3.419  12.214  19.230  0.00  0.00    +0.000 A 
ATOM     13  C   UNL     1      -2.292  12.757  19.923  0.00  0.00    +0.000 A 
ATOM     14  C   UNL     1      -2.315  13.220  21.337  0.00  0.00    +0.000 C 
ENDBRANCH   2   4
BRANCH   1  17
ATOM     15  N   UNL     1       1.754   8.852  19.279  0.00  0.00    +0.000 N 
ATOM     16  C   UNL     1       1.560  10.186  18.900  0.00  0.00    +0.000 A 
ATOM     17  C   UNL     1       1.162  11.115  19.810  0.00  0.00    +0.000 A 
ATOM     18  C   UNL     1       0.717  10.626  21.154  0.00  0.00    +0.000 A 
ATOM     19  O   UNL     1       0.339  11.379  22.047  0.00  0.00    +0.000 OA
ATOM     20  N   UNL     1       0.710   9.269  21.329  0.00  0.00    +0.000 N 
ATOM     21  C   UNL     1       1.355   8.375  20.533  0.00  0.00    +0.000 A 
ATOM     22  O   UNL     1       1.550   7.227  20.940  0.00  0.00    +0.000 OA
ATOM     23  H   UNL     1       0.419   8.935  22.231  0.00  0.00    +0.000 HD
BRANCH  16  24
ATOM     24  N   UNL     1       1.843  10.568  17.594  0.00  0.00    +0.000 N 
ATOM     25  H   UNL     1       1.050  10.350  17.003  0.00  0.00    +0.000 HD
ATOM     26  H   UNL     1       2.648  10.060  17.240  0.00  0.00    +0.000 HD
ENDBRANCH  16  24
BRANCH  15  27
ATOM     27  C   UNL     1       2.534   7.921  18.423  0.00  0.00    +0.000 C 
BRANCH  27  28
ATOM     28  C   UNL     1       1.841   6.560  18.219  0.00  0.00    +0.000 C 
BRANCH  28  30
ATOM     29  C   UNL     1       3.762   5.231  19.112  0.00  0.00    +0.000 C 
ATOM     30  C   UNL     1       2.763   5.376  17.963  0.00  0.00    +0.000 C 
ENDBRANCH  28  30
ENDBRANCH  27  28
ENDBRANCH  15  27
ENDBRANCH   1  17
BRANCH   1  31
ATOM     31  C   UNL     1       2.447  13.300  19.863  0.00  0.00    +0.000 C 
BRANCH  31  32
ATOM     32  C   UNL     1       2.851  13.898  21.225  0.00  0.00    +0.000 C 
BRANCH  32  33
ATOM     33  O   UNL     1       1.775  14.298  22.071  0.00  0.00    +0.000 OA
ATOM     34  C   UNL     1       1.410  15.662  21.903  0.00  0.00    +0.000 C 
ENDBRANCH  32  33
ENDBRANCH  31  32
ENDBRANCH   1  31
TORSDOF 9
ENDMDL
MODEL 6
REMARK VINA RESULT:      -6.2      3.275      5.981
REMARK  Name = 
REMARK  12 active torsions:
REMARK  status: ('A' for Active; 'I' for Inactive)
REMARK    1  A    between atoms: C_1  and  C_2
REMARK    2  A    between atoms: C_2  and  C_3
REMARK    3  A    between atoms: C_3  and  C_4
REMARK    4  A    between atoms: C_4  and  N_5
REMARK    5  A    between atoms: C_6  and  N_7
REMARK    6  A    between atoms: C_8  and  N_9
REMARK    7  A    between atoms: N_9  and  C_10
REMARK    8  A    between atoms: C_10  and  C_11
REMARK    9  A    between atoms: C_11  and  O_12
REMARK   10  A    between atoms: O_12  and  C_13
REMARK   11  A    between atoms: C_14  and  C_16
REMARK   12  A    between atoms: C_25  and  C_26
REMARK                            x       y       z     vdW  Elec       q    Type
REMARK                         _______ _______ _______ _____ _____    ______ ____
ROOT
ATOM      1  N   UNL     1       0.781  12.606  20.393  0.00  0.00    +0.000 N 
ATOM      2  C   UNL     1      -0.272  13.402  19.813  0.00  0.00    +0.000 C 
ATOM      3  O   UNL     1      -0.111  14.622  19.686  0.00  0.00    +0.000 OA
ENDROOT
BRANCH   2   4
ATOM      4  C   UNL     1      -1.562  12.799  19.435  0.00  0.00    +0.000 A 
ATOM      5  O   UNL     1      -1.713  12.213  18.198  0.00  0.00    +0.000 OA
ATOM      6  C   UNL     1      -3.016  11.813  18.082  0.00  0.00    +0.000 A 
ATOM      7  C   UNL     1      -3.610  11.143  17.014  0.00  0.00    +0.000 A 
ATOM      8 CL   UNL     1      -2.734  10.503  15.705  0.00  0.00    +0.000 Cl
ATOM      9  C   UNL     1      -4.985  10.929  17.056  0.00  0.00    +0.000 A 
ATOM     10  C   UNL     1      -5.737  11.362  18.139  0.00  0.00    +0.000 A 
ATOM     11  C   UNL     1      -5.112  11.950  19.245  0.00  0.00    +0.000 A 
ATOM     12  C   UNL     1      -3.718  12.157  19.222  0.00  0.00    +0.000 A 
ATOM     13  C   UNL     1      -2.736  12.590  20.167  0.00  0.00    +0.000 A 
ATOM     14  C   UNL     1      -2.978  12.728  21.629  0.00  0.00    +0.000 C 
ENDBRANCH   2   4
BRANCH   1  17
ATOM     15  N   UNL     1       1.416   9.083  19.442  0.00  0.00    +0.000 N 
ATOM     16  C   UNL     1       1.149  10.449  19.297  0.00  0.00    +0.000 A 
ATOM     17  C   UNL     1       0.773  11.201  20.366  0.00  0.00    +0.000 A 
ATOM     18  C   UNL     1       0.429  10.481  21.635  0.00  0.00    +0.000 A 
ATOM     19  O   UNL     1       0.078  11.063  22.657  0.00  0.00    +0.000 OA
ATOM     20  N   UNL     1       0.484   9.116  21.586  0.00  0.00    +0.000 N 
ATOM     21  C   UNL     1       1.112   8.392  20.621  0.00  0.00    +0.000 A 
ATOM     22  O   UNL     1       1.374   7.204  20.824  0.00  0.00    +0.000 OA
ATOM     23  H   UNL     1       0.261   8.627  22.436  0.00  0.00    +0.000 HD
BRANCH  16  24
ATOM     24  N   UNL     1       1.337  11.050  18.058  0.00  0.00    +0.000 N 
ATOM     25  H   UNL     1       1.506  12.040  18.188  0.00  0.00    +0.000 HD
ATOM     26  H   UNL     1       0.507  10.945  17.481  0.00  0.00    +0.000 HD
ENDBRANCH  16  24
BRANCH  15  27
ATOM     27  C   UNL     1       2.176   8.340  18.405  0.00  0.00    +0.000 C 
BRANCH  27  28
ATOM     28  C   UNL     1       2.790   7.026  18.928  0.00  0.00    +0.000 C 
BRANCH  28  30
ATOM     29  C   UNL     1       2.031   4.842  17.976  0.00  0.00    +0.000 C 
ATOM     30  C   UNL     1       3.070   5.959  17.878  0.00  0.00    +0.000 C 
ENDBRANCH  28  30
ENDBRANCH  27  28
ENDBRANCH  15  27
ENDBRANCH   1  17
BRANCH   1  31
ATOM     31  C   UNL     1       1.880  13.403  20.962  0.00  0.00    +0.000 C 
BRANCH  31  32
ATOM     32  C   UNL     1       3.109  13.907  20.181  0.00  0.00    +0.000 C 
BRANCH  32  33
ATOM     33  O   UNL     1       3.112  13.630  18.782  0.00  0.00    +0.000 OA
ATOM     34  C   UNL     1       3.119  14.803  17.980  0.00  0.00    +0.000 C 
ENDBRANCH  32  33
ENDBRANCH  31  32
ENDBRANCH   1  31
TORSDOF 9
ENDMDL
MODEL 7
REMARK VINA RESULT:      -6.2      3.305      5.664
REMARK  Name = 
REMARK  12 active torsions:
REMARK  status: ('A' for Active; 'I' for Inactive)
REMARK    1  A    between atoms: C_1  and  C_2
REMARK    2  A    between atoms: C_2  and  C_3
REMARK    3  A    between atoms: C_3  and  C_4
REMARK    4  A    between atoms: C_4  and  N_5
REMARK    5  A    between atoms: C_6  and  N_7
REMARK    6  A    between atoms: C_8  and  N_9
REMARK    7  A    between atoms: N_9  and  C_10
REMARK    8  A    between atoms: C_10  and  C_11
REMARK    9  A    between atoms: C_11  and  O_12
REMARK   10  A    between atoms: O_12  and  C_13
REMARK   11  A    between atoms: C_14  and  C_16
REMARK   12  A    between atoms: C_25  and  C_26
REMARK                            x       y       z     vdW  Elec       q    Type
REMARK                         _______ _______ _______ _____ _____    ______ ____
ROOT
ATOM      1  N   UNL     1      -0.661  13.602  20.686  0.00  0.00    +0.000 N 
ATOM      2  C   UNL     1      -1.918  14.300  20.584  0.00  0.00    +0.000 C 
ATOM      3  O   UNL     1      -1.921  15.525  20.408  0.00  0.00    +0.000 OA
ENDROOT
BRANCH   2   4
ATOM      4  C   UNL     1      -3.199  13.592  20.759  0.00  0.00    +0.000 A 
ATOM      5  O   UNL     1      -3.772  12.933  19.695  0.00  0.00    +0.000 OA
ATOM      6  C   UNL     1      -4.979  12.440  20.110  0.00  0.00    +0.000 A 
ATOM      7  C   UNL     1      -5.885  11.675  19.377  0.00  0.00    +0.000 A 
ATOM      8 CL   UNL     1      -5.540  11.028  17.844  0.00  0.00    +0.000 Cl
ATOM      9  C   UNL     1      -7.111  11.370  19.962  0.00  0.00    +0.000 A 
ATOM     10  C   UNL     1      -7.412  11.808  21.245  0.00  0.00    +0.000 A 
ATOM     11  C   UNL     1      -6.456  12.495  22.002  0.00  0.00    +0.000 A 
ATOM     12  C   UNL     1      -5.205  12.794  21.427  0.00  0.00    +0.000 A 
ATOM     13  C   UNL     1      -3.972  13.342  21.898  0.00  0.00    +0.000 A 
ATOM     14  C   UNL     1      -3.632  13.541  23.334  0.00  0.00    +0.000 C 
ENDBRANCH   2   4
BRANCH   1  17
ATOM     15  N   UNL     1      -0.037  10.119  19.589  0.00  0.00    +0.000 N 
ATOM     16  C   UNL     1      -0.438  11.459  19.526  0.00  0.00    +0.000 A 
ATOM     17  C   UNL     1      -0.567  12.201  20.659  0.00  0.00    +0.000 A 
ATOM     18  C   UNL     1      -0.496  11.481  21.972  0.00  0.00    +0.000 A 
ATOM     19  O   UNL     1      -0.599  12.054  23.052  0.00  0.00    +0.000 OA
ATOM     20  N   UNL     1      -0.350  10.123  21.906  0.00  0.00    +0.000 N 
ATOM     21  C   UNL     1       0.046   9.431  20.805  0.00  0.00    +0.000 A 
ATOM     22  O   UNL     1       0.445   8.270  20.926  0.00  0.00    +0.000 OA
ATOM     23  H   UNL     1      -0.294   9.635  22.784  0.00  0.00    +0.000 HD
BRANCH  16  24
ATOM     24  N   UNL     1      -0.642  12.048  18.284  0.00  0.00    +0.000 N 
ATOM     25  H   UNL     1      -1.297  12.815  18.380  0.00  0.00    +0.000 HD
ATOM     26  H   UNL     1      -1.038  11.377  17.631  0.00  0.00    +0.000 HD
ENDBRANCH  16  24
BRANCH  15  27
ATOM     27  C   UNL     1       0.468   9.416  18.383  0.00  0.00    +0.000 C 
BRANCH  27  28
ATOM     28  C   UNL     1       1.936   9.754  18.053  0.00  0.00    +0.000 C 
BRANCH  28  30
ATOM     29  C   UNL     1       2.313   7.296  18.319  0.00  0.00    +0.000 C 
ATOM     30  C   UNL     1       2.814   8.577  17.650  0.00  0.00    +0.000 C 
ENDBRANCH  28  30
ENDBRANCH  27  28
ENDBRANCH  15  27
ENDBRANCH   1  17
BRANCH   1  31
ATOM     31  C   UNL     1       0.506  14.495  20.764  0.00  0.00    +0.000 C 
BRANCH  31  32
ATOM     32  C   UNL     1       1.965  14.038  20.959  0.00  0.00    +0.000 C 
BRANCH  32  33
ATOM     33  O   UNL     1       2.593  14.466  22.165  0.00  0.00    +0.000 OA
ATOM     34  C   UNL     1       4.002  14.606  22.043  0.00  0.00    +0.000 C 
ENDBRANCH  32  33
ENDBRANCH  31  32
ENDBRANCH   1  31
TORSDOF 9
ENDMDL
MODEL 8
REMARK VINA RESULT:      -6.1      2.547      4.008
REMARK  Name = 
REMARK  12 active torsions:
REMARK  status: ('A' for Active; 'I' for Inactive)
REMARK    1  A    between atoms: C_1  and  C_2
REMARK    2  A    between atoms: C_2  and  C_3
REMARK    3  A    between atoms: C_3  and  C_4
REMARK    4  A    between atoms: C_4  and  N_5
REMARK    5  A    between atoms: C_6  and  N_7
REMARK    6  A    between atoms: C_8  and  N_9
REMARK    7  A    between atoms: N_9  and  C_10
REMARK    8  A    between atoms: C_10  and  C_11
REMARK    9  A    between atoms: C_11  and  O_12
REMARK   10  A    between atoms: O_12  and  C_13
REMARK   11  A    between atoms: C_14  and  C_16
REMARK   12  A    between atoms: C_25  and  C_26
REMARK                            x       y       z     vdW  Elec       q    Type
REMARK                         _______ _______ _______ _____ _____    ______ ____
ROOT
ATOM      1  N   UNL     1      -0.977  12.917  22.119  0.00  0.00    +0.000 N 
ATOM      2  C   UNL     1      -0.311  14.195  22.160  0.00  0.00    +0.000 C 
ATOM      3  O   UNL     1      -0.262  14.820  23.227  0.00  0.00    +0.000 OA
ENDROOT
BRANCH   2   4
ATOM      4  C   UNL     1       0.249  14.802  20.940  0.00  0.00    +0.000 A 
ATOM      5  O   UNL     1       1.404  14.298  20.387  0.00  0.00    +0.000 OA
ATOM      6  C   UNL     1       1.739  15.090  19.323  0.00  0.00    +0.000 A 
ATOM      7  C   UNL     1       2.813  14.935  18.449  0.00  0.00    +0.000 A 
ATOM      8 CL   UNL     1       3.816  13.563  18.431  0.00  0.00    +0.000 Cl
ATOM      9  C   UNL     1       3.033  15.926  17.496  0.00  0.00    +0.000 A 
ATOM     10  C   UNL     1       2.196  17.030  17.416  0.00  0.00    +0.000 A 
ATOM     11  C   UNL     1       1.068  17.125  18.239  0.00  0.00    +0.000 A 
ATOM     12  C   UNL     1       0.824  16.119  19.196  0.00  0.00    +0.000 A 
ATOM     13  C   UNL     1      -0.242  15.805  20.095  0.00  0.00    +0.000 A 
ATOM     14  C   UNL     1      -1.591  16.432  20.054  0.00  0.00    +0.000 C 
ENDBRANCH   2   4
BRANCH   1  17
ATOM     15  N   UNL     1      -1.335  11.431  18.745  0.00  0.00    +0.000 N 
ATOM     16  C   UNL     1      -1.682  12.108  19.920  0.00  0.00    +0.000 A 
ATOM     17  C   UNL     1      -0.883  12.048  21.019  0.00  0.00    +0.000 A 
ATOM     18  C   UNL     1       0.241  11.057  21.007  0.00  0.00    +0.000 A 
ATOM     19  O   UNL     1       1.020  10.922  21.945  0.00  0.00    +0.000 OA
ATOM     20  N   UNL     1       0.333  10.265  19.896  0.00  0.00    +0.000 N 
ATOM     21  C   UNL     1      -0.283  10.508  18.708  0.00  0.00    +0.000 A 
ATOM     22  O   UNL     1       0.102   9.925  17.692  0.00  0.00    +0.000 OA
ATOM     23  H   UNL     1       1.090   9.603  19.879  0.00  0.00    +0.000 HD
BRANCH  16  24
ATOM     24  N   UNL     1      -2.824  12.901  19.933  0.00  0.00    +0.000 N 
ATOM     25  H   UNL     1      -3.619  12.347  19.641  0.00  0.00    +0.000 HD
ATOM     26  H   UNL     1      -2.726  13.678  19.286  0.00  0.00    +0.000 HD
ENDBRANCH  16  24
BRANCH  15  27
ATOM     27  C   UNL     1      -1.970  11.777  17.448  0.00  0.00    +0.000 C 
BRANCH  27  28
ATOM     28  C   UNL     1      -3.172  10.878  17.101  0.00  0.00    +0.000 C 
BRANCH  28  30
ATOM     29  C   UNL     1      -5.515  11.101  17.945  0.00  0.00    +0.000 C 
ATOM     30  C   UNL     1      -4.503  11.592  16.909  0.00  0.00    +0.000 C 
ENDBRANCH  28  30
ENDBRANCH  27  28
ENDBRANCH  15  27
ENDBRANCH   1  17
BRANCH   1  31
ATOM     31  C   UNL     1      -1.711  12.593  23.352  0.00  0.00    +0.000 C 
BRANCH  31  32
ATOM     32  C   UNL     1      -3.205  12.882  23.601  0.00  0.00    +0.000 C 
BRANCH  32  33
ATOM     33  O   UNL     1      -4.113  12.284  22.679  0.00  0.00    +0.000 OA
ATOM     34  C   UNL     1      -5.353  12.974  22.589  0.00  0.00    +0.000 C 
ENDBRANCH  32  33
ENDBRANCH  31  32
ENDBRANCH   1  31
TORSDOF 9
ENDMDL
MODEL 9
REMARK VINA RESULT:      -6.1      3.206      5.996
REMARK  Name = 
REMARK  12 active torsions:
REMARK  status: ('A' for Active; 'I' for Inactive)
REMARK    1  A    between atoms: C_1  and  C_2
REMARK    2  A    between atoms: C_2  and  C_3
REMARK    3  A    between atoms: C_3  and  C_4
REMARK    4  A    between atoms: C_4  and  N_5
REMARK    5  A    between atoms: C_6  and  N_7
REMARK    6  A    between atoms: C_8  and  N_9
REMARK    7  A    between atoms: N_9  and  C_10
REMARK    8  A    between atoms: C_10  and  C_11
REMARK    9  A    between atoms: C_11  and  O_12
REMARK   10  A    between atoms: O_12  and  C_13
REMARK   11  A    between atoms: C_14  and  C_16
REMARK   12  A    between atoms: C_25  and  C_26
REMARK                            x       y       z     vdW  Elec       q    Type
REMARK                         _______ _______ _______ _____ _____    ______ ____
ROOT
ATOM      1  N   UNL     1      -1.475  14.163  20.929  0.00  0.00    +0.000 N 
ATOM      2  C   UNL     1      -2.801  14.729  20.947  0.00  0.00    +0.000 C 
ATOM      3  O   UNL     1      -2.946  15.941  20.741  0.00  0.00    +0.000 OA
ENDROOT
BRANCH   2   4
ATOM      4  C   UNL     1      -3.977  13.906  21.279  0.00  0.00    +0.000 A 
ATOM      5  O   UNL     1      -4.541  13.093  20.322  0.00  0.00    +0.000 OA
ATOM      6  C   UNL     1      -5.652  12.512  20.869  0.00  0.00    +0.000 A 
ATOM      7  C   UNL     1      -6.512  11.590  20.275  0.00  0.00    +0.000 A 
ATOM      8 CL   UNL     1      -6.199  10.846  18.779  0.00  0.00    +0.000 Cl
ATOM      9  C   UNL     1      -7.653  11.209  20.976  0.00  0.00    +0.000 A 
ATOM     10  C   UNL     1      -7.915  11.728  22.237  0.00  0.00    +0.000 A 
ATOM     11  C   UNL     1      -6.995  12.581  22.858  0.00  0.00    +0.000 A 
ATOM     12  C   UNL     1      -5.828  12.960  22.165  0.00  0.00    +0.000 A 
ATOM     13  C   UNL     1      -4.637  13.680  22.492  0.00  0.00    +0.000 A 
ATOM     14  C   UNL     1      -4.227  14.045  23.876  0.00  0.00    +0.000 C 
ENDBRANCH   2   4
BRANCH   1  17
ATOM     15  N   UNL     1      -0.603  10.723  19.865  0.00  0.00    +0.000 N 
ATOM     16  C   UNL     1      -1.142  12.014  19.806  0.00  0.00    +0.000 A 
ATOM     17  C   UNL     1      -1.243  12.777  20.928  0.00  0.00    +0.000 A 
ATOM     18  C   UNL     1      -0.981  12.113  22.246  0.00  0.00    +0.000 A 
ATOM     19  O   UNL     1      -1.044  12.709  23.317  0.00  0.00    +0.000 OA
ATOM     20  N   UNL     1      -0.705  10.774  22.201  0.00  0.00    +0.000 N 
ATOM     21  C   UNL     1      -0.342  10.088  21.084  0.00  0.00    +0.000 A 
ATOM     22  O   UNL     1       0.183   8.977  21.196  0.00  0.00    +0.000 OA
ATOM     23  H   UNL     1      -0.521  10.325  23.081  0.00  0.00    +0.000 HD
BRANCH  16  24
ATOM     24  N   UNL     1      -1.516  12.538  18.574  0.00  0.00    +0.000 N 
ATOM     25  H   UNL     1      -2.503  12.367  18.424  0.00  0.00    +0.000 HD
ATOM     26  H   UNL     1      -1.000  12.087  17.824  0.00  0.00    +0.000 HD
ENDBRANCH  16  24
BRANCH  15  27
ATOM     27  C   UNL     1      -0.140  10.033  18.635  0.00  0.00    +0.000 C 
BRANCH  27  28
ATOM     28  C   UNL     1       1.378  10.158  18.403  0.00  0.00    +0.000 C 
BRANCH  28  30
ATOM     29  C   UNL     1       2.309   7.852  18.673  0.00  0.00    +0.000 C 
ATOM     30  C   UNL     1       2.040   8.989  17.686  0.00  0.00    +0.000 C 
ENDBRANCH  28  30
ENDBRANCH  27  28
ENDBRANCH  15  27
ENDBRANCH   1  17
BRANCH   1  31
ATOM     31  C   UNL     1      -0.403  15.168  20.856  0.00  0.00    +0.000 C 
BRANCH  31  32
ATOM     32  C   UNL     1       0.928  15.107  21.629  0.00  0.00    +0.000 C 
BRANCH  32  33
ATOM     33  O   UNL     1       2.074  15.587  20.930  0.00  0.00    +0.000 OA
ATOM     34  C   UNL     1       1.748  16.456  19.853  0.00  0.00    +0.000 C 
ENDBRANCH  32  33
ENDBRANCH  31  32
ENDBRANCH   1  31
TORSDOF 9
ENDMDL
