MODEL 1
REMARK VINA RESULT:      -7.2      0.000      0.000
REMARK  Name = 
REMARK  10 active torsions:
REMARK  status: ('A' for Active; 'I' for Inactive)
REMARK    1  A    between atoms: C_1  and  C_2
REMARK    2  A    between atoms: C_2  and  C_3
REMARK    3  A    between atoms: C_2  and  N_4
REMARK    4  A    between atoms: C_7  and  N_8
REMARK    5  A    between atoms: N_8  and  C_9
REMARK    6  A    between atoms: C_9  and  C_10
REMARK    7  A    between atoms: C_15  and  N_16
REMARK    8  A    between atoms: N_16  and  C_17
REMARK    9  A    between atoms: N_16  and  C_18
REMARK   10  A    between atoms: C_18  and  C_19
REMARK                            x       y       z     vdW  Elec       q    Type
REMARK                         _______ _______ _______ _____ _____    ______ ____
ROOT
ATOM      1  C   UNL     1       5.552   4.304  15.342  0.00  0.00    +0.000 A 
ATOM      2  C   UNL     1       5.415   3.812  14.022  0.00  0.00    +0.000 A 
ATOM      3  C   UNL     1       6.383   4.057  13.063  0.00  0.00    +0.000 A 
ATOM      4  C   UNL     1       7.466   4.807  13.450  0.00  0.00    +0.000 A 
ATOM      5  N   UNL     1       7.637   5.281  14.699  0.00  0.00    +0.000 NA
ATOM      6  C   UNL     1       6.722   5.017  15.668  0.00  0.00    +0.000 A 
ENDROOT
BRANCH   6   7
ATOM      7  N   UNL     1       7.055   5.504  16.913  0.00  0.00    +0.000 N 
ATOM      8  C   UNL     1       7.692   4.730  17.960  0.00  0.00    +0.000 C 
BRANCH   7   9
ATOM      9  C   UNL     1       6.495   6.804  17.289  0.00  0.00    +0.000 C 
BRANCH   9  10
ATOM     10  C   UNL     1       5.100   6.758  17.885  0.00  0.00    +0.000 A 
ATOM     11  C   UNL     1       4.781   6.007  19.024  0.00  0.00    +0.000 A 
ATOM     12  C   UNL     1       3.488   6.014  19.550  0.00  0.00    +0.000 A 
ATOM     13  C   UNL     1       2.493   6.783  18.948  0.00  0.00    +0.000 A 
ATOM     14  C   UNL     1       2.792   7.545  17.824  0.00  0.00    +0.000 A 
ATOM     15  C   UNL     1       4.087   7.533  17.294  0.00  0.00    +0.000 A 
ENDBRANCH   9  10
ENDBRANCH   7   9
ENDBRANCH   6   7
BRANCH   1  16
ATOM     16  C   UNL     1       4.390   4.006  16.264  0.00  0.00    +0.000 C 
BRANCH  16  17
ATOM     17  N   UNL     1       4.653   3.143  17.414  0.00  0.00    +0.000 NA
ATOM     18  H   UNL     1       5.649   2.954  17.471  0.00  0.00    +0.000 HD
BRANCH  17  22
ATOM     19  N   UNL     1       1.950   2.231  19.673  0.00  0.00    +0.000 NA
ATOM     20  C   UNL     1       1.766   2.954  18.397  0.00  0.00    +0.000 C 
ATOM     21  C   UNL     1       2.398   2.214  17.214  0.00  0.00    +0.000 C 
ATOM     22  C   UNL     1       3.877   1.897  17.453  0.00  0.00    +0.000 C 
ATOM     23  C   UNL     1       3.999   1.158  18.779  0.00  0.00    +0.000 C 
ATOM     24  C   UNL     1       3.376   1.957  19.921  0.00  0.00    +0.000 C 
BRANCH  19  26
ATOM     25  C   UNL     1       2.321   3.263  21.906  0.00  0.00    +0.000 C 
ATOM     26  C   UNL     1       1.300   2.943  20.802  0.00  0.00    +0.000 C 
ATOM     27  C   UNL     1       0.652   4.272  20.378  0.00  0.00    +0.000 C 
ENDBRANCH  19  26
ENDBRANCH  17  22
ENDBRANCH  16  17
ENDBRANCH   1  16
TORSDOF 7
ENDMDL
MODEL 2
REMARK VINA RESULT:      -7.1      1.682      5.686
REMARK  Name = 
REMARK  10 active torsions:
REMARK  status: ('A' for Active; 'I' for Inactive)
REMARK    1  A    between atoms: C_1  and  C_2
REMARK    2  A    between atoms: C_2  and  C_3
REMARK    3  A    between atoms: C_2  and  N_4
REMARK    4  A    between atoms: C_7  and  N_8
REMARK    5  A    between atoms: N_8  and  C_9
REMARK    6  A    between atoms: C_9  and  C_10
REMARK    7  A    between atoms: C_15  and  N_16
REMARK    8  A    between atoms: N_16  and  C_17
REMARK    9  A    between atoms: N_16  and  C_18
REMARK   10  A    between atoms: C_18  and  C_19
REMARK                            x       y       z     vdW  Elec       q    Type
REMARK                         _______ _______ _______ _____ _____    ______ ____
ROOT
ATOM      1  C   UNL     1       2.608   3.576  18.052  0.00  0.00    +0.000 A 
ATOM      2  C   UNL     1       1.775   2.451  17.840  0.00  0.00    +0.000 A 
ATOM      3  C   UNL     1       1.032   1.906  18.874  0.00  0.00    +0.000 A 
ATOM      4  C   UNL     1       1.156   2.497  20.107  0.00  0.00    +0.000 A 
ATOM      5  N   UNL     1       1.928   3.575  20.344  0.00  0.00    +0.000 NA
ATOM      6  C   UNL     1       2.632   4.153  19.335  0.00  0.00    +0.000 A 
ENDROOT
BRANCH   6   7
ATOM      7  N   UNL     1       3.325   5.287  19.703  0.00  0.00    +0.000 N 
ATOM      8  C   UNL     1       4.763   5.440  19.615  0.00  0.00    +0.000 C 
BRANCH   7   9
ATOM      9  C   UNL     1       2.591   6.294  20.471  0.00  0.00    +0.000 C 
BRANCH   9  10
ATOM     10  C   UNL     1       2.142   7.509  19.679  0.00  0.00    +0.000 A 
ATOM     11  C   UNL     1       2.433   7.685  18.320  0.00  0.00    +0.000 A 
ATOM     12  C   UNL     1       1.979   8.809  17.628  0.00  0.00    +0.000 A 
ATOM     13  C   UNL     1       1.215   9.773  18.285  0.00  0.00    +0.000 A 
ATOM     14  C   UNL     1       0.905   9.611  19.630  0.00  0.00    +0.000 A 
ATOM     15  C   UNL     1       1.365   8.488  20.325  0.00  0.00    +0.000 A 
ENDBRANCH   9  10
ENDBRANCH   7   9
ENDBRANCH   6   7
BRANCH   1  16
ATOM     16  C   UNL     1       3.401   4.025  16.845  0.00  0.00    +0.000 C 
BRANCH  16  17
ATOM     17  N   UNL     1       4.799   3.603  16.767  0.00  0.00    +0.000 NA
ATOM     18  H   UNL     1       5.249   3.768  17.662  0.00  0.00    +0.000 HD
BRANCH  17  22
ATOM     19  N   UNL     1       6.980   6.514  16.855  0.00  0.00    +0.000 NA
ATOM     20  C   UNL     1       7.417   5.133  17.149  0.00  0.00    +0.000 C 
ATOM     21  C   UNL     1       7.062   4.159  16.021  0.00  0.00    +0.000 C 
ATOM     22  C   UNL     1       5.573   4.197  15.669  0.00  0.00    +0.000 C 
ATOM     23  C   UNL     1       5.186   5.643  15.381  0.00  0.00    +0.000 C 
ATOM     24  C   UNL     1       5.539   6.557  16.551  0.00  0.00    +0.000 C 
BRANCH  19  26
ATOM     25  C   UNL     1       8.257   6.747  18.977  0.00  0.00    +0.000 C 
ATOM     26  C   UNL     1       7.364   7.450  17.940  0.00  0.00    +0.000 C 
ATOM     27  C   UNL     1       8.137   8.678  17.429  0.00  0.00    +0.000 C 
ENDBRANCH  19  26
ENDBRANCH  17  22
ENDBRANCH  16  17
ENDBRANCH   1  16
TORSDOF 7
ENDMDL
MODEL 3
REMARK VINA RESULT:      -7.0      4.845      7.552
REMARK  Name = 
REMARK  10 active torsions:
REMARK  status: ('A' for Active; 'I' for Inactive)
REMARK    1  A    between atoms: C_1  and  C_2
REMARK    2  A    between atoms: C_2  and  C_3
REMARK    3  A    between atoms: C_2  and  N_4
REMARK    4  A    between atoms: C_7  and  N_8
REMARK    5  A    between atoms: N_8  and  C_9
REMARK    6  A    between atoms: C_9  and  C_10
REMARK    7  A    between atoms: C_15  and  N_16
REMARK    8  A    between atoms: N_16  and  C_17
REMARK    9  A    between atoms: N_16  and  C_18
REMARK   10  A    between atoms: C_18  and  C_19
REMARK                            x       y       z     vdW  Elec       q    Type
REMARK                         _______ _______ _______ _____ _____    ______ ____
ROOT
ATOM      1  C   UNL     1       0.936   9.219  20.721  0.00  0.00    +0.000 A 
ATOM      2  C   UNL     1       0.333   8.364  21.676  0.00  0.00    +0.000 A 
ATOM      3  C   UNL     1      -0.417   8.875  22.721  0.00  0.00    +0.000 A 
ATOM      4  C   UNL     1      -0.533  10.241  22.793  0.00  0.00    +0.000 A 
ATOM      5  N   UNL     1       0.015  11.085  21.898  0.00  0.00    +0.000 NA
ATOM      6  C   UNL     1       0.719  10.605  20.839  0.00  0.00    +0.000 A 
ENDROOT
BRANCH   6   7
ATOM      7  N   UNL     1       1.165  11.574  19.966  0.00  0.00    +0.000 N 
ATOM      8  C   UNL     1       1.816  12.806  20.363  0.00  0.00    +0.000 C 
BRANCH   7   9
ATOM      9  C   UNL     1       0.719  11.471  18.575  0.00  0.00    +0.000 C 
BRANCH   9  10
ATOM     10  C   UNL     1      -0.765  11.210  18.390  0.00  0.00    +0.000 A 
ATOM     11  C   UNL     1      -1.265  10.068  17.750  0.00  0.00    +0.000 A 
ATOM     12  C   UNL     1      -2.639   9.860  17.624  0.00  0.00    +0.000 A 
ATOM     13  C   UNL     1      -3.538  10.788  18.147  0.00  0.00    +0.000 A 
ATOM     14  C   UNL     1      -3.062  11.921  18.797  0.00  0.00    +0.000 A 
ATOM     15  C   UNL     1      -1.685  12.133  18.918  0.00  0.00    +0.000 A 
ENDBRANCH   9  10
ENDBRANCH   7   9
ENDBRANCH   6   7
BRANCH   1  16
ATOM     16  C   UNL     1       1.771   8.522  19.670  0.00  0.00    +0.000 C 
BRANCH  16  17
ATOM     17  N   UNL     1       2.337   7.220  20.020  0.00  0.00    +0.000 NA
ATOM     18  H   UNL     1       2.847   7.300  20.894  0.00  0.00    +0.000 HD
BRANCH  17  22
ATOM     19  N   UNL     1       2.554   3.704  19.106  0.00  0.00    +0.000 NA
ATOM     20  C   UNL     1       1.580   4.659  18.534  0.00  0.00    +0.000 C 
ATOM     21  C   UNL     1       2.259   5.905  17.958  0.00  0.00    +0.000 C 
ATOM     22  C   UNL     1       3.165   6.597  18.980  0.00  0.00    +0.000 C 
ATOM     23  C   UNL     1       4.140   5.564  19.532  0.00  0.00    +0.000 C 
ATOM     24  C   UNL     1       3.403   4.361  20.115  0.00  0.00    +0.000 C 
BRANCH  19  26
ATOM     25  C   UNL     1       1.445   2.688  21.087  0.00  0.00    +0.000 C 
ATOM     26  C   UNL     1       1.883   2.487  19.626  0.00  0.00    +0.000 C 
ATOM     27  C   UNL     1       0.631   2.102  18.821  0.00  0.00    +0.000 C 
ENDBRANCH  19  26
ENDBRANCH  17  22
ENDBRANCH  16  17
ENDBRANCH   1  16
TORSDOF 7
ENDMDL
MODEL 4
REMARK VINA RESULT:      -7.0      2.008      5.797
REMARK  Name = 
REMARK  10 active torsions:
REMARK  status: ('A' for Active; 'I' for Inactive)
REMARK    1  A    between atoms: C_1  and  C_2
REMARK    2  A    between atoms: C_2  and  C_3
REMARK    3  A    between atoms: C_2  and  N_4
REMARK    4  A    between atoms: C_7  and  N_8
REMARK    5  A    between atoms: N_8  and  C_9
REMARK    6  A    between atoms: C_9  and  C_10
REMARK    7  A    between atoms: C_15  and  N_16
REMARK    8  A    between atoms: N_16  and  C_17
REMARK    9  A    between atoms: N_16  and  C_18
REMARK   10  A    between atoms: C_18  and  C_19
REMARK                            x       y       z     vdW  Elec       q    Type
REMARK                         _______ _______ _______ _____ _____    ______ ____
ROOT
ATOM      1  C   UNL     1       6.104   6.353  17.507  0.00  0.00    +0.000 A 
ATOM      2  C   UNL     1       7.381   6.916  17.749  0.00  0.00    +0.000 A 
ATOM      3  C   UNL     1       8.097   6.598  18.890  0.00  0.00    +0.000 A 
ATOM      4  C   UNL     1       7.507   5.728  19.773  0.00  0.00    +0.000 A 
ATOM      5  N   UNL     1       6.301   5.163  19.571  0.00  0.00    +0.000 NA
ATOM      6  C   UNL     1       5.598   5.427  18.438  0.00  0.00    +0.000 A 
ENDROOT
BRANCH   6   7
ATOM      7  N   UNL     1       4.413   4.730  18.329  0.00  0.00    +0.000 N 
ATOM      8  C   UNL     1       4.276   3.300  18.517  0.00  0.00    +0.000 C 
BRANCH   7   9
ATOM      9  C   UNL     1       3.279   5.439  17.732  0.00  0.00    +0.000 C 
BRANCH   9  10
ATOM     10  C   UNL     1       2.649   6.505  18.609  0.00  0.00    +0.000 A 
ATOM     11  C   UNL     1       2.373   7.802  18.155  0.00  0.00    +0.000 A 
ATOM     12  C   UNL     1       1.771   8.743  18.992  0.00  0.00    +0.000 A 
ATOM     13  C   UNL     1       1.425   8.397  20.298  0.00  0.00    +0.000 A 
ATOM     14  C   UNL     1       1.680   7.112  20.763  0.00  0.00    +0.000 A 
ATOM     15  C   UNL     1       2.289   6.171  19.927  0.00  0.00    +0.000 A 
ENDBRANCH   9  10
ENDBRANCH   7   9
ENDBRANCH   6   7
BRANCH   1  16
ATOM     16  C   UNL     1       5.416   6.837  16.250  0.00  0.00    +0.000 C 
BRANCH  16  17
ATOM     17  N   UNL     1       5.648   6.072  15.024  0.00  0.00    +0.000 NA
ATOM     18  H   UNL     1       4.774   5.655  14.720  0.00  0.00    +0.000 HD
BRANCH  17  22
ATOM     19  N   UNL     1       6.385   3.365  12.707  0.00  0.00    +0.000 NA
ATOM     20  C   UNL     1       6.930   4.735  12.594  0.00  0.00    +0.000 C 
ATOM     21  C   UNL     1       7.624   5.192  13.881  0.00  0.00    +0.000 C 
ATOM     22  C   UNL     1       6.714   5.066  15.106  0.00  0.00    +0.000 C 
ATOM     23  C   UNL     1       6.184   3.639  15.164  0.00  0.00    +0.000 C 
ATOM     24  C   UNL     1       5.481   3.253  13.865  0.00  0.00    +0.000 C 
BRANCH  19  26
ATOM     25  C   UNL     1       5.935   1.413  11.232  0.00  0.00    +0.000 C 
ATOM     26  C   UNL     1       5.749   2.926  11.440  0.00  0.00    +0.000 C 
ATOM     27  C   UNL     1       4.238   3.211  11.397  0.00  0.00    +0.000 C 
ENDBRANCH  19  26
ENDBRANCH  17  22
ENDBRANCH  16  17
ENDBRANCH   1  16
TORSDOF 7
ENDMDL
MODEL 5
REMARK VINA RESULT:      -7.0      2.804      6.168
REMARK  Name = 
REMARK  10 active torsions:
REMARK  status: ('A' for Active; 'I' for Inactive)
REMARK    1  A    between atoms: C_1  and  C_2
REMARK    2  A    between atoms: C_2  and  C_3
REMARK    3  A    between atoms: C_2  and  N_4
REMARK    4  A    between atoms: C_7  and  N_8
REMARK    5  A    between atoms: N_8  and  C_9
REMARK    6  A    between atoms: C_9  and  C_10
REMARK    7  A    between atoms: C_15  and  N_16
REMARK    8  A    between atoms: N_16  and  C_17
REMARK    9  A    between atoms: N_16  and  C_18
REMARK   10  A    between atoms: C_18  and  C_19
REMARK                            x       y       z     vdW  Elec       q    Type
REMARK                         _______ _______ _______ _____ _____    ______ ____
ROOT
ATOM      1  C   UNL     1       2.160   4.214  19.093  0.00  0.00    +0.000 A 
ATOM      2  C   UNL     1       1.113   4.094  20.039  0.00  0.00    +0.000 A 
ATOM      3  C   UNL     1       1.257   3.306  21.168  0.00  0.00    +0.000 A 
ATOM      4  C   UNL     1       2.449   2.640  21.314  0.00  0.00    +0.000 A 
ATOM      5  N   UNL     1       3.472   2.739  20.443  0.00  0.00    +0.000 NA
ATOM      6  C   UNL     1       3.370   3.542  19.350  0.00  0.00    +0.000 A 
ENDROOT
BRANCH   6   7
ATOM      7  N   UNL     1       4.512   3.602  18.581  0.00  0.00    +0.000 N 
ATOM      8  C   UNL     1       4.662   2.992  17.275  0.00  0.00    +0.000 C 
BRANCH   7   9
ATOM      9  C   UNL     1       5.728   4.087  19.236  0.00  0.00    +0.000 C 
BRANCH   9  10
ATOM     10  C   UNL     1       6.319   5.354  18.645  0.00  0.00    +0.000 A 
ATOM     11  C   UNL     1       7.564   5.868  19.030  0.00  0.00    +0.000 A 
ATOM     12  C   UNL     1       8.077   7.025  18.441  0.00  0.00    +0.000 A 
ATOM     13  C   UNL     1       7.354   7.682  17.447  0.00  0.00    +0.000 A 
ATOM     14  C   UNL     1       6.123   7.181  17.041  0.00  0.00    +0.000 A 
ATOM     15  C   UNL     1       5.606   6.026  17.636  0.00  0.00    +0.000 A 
ENDBRANCH   9  10
ENDBRANCH   7   9
ENDBRANCH   6   7
BRANCH   1  16
ATOM     16  C   UNL     1       1.839   5.063  17.883  0.00  0.00    +0.000 C 
BRANCH  16  17
ATOM     17  N   UNL     1       1.440   6.449  18.125  0.00  0.00    +0.000 NA
ATOM     18  H   UNL     1       1.051   6.840  17.273  0.00  0.00    +0.000 HD
BRANCH  17  22
ATOM     19  N   UNL     1       1.160   9.888  19.280  0.00  0.00    +0.000 NA
ATOM     20  C   UNL     1       0.930   8.700  20.129  0.00  0.00    +0.000 C 
ATOM     21  C   UNL     1       2.114   7.728  20.099  0.00  0.00    +0.000 C 
ATOM     22  C   UNL     1       2.491   7.316  18.674  0.00  0.00    +0.000 C 
ATOM     23  C   UNL     1       2.710   8.581  17.852  0.00  0.00    +0.000 C 
ATOM     24  C   UNL     1       1.487   9.493  17.899  0.00  0.00    +0.000 C 
BRANCH  19  26
ATOM     25  C   UNL     1       0.426  12.219  18.815  0.00  0.00    +0.000 C 
ATOM     26  C   UNL     1       0.019  10.836  19.349  0.00  0.00    +0.000 C 
ATOM     27  C   UNL     1      -1.197  10.369  18.532  0.00  0.00    +0.000 C 
ENDBRANCH  19  26
ENDBRANCH  17  22
ENDBRANCH  16  17
ENDBRANCH   1  16
TORSDOF 7
ENDMDL
MODEL 6
REMARK VINA RESULT:      -6.9      5.042      8.120
REMARK  Name = 
REMARK  10 active torsions:
REMARK  status: ('A' for Active; 'I' for Inactive)
REMARK    1  A    between atoms: C_1  and  C_2
REMARK    2  A    between atoms: C_2  and  C_3
REMARK    3  A    between atoms: C_2  and  N_4
REMARK    4  A    between atoms: C_7  and  N_8
REMARK    5  A    between atoms: N_8  and  C_9
REMARK    6  A    between atoms: C_9  and  C_10
REMARK    7  A    between atoms: C_15  and  N_16
REMARK    8  A    between atoms: N_16  and  C_17
REMARK    9  A    between atoms: N_16  and  C_18
REMARK   10  A    between atoms: C_18  and  C_19
REMARK                            x       y       z     vdW  Elec       q    Type
REMARK                         _______ _______ _______ _____ _____    ______ ____
ROOT
ATOM      1  C   UNL     1       0.960   9.065  20.476  0.00  0.00    +0.000 A 
ATOM      2  C   UNL     1       0.936   8.602  21.814  0.00  0.00    +0.000 A 
ATOM      3  C   UNL     1       0.218   9.271  22.789  0.00  0.00    +0.000 A 
ATOM      4  C   UNL     1      -0.451  10.406  22.401  0.00  0.00    +0.000 A 
ATOM      5  N   UNL     1      -0.461  10.870  21.136  0.00  0.00    +0.000 NA
ATOM      6  C   UNL     1       0.200  10.205  20.153  0.00  0.00    +0.000 A 
ENDROOT
BRANCH   6   7
ATOM      7  N   UNL     1       0.050  10.752  18.896  0.00  0.00    +0.000 N 
ATOM      8  C   UNL     1       0.312  12.137  18.562  0.00  0.00    +0.000 C 
BRANCH   7   9
ATOM      9  C   UNL     1      -0.667   9.948  17.904  0.00  0.00    +0.000 C 
BRANCH   9  10
ATOM     10  C   UNL     1      -2.038  10.472  17.517  0.00  0.00    +0.000 A 
ATOM     11  C   UNL     1      -2.913  11.072  18.433  0.00  0.00    +0.000 A 
ATOM     12  C   UNL     1      -4.155  11.560  18.025  0.00  0.00    +0.000 A 
ATOM     13  C   UNL     1      -4.539  11.465  16.689  0.00  0.00    +0.000 A 
ATOM     14  C   UNL     1      -3.680  10.885  15.762  0.00  0.00    +0.000 A 
ATOM     15  C   UNL     1      -2.438  10.390  16.171  0.00  0.00    +0.000 A 
ENDBRANCH   9  10
ENDBRANCH   7   9
ENDBRANCH   6   7
BRANCH   1  16
ATOM     16  C   UNL     1       1.832   8.264  19.533  0.00  0.00    +0.000 C 
BRANCH  16  17
ATOM     17  N   UNL     1       2.541   7.115  20.093  0.00  0.00    +0.000 NA
ATOM     18  H   UNL     1       3.541   7.255  19.988  0.00  0.00    +0.000 HD
BRANCH  17  22
ATOM     19  N   UNL     1       4.517   4.729  18.183  0.00  0.00    +0.000 NA
ATOM     20  C   UNL     1       4.451   4.768  19.659  0.00  0.00    +0.000 C 
ATOM     21  C   UNL     1       3.011   4.714  20.177  0.00  0.00    +0.000 C 
ATOM     22  C   UNL     1       2.132   5.807  19.562  0.00  0.00    +0.000 C 
ATOM     23  C   UNL     1       2.246   5.717  18.046  0.00  0.00    +0.000 C 
ATOM     24  C   UNL     1       3.700   5.804  17.591  0.00  0.00    +0.000 C 
BRANCH  19  26
ATOM     25  C   UNL     1       5.982   4.444  16.193  0.00  0.00    +0.000 C 
ATOM     26  C   UNL     1       5.921   4.745  17.699  0.00  0.00    +0.000 C 
ATOM     27  C   UNL     1       6.617   6.098  17.925  0.00  0.00    +0.000 C 
ENDBRANCH  19  26
ENDBRANCH  17  22
ENDBRANCH  16  17
ENDBRANCH   1  16
TORSDOF 7
ENDMDL
MODEL 7
REMARK VINA RESULT:      -6.9      2.587      6.171
REMARK  Name = 
REMARK  10 active torsions:
REMARK  status: ('A' for Active; 'I' for Inactive)
REMARK    1  A    between atoms: C_1  and  C_2
REMARK    2  A    between atoms: C_2  and  C_3
REMARK    3  A    between atoms: C_2  and  N_4
REMARK    4  A    between atoms: C_7  and  N_8
REMARK    5  A    between atoms: N_8  and  C_9
REMARK    6  A    between atoms: C_9  and  C_10
REMARK    7  A    between atoms: C_15  and  N_16
REMARK    8  A    between atoms: N_16  and  C_17
REMARK    9  A    between atoms: N_16  and  C_18
REMARK   10  A    between atoms: C_18  and  C_19
REMARK                            x       y       z     vdW  Elec       q    Type
REMARK                         _______ _______ _______ _____ _____    ______ ____
ROOT
ATOM      1  C   UNL     1       2.039   3.883  19.274  0.00  0.00    +0.000 A 
ATOM      2  C   UNL     1       0.996   3.673  20.209  0.00  0.00    +0.000 A 
ATOM      3  C   UNL     1       1.218   2.973  21.382  0.00  0.00    +0.000 A 
ATOM      4  C   UNL     1       2.486   2.484  21.584  0.00  0.00    +0.000 A 
ATOM      5  N   UNL     1       3.505   2.675  20.725  0.00  0.00    +0.000 NA
ATOM      6  C   UNL     1       3.322   3.396  19.588  0.00  0.00    +0.000 A 
ENDROOT
BRANCH   6   7
ATOM      7  N   UNL     1       4.463   3.570  18.835  0.00  0.00    +0.000 N 
ATOM      8  C   UNL     1       5.576   4.420  19.207  0.00  0.00    +0.000 C 
BRANCH   7   9
ATOM      9  C   UNL     1       4.432   3.072  17.458  0.00  0.00    +0.000 C 
BRANCH   9  10
ATOM     10  C   UNL     1       5.124   3.957  16.436  0.00  0.00    +0.000 A 
ATOM     11  C   UNL     1       6.097   3.479  15.548  0.00  0.00    +0.000 A 
ATOM     12  C   UNL     1       6.689   4.325  14.609  0.00  0.00    +0.000 A 
ATOM     13  C   UNL     1       6.308   5.665  14.537  0.00  0.00    +0.000 A 
ATOM     14  C   UNL     1       5.336   6.155  15.402  0.00  0.00    +0.000 A 
ATOM     15  C   UNL     1       4.747   5.308  16.346  0.00  0.00    +0.000 A 
ENDBRANCH   9  10
ENDBRANCH   7   9
ENDBRANCH   6   7
BRANCH   1  16
ATOM     16  C   UNL     1       1.634   4.616  18.014  0.00  0.00    +0.000 C 
BRANCH  16  17
ATOM     17  N   UNL     1       1.404   6.056  18.121  0.00  0.00    +0.000 NA
ATOM     18  H   UNL     1       1.101   6.415  17.222  0.00  0.00    +0.000 HD
BRANCH  17  22
ATOM     19  N   UNL     1       1.434   9.508  19.273  0.00  0.00    +0.000 NA
ATOM     20  C   UNL     1       1.124   8.343  20.129  0.00  0.00    +0.000 C 
ATOM     21  C   UNL     1       2.222   7.276  20.078  0.00  0.00    +0.000 C 
ATOM     22  C   UNL     1       2.534   6.833  18.647  0.00  0.00    +0.000 C 
ATOM     23  C   UNL     1       2.841   8.074  17.818  0.00  0.00    +0.000 C 
ATOM     24  C   UNL     1       1.700   9.085  17.886  0.00  0.00    +0.000 C 
BRANCH  19  26
ATOM     25  C   UNL     1      -0.702  10.320  18.291  0.00  0.00    +0.000 C 
ATOM     26  C   UNL     1       0.378  10.546  19.362  0.00  0.00    +0.000 C 
ATOM     27  C   UNL     1      -0.328  10.567  20.728  0.00  0.00    +0.000 C 
ENDBRANCH  19  26
ENDBRANCH  17  22
ENDBRANCH  16  17
ENDBRANCH   1  16
TORSDOF 7
ENDMDL
MODEL 8
REMARK VINA RESULT:      -6.9      4.891      7.605
REMARK  Name = 
REMARK  10 active torsions:
REMARK  status: ('A' for Active; 'I' for Inactive)
REMARK    1  A    between atoms: C_1  and  C_2
REMARK    2  A    between atoms: C_2  and  C_3
REMARK    3  A    between atoms: C_2  and  N_4
REMARK    4  A    between atoms: C_7  and  N_8
REMARK    5  A    between atoms: N_8  and  C_9
REMARK    6  A    between atoms: C_9  and  C_10
REMARK    7  A    between atoms: C_15  and  N_16
REMARK    8  A    between atoms: N_16  and  C_17
REMARK    9  A    between atoms: N_16  and  C_18
REMARK   10  A    between atoms: C_18  and  C_19
REMARK                            x       y       z     vdW  Elec       q    Type
REMARK                         _______ _______ _______ _____ _____    ______ ____
ROOT
ATOM      1  C   UNL     1       1.010   9.313  20.351  0.00  0.00    +0.000 A 
ATOM      2  C   UNL     1       0.772   8.511  21.494  0.00  0.00    +0.000 A 
ATOM      3  C   UNL     1       0.138   9.028  22.610  0.00  0.00    +0.000 A 
ATOM      4  C   UNL     1      -0.231  10.350  22.560  0.00  0.00    +0.000 A 
ATOM      5  N   UNL     1      -0.033  11.140  21.487  0.00  0.00    +0.000 NA
ATOM      6  C   UNL     1       0.548  10.643  20.364  0.00  0.00    +0.000 A 
ENDROOT
BRANCH   6   7
ATOM      7  N   UNL     1       0.627  11.540  19.320  0.00  0.00    +0.000 N 
ATOM      8  C   UNL     1       1.862  11.990  18.710  0.00  0.00    +0.000 C 
BRANCH   7   9
ATOM      9  C   UNL     1      -0.592  12.279  18.986  0.00  0.00    +0.000 C 
BRANCH   9  10
ATOM     10  C   UNL     1      -1.688  11.456  18.335  0.00  0.00    +0.000 A 
ATOM     11  C   UNL     1      -3.052  11.690  18.556  0.00  0.00    +0.000 A 
ATOM     12  C   UNL     1      -4.025  10.921  17.916  0.00  0.00    +0.000 A 
ATOM     13  C   UNL     1      -3.648   9.909  17.034  0.00  0.00    +0.000 A 
ATOM     14  C   UNL     1      -2.300   9.669  16.791  0.00  0.00    +0.000 A 
ATOM     15  C   UNL     1      -1.325  10.436  17.437  0.00  0.00    +0.000 A 
ENDBRANCH   9  10
ENDBRANCH   7   9
ENDBRANCH   6   7
BRANCH   1  16
ATOM     16  C   UNL     1       1.762   8.629  19.231  0.00  0.00    +0.000 C 
BRANCH  16  17
ATOM     17  N   UNL     1       2.209   7.257  19.465  0.00  0.00    +0.000 NA
ATOM     18  H   UNL     1       2.900   7.253  20.209  0.00  0.00    +0.000 HD
BRANCH  17  22
ATOM     19  N   UNL     1       3.081   3.740  19.130  0.00  0.00    +0.000 NA
ATOM     20  C   UNL     1       1.725   4.291  18.913  0.00  0.00    +0.000 C 
ATOM     21  C   UNL     1       1.721   5.440  17.901  0.00  0.00    +0.000 C 
ATOM     22  C   UNL     1       2.706   6.549  18.278  0.00  0.00    +0.000 C 
ATOM     23  C   UNL     1       4.077   5.919  18.490  0.00  0.00    +0.000 C 
ATOM     24  C   UNL     1       4.022   4.802  19.527  0.00  0.00    +0.000 C 
BRANCH  19  26
ATOM     25  C   UNL     1       4.488   2.100  20.361  0.00  0.00    +0.000 C 
ATOM     26  C   UNL     1       3.062   2.604  20.085  0.00  0.00    +0.000 C 
ATOM     27  C   UNL     1       2.435   2.972  21.440  0.00  0.00    +0.000 C 
ENDBRANCH  19  26
ENDBRANCH  17  22
ENDBRANCH  16  17
ENDBRANCH   1  16
TORSDOF 7
ENDMDL
MODEL 9
REMARK VINA RESULT:      -6.8      4.861      7.984
REMARK  Name = 
REMARK  10 active torsions:
REMARK  status: ('A' for Active; 'I' for Inactive)
REMARK    1  A    between atoms: C_1  and  C_2
REMARK    2  A    between atoms: C_2  and  C_3
REMARK    3  A    between atoms: C_2  and  N_4
REMARK    4  A    between atoms: C_7  and  N_8
REMARK    5  A    between atoms: N_8  and  C_9
REMARK    6  A    between atoms: C_9  and  C_10
REMARK    7  A    between atoms: C_15  and  N_16
REMARK    8  A    between atoms: N_16  and  C_17
REMARK    9  A    between atoms: N_16  and  C_18
REMARK   10  A    between atoms: C_18  and  C_19
REMARK                            x       y       z     vdW  Elec       q    Type
REMARK                         _______ _______ _______ _____ _____    ______ ____
ROOT
ATOM      1  C   UNL     1       1.045   9.126  20.529  0.00  0.00    +0.000 A 
ATOM      2  C   UNL     1       0.724   8.527  21.772  0.00  0.00    +0.000 A 
ATOM      3  C   UNL     1       0.072   9.241  22.762  0.00  0.00    +0.000 A 
ATOM      4  C   UNL     1      -0.232  10.552  22.487  0.00  0.00    +0.000 A 
ATOM      5  N   UNL     1       0.045  11.152  21.313  0.00  0.00    +0.000 NA
ATOM      6  C   UNL     1       0.645  10.458  20.310  0.00  0.00    +0.000 A 
ENDROOT
BRANCH   6   7
ATOM      7  N   UNL     1       0.808  11.173  19.143  0.00  0.00    +0.000 N 
ATOM      8  C   UNL     1       2.049  11.271  18.401  0.00  0.00    +0.000 C 
BRANCH   7   9
ATOM      9  C   UNL     1      -0.265  12.098  18.776  0.00  0.00    +0.000 C 
BRANCH   9  10
ATOM     10  C   UNL     1      -1.554  11.442  18.313  0.00  0.00    +0.000 A 
ATOM     11  C   UNL     1      -2.823  11.926  18.657  0.00  0.00    +0.000 A 
ATOM     12  C   UNL     1      -3.980  11.302  18.188  0.00  0.00    +0.000 A 
ATOM     13  C   UNL     1      -3.885  10.187  17.357  0.00  0.00    +0.000 A 
ATOM     14  C   UNL     1      -2.635   9.699  16.994  0.00  0.00    +0.000 A 
ATOM     15  C   UNL     1      -1.476  10.320  17.469  0.00  0.00    +0.000 A 
ENDBRANCH   9  10
ENDBRANCH   7   9
ENDBRANCH   6   7
BRANCH   1  16
ATOM     16  C   UNL     1       1.807   8.242  19.567  0.00  0.00    +0.000 C 
BRANCH  16  17
ATOM     17  N   UNL     1       2.448   7.049  20.119  0.00  0.00    +0.000 NA
ATOM     18  H   UNL     1       3.419   7.258  20.329  0.00  0.00    +0.000 HD
BRANCH  17  22
ATOM     19  N   UNL     1       5.016   5.426  18.115  0.00  0.00    +0.000 NA
ATOM     20  C   UNL     1       4.767   5.143  19.545  0.00  0.00    +0.000 C 
ATOM     21  C   UNL     1       3.305   4.777  19.819  0.00  0.00    +0.000 C 
ATOM     22  C   UNL     1       2.334   5.838  19.295  0.00  0.00    +0.000 C 
ATOM     23  C   UNL     1       2.643   6.086  17.824  0.00  0.00    +0.000 C 
ATOM     24  C   UNL     1       4.105   6.473  17.620  0.00  0.00    +0.000 C 
BRANCH  19  26
ATOM     25  C   UNL     1       7.243   5.741  19.176  0.00  0.00    +0.000 C 
ATOM     26  C   UNL     1       6.443   5.742  17.863  0.00  0.00    +0.000 C 
ATOM     27  C   UNL     1       7.120   4.741  16.913  0.00  0.00    +0.000 C 
ENDBRANCH  19  26
ENDBRANCH  17  22
ENDBRANCH  16  17
ENDBRANCH   1  16
TORSDOF 7
ENDMDL
