MODEL 1
REMARK VINA RESULT:      -6.6      0.000      0.000
REMARK  Name = 
REMARK  12 active torsions:
REMARK  status: ('A' for Active; 'I' for Inactive)
REMARK    1  A    between atoms: C_1  and  C_2
REMARK    2  A    between atoms: C_2  and  C_3
REMARK    3  A    between atoms: C_3  and  C_4
REMARK    4  A    between atoms: C_4  and  C_5
REMARK    5  A    between atoms: C_5  and  O_6
REMARK    6  A    between atoms: O_6  and  C_7
REMARK    7  A    between atoms: C_7  and  C_9
REMARK    8  A    between atoms: C_9  and  C_10
REMARK    9  A    between atoms: C_9  and  C_11
REMARK   10  A    between atoms: C_12  and  C_13
REMARK   11  A    between atoms: C_15  and  S_16
REMARK   12  A    between atoms: C_18  and  O_19
REMARK                            x       y       z     vdW  Elec       q    Type
REMARK                         _______ _______ _______ _____ _____    ______ ____
ROOT
ATOM      1  C   UNL     1       4.578   5.527  17.860  0.00  0.00    +0.000 A 
ATOM      2  C   UNL     1       3.482   6.234  18.372  0.00  0.00    +0.000 A 
ATOM      3  C   UNL     1       3.049   7.584  17.902  0.00  0.00    +0.000 C 
ATOM      4  N   UNL     1       2.700   5.734  19.361  0.00  0.00    +0.000 NA
ATOM      5  C   UNL     1       3.055   4.562  19.916  0.00  0.00    +0.000 A 
ATOM      6  N   UNL     1       4.145   3.869  19.581  0.00  0.00    +0.000 NA
ATOM      7  C   UNL     1       4.860   4.383  18.579  0.00  0.00    +0.000 A 
ENDROOT
BRANCH   1   8
ATOM      8  C   UNL     1       5.416   5.937  16.679  0.00  0.00    +0.000 C 
ATOM      9  C   UNL     1       5.437   4.896  15.529  0.00  0.00    +0.000 C 
BRANCH   8  10
ATOM     10  C   UNL     1       6.859   6.283  17.027  0.00  0.00    +0.000 C 
ATOM     11  O   UNL     1       7.727   5.460  17.282  0.00  0.00    +0.000 OA
BRANCH  10  12
ATOM     12  O   UNL     1       7.045   7.630  17.077  0.00  0.00    +0.000 OA
BRANCH  12  13
ATOM     13  C   UNL     1       8.130   8.090  17.886  0.00  0.00    +0.000 C 
BRANCH  13  14
ATOM     14  C   UNL     1       8.127   9.607  17.945  0.00  0.00    +0.000 C 
BRANCH  14  15
ATOM     15  C   UNL     1       9.135  10.135  18.971  0.00  0.00    +0.000 C 
BRANCH  15  17
ATOM     16  C   UNL     1      11.199  11.520  18.612  0.00  0.00    +0.000 C 
ATOM     17  C   UNL     1       9.679  11.504  18.573  0.00  0.00    +0.000 C 
ENDBRANCH  15  17
ENDBRANCH  14  15
ENDBRANCH  13  14
ENDBRANCH  12  13
ENDBRANCH  10  12
ENDBRANCH   8  10
ENDBRANCH   1   8
BRANCH   5  18
ATOM     18  S   UNL     1       1.995   3.891  21.152  0.00  0.00    +0.000 S 
ATOM     19  H   UNL     1       2.935   3.070  21.639  0.00  0.00    +0.000 HD
ENDBRANCH   5  18
BRANCH   7  20
ATOM     20  O   UNL     1       5.969   3.654  18.313  0.00  0.00    +0.000 OA
ATOM     21  H   UNL     1       6.548   4.335  17.933  0.00  0.00    +0.000 HD
ENDBRANCH   7  20
TORSDOF 9
ENDMDL
MODEL 2
REMARK VINA RESULT:      -6.6      3.504      6.445
REMARK  Name = 
REMARK  12 active torsions:
REMARK  status: ('A' for Active; 'I' for Inactive)
REMARK    1  A    between atoms: C_1  and  C_2
REMARK    2  A    between atoms: C_2  and  C_3
REMARK    3  A    between atoms: C_3  and  C_4
REMARK    4  A    between atoms: C_4  and  C_5
REMARK    5  A    between atoms: C_5  and  O_6
REMARK    6  A    between atoms: O_6  and  C_7
REMARK    7  A    between atoms: C_7  and  C_9
REMARK    8  A    between atoms: C_9  and  C_10
REMARK    9  A    between atoms: C_9  and  C_11
REMARK   10  A    between atoms: C_12  and  C_13
REMARK   11  A    between atoms: C_15  and  S_16
REMARK   12  A    between atoms: C_18  and  O_19
REMARK                            x       y       z     vdW  Elec       q    Type
REMARK                         _______ _______ _______ _____ _____    ______ ____
ROOT
ATOM      1  C   UNL     1       5.263   5.287  17.109  0.00  0.00    +0.000 A 
ATOM      2  C   UNL     1       3.979   4.867  17.478  0.00  0.00    +0.000 A 
ATOM      3  C   UNL     1       3.514   3.447  17.463  0.00  0.00    +0.000 C 
ATOM      4  N   UNL     1       3.027   5.738  17.895  0.00  0.00    +0.000 NA
ATOM      5  C   UNL     1       3.314   7.051  17.863  0.00  0.00    +0.000 A 
ATOM      6  N   UNL     1       4.464   7.560  17.418  0.00  0.00    +0.000 NA
ATOM      7  C   UNL     1       5.380   6.662  17.054  0.00  0.00    +0.000 A 
ENDROOT
BRANCH   1   8
ATOM      8  C   UNL     1       6.420   4.388  16.767  0.00  0.00    +0.000 C 
ATOM      9  C   UNL     1       7.669   4.597  17.661  0.00  0.00    +0.000 C 
BRANCH   8  10
ATOM     10  C   UNL     1       6.864   4.468  15.310  0.00  0.00    +0.000 C 
ATOM     11  O   UNL     1       7.660   5.289  14.873  0.00  0.00    +0.000 OA
BRANCH  10  12
ATOM     12  O   UNL     1       6.217   3.548  14.545  0.00  0.00    +0.000 OA
BRANCH  12  13
ATOM     13  C   UNL     1       5.651   4.026  13.323  0.00  0.00    +0.000 C 
BRANCH  13  14
ATOM     14  C   UNL     1       6.391   3.431  12.139  0.00  0.00    +0.000 C 
BRANCH  14  15
ATOM     15  C   UNL     1       5.632   2.246  11.534  0.00  0.00    +0.000 C 
BRANCH  15  17
ATOM     16  C   UNL     1       6.100  -0.214  11.341  0.00  0.00    +0.000 C 
ATOM     17  C   UNL     1       6.584   1.185  10.991  0.00  0.00    +0.000 C 
ENDBRANCH  15  17
ENDBRANCH  14  15
ENDBRANCH  13  14
ENDBRANCH  12  13
ENDBRANCH  10  12
ENDBRANCH   8  10
ENDBRANCH   1   8
BRANCH   5  18
ATOM     18  S   UNL     1       2.094   8.168  18.470  0.00  0.00    +0.000 S 
ATOM     19  H   UNL     1       1.489   7.238  19.221  0.00  0.00    +0.000 HD
ENDBRANCH   5  18
BRANCH   7  20
ATOM     20  O   UNL     1       6.508   7.241  16.580  0.00  0.00    +0.000 OA
ATOM     21  H   UNL     1       6.437   7.032  15.634  0.00  0.00    +0.000 HD
ENDBRANCH   7  20
TORSDOF 9
ENDMDL
MODEL 3
REMARK VINA RESULT:      -6.6      2.496      5.558
REMARK  Name = 
REMARK  12 active torsions:
REMARK  status: ('A' for Active; 'I' for Inactive)
REMARK    1  A    between atoms: C_1  and  C_2
REMARK    2  A    between atoms: C_2  and  C_3
REMARK    3  A    between atoms: C_3  and  C_4
REMARK    4  A    between atoms: C_4  and  C_5
REMARK    5  A    between atoms: C_5  and  O_6
REMARK    6  A    between atoms: O_6  and  C_7
REMARK    7  A    between atoms: C_7  and  C_9
REMARK    8  A    between atoms: C_9  and  C_10
REMARK    9  A    between atoms: C_9  and  C_11
REMARK   10  A    between atoms: C_12  and  C_13
REMARK   11  A    between atoms: C_15  and  S_16
REMARK   12  A    between atoms: C_18  and  O_19
REMARK                            x       y       z     vdW  Elec       q    Type
REMARK                         _______ _______ _______ _____ _____    ______ ____
ROOT
ATOM      1  C   UNL     1       4.814   5.574  18.026  0.00  0.00    +0.000 A 
ATOM      2  C   UNL     1       3.643   6.310  18.245  0.00  0.00    +0.000 A 
ATOM      3  C   UNL     1       3.361   7.650  17.649  0.00  0.00    +0.000 C 
ATOM      4  N   UNL     1       2.640   5.852  19.034  0.00  0.00    +0.000 NA
ATOM      5  C   UNL     1       2.830   4.693  19.689  0.00  0.00    +0.000 A 
ATOM      6  N   UNL     1       3.954   3.975  19.640  0.00  0.00    +0.000 NA
ATOM      7  C   UNL     1       4.895   4.448  18.823  0.00  0.00    +0.000 A 
ENDROOT
BRANCH   1   8
ATOM      8  C   UNL     1       5.916   5.935  17.066  0.00  0.00    +0.000 C 
ATOM      9  C   UNL     1       6.613   7.283  17.383  0.00  0.00    +0.000 C 
BRANCH   8  10
ATOM     10  C   UNL     1       5.487   5.959  15.603  0.00  0.00    +0.000 C 
ATOM     11  O   UNL     1       5.083   6.954  15.016  0.00  0.00    +0.000 OA
BRANCH  10  12
ATOM     12  O   UNL     1       5.552   4.719  15.048  0.00  0.00    +0.000 OA
BRANCH  12  13
ATOM     13  C   UNL     1       6.616   4.496  14.120  0.00  0.00    +0.000 C 
BRANCH  13  14
ATOM     14  C   UNL     1       6.184   3.494  13.064  0.00  0.00    +0.000 C 
BRANCH  14  15
ATOM     15  C   UNL     1       4.839   3.878  12.437  0.00  0.00    +0.000 C 
BRANCH  15  17
ATOM     16  C   UNL     1       3.348   3.485  10.456  0.00  0.00    +0.000 C 
ATOM     17  C   UNL     1       4.422   2.890  11.353  0.00  0.00    +0.000 C 
ENDBRANCH  15  17
ENDBRANCH  14  15
ENDBRANCH  13  14
ENDBRANCH  12  13
ENDBRANCH  10  12
ENDBRANCH   8  10
ENDBRANCH   1   8
BRANCH   5  18
ATOM     18  S   UNL     1       1.494   4.075  20.656  0.00  0.00    +0.000 S 
ATOM     19  H   UNL     1       0.956   5.287  20.850  0.00  0.00    +0.000 HD
ENDBRANCH   5  18
BRANCH   7  20
ATOM     20  O   UNL     1       6.021   3.697  18.846  0.00  0.00    +0.000 OA
ATOM     21  H   UNL     1       6.700   4.388  18.925  0.00  0.00    +0.000 HD
ENDBRANCH   7  20
TORSDOF 9
ENDMDL
MODEL 4
REMARK VINA RESULT:      -6.5      2.581      3.834
REMARK  Name = 
REMARK  12 active torsions:
REMARK  status: ('A' for Active; 'I' for Inactive)
REMARK    1  A    between atoms: C_1  and  C_2
REMARK    2  A    between atoms: C_2  and  C_3
REMARK    3  A    between atoms: C_3  and  C_4
REMARK    4  A    between atoms: C_4  and  C_5
REMARK    5  A    between atoms: C_5  and  O_6
REMARK    6  A    between atoms: O_6  and  C_7
REMARK    7  A    between atoms: C_7  and  C_9
REMARK    8  A    between atoms: C_9  and  C_10
REMARK    9  A    between atoms: C_9  and  C_11
REMARK   10  A    between atoms: C_12  and  C_13
REMARK   11  A    between atoms: C_15  and  S_16
REMARK   12  A    between atoms: C_18  and  O_19
REMARK                            x       y       z     vdW  Elec       q    Type
REMARK                         _______ _______ _______ _____ _____    ______ ____
ROOT
ATOM      1  C   UNL     1       2.837   5.401  18.985  0.00  0.00    +0.000 A 
ATOM      2  C   UNL     1       2.913   6.751  18.620  0.00  0.00    +0.000 A 
ATOM      3  C   UNL     1       3.672   7.269  17.442  0.00  0.00    +0.000 C 
ATOM      4  N   UNL     1       2.282   7.725  19.321  0.00  0.00    +0.000 NA
ATOM      5  C   UNL     1       1.641   7.376  20.450  0.00  0.00    +0.000 A 
ATOM      6  N   UNL     1       1.609   6.138  20.947  0.00  0.00    +0.000 NA
ATOM      7  C   UNL     1       2.213   5.211  20.202  0.00  0.00    +0.000 A 
ENDROOT
BRANCH   1   8
ATOM      8  C   UNL     1       3.387   4.243  18.197  0.00  0.00    +0.000 C 
ATOM      9  C   UNL     1       2.299   3.327  17.579  0.00  0.00    +0.000 C 
BRANCH   8  10
ATOM     10  C   UNL     1       4.357   3.361  18.976  0.00  0.00    +0.000 C 
ATOM     11  O   UNL     1       4.060   2.292  19.493  0.00  0.00    +0.000 OA
BRANCH  10  12
ATOM     12  O   UNL     1       5.582   3.944  19.075  0.00  0.00    +0.000 OA
BRANCH  12  13
ATOM     13  C   UNL     1       6.108   4.523  17.879  0.00  0.00    +0.000 C 
BRANCH  13  14
ATOM     14  C   UNL     1       7.573   4.873  18.071  0.00  0.00    +0.000 C 
BRANCH  14  15
ATOM     15  C   UNL     1       7.749   6.305  18.587  0.00  0.00    +0.000 C 
BRANCH  15  17
ATOM     16  C   UNL     1       7.980   8.713  17.911  0.00  0.00    +0.000 C 
ATOM     17  C   UNL     1       7.495   7.334  17.490  0.00  0.00    +0.000 C 
ENDBRANCH  15  17
ENDBRANCH  14  15
ENDBRANCH  13  14
ENDBRANCH  12  13
ENDBRANCH  10  12
ENDBRANCH   8  10
ENDBRANCH   1   8
BRANCH   5  18
ATOM     18  S   UNL     1       0.769   8.638  21.316  0.00  0.00    +0.000 S 
ATOM     19  H   UNL     1       1.292   9.628  20.581  0.00  0.00    +0.000 HD
ENDBRANCH   5  18
BRANCH   7  20
ATOM     20  O   UNL     1       2.177   3.986  20.777  0.00  0.00    +0.000 OA
ATOM     21  H   UNL     1       3.126   3.801  20.871  0.00  0.00    +0.000 HD
ENDBRANCH   7  20
TORSDOF 9
ENDMDL
MODEL 5
REMARK VINA RESULT:      -6.4      0.990      1.075
REMARK  Name = 
REMARK  12 active torsions:
REMARK  status: ('A' for Active; 'I' for Inactive)
REMARK    1  A    between atoms: C_1  and  C_2
REMARK    2  A    between atoms: C_2  and  C_3
REMARK    3  A    between atoms: C_3  and  C_4
REMARK    4  A    between atoms: C_4  and  C_5
REMARK    5  A    between atoms: C_5  and  O_6
REMARK    6  A    between atoms: O_6  and  C_7
REMARK    7  A    between atoms: C_7  and  C_9
REMARK    8  A    between atoms: C_9  and  C_10
REMARK    9  A    between atoms: C_9  and  C_11
REMARK   10  A    between atoms: C_12  and  C_13
REMARK   11  A    between atoms: C_15  and  S_16
REMARK   12  A    between atoms: C_18  and  O_19
REMARK                            x       y       z     vdW  Elec       q    Type
REMARK                         _______ _______ _______ _____ _____    ______ ____
ROOT
ATOM      1  C   UNL     1       4.807   5.198  18.091  0.00  0.00    +0.000 A 
ATOM      2  C   UNL     1       3.723   6.079  18.197  0.00  0.00    +0.000 A 
ATOM      3  C   UNL     1       3.658   7.424  17.549  0.00  0.00    +0.000 C 
ATOM      4  N   UNL     1       2.612   5.773  18.911  0.00  0.00    +0.000 NA
ATOM      5  C   UNL     1       2.603   4.622  19.605  0.00  0.00    +0.000 A 
ATOM      6  N   UNL     1       3.629   3.771  19.665  0.00  0.00    +0.000 NA
ATOM      7  C   UNL     1       4.684   4.098  18.917  0.00  0.00    +0.000 A 
ENDROOT
BRANCH   1   8
ATOM      8  C   UNL     1       6.016   5.390  17.217  0.00  0.00    +0.000 C 
ATOM      9  C   UNL     1       6.161   4.328  16.096  0.00  0.00    +0.000 C 
BRANCH   8  10
ATOM     10  C   UNL     1       7.336   5.451  17.980  0.00  0.00    +0.000 C 
ATOM     11  O   UNL     1       7.991   4.472  18.310  0.00  0.00    +0.000 OA
BRANCH  10  12
ATOM     12  O   UNL     1       7.662   6.732  18.300  0.00  0.00    +0.000 OA
BRANCH  12  13
ATOM     13  C   UNL     1       7.244   7.742  17.379  0.00  0.00    +0.000 C 
BRANCH  13  14
ATOM     14  C   UNL     1       8.032   9.018  17.613  0.00  0.00    +0.000 C 
BRANCH  14  15
ATOM     15  C   UNL     1       8.788   8.980  18.944  0.00  0.00    +0.000 C 
BRANCH  15  17
ATOM     16  C   UNL     1       9.223  11.323  18.152  0.00  0.00    +0.000 C 
ATOM     17  C   UNL     1       9.345  10.352  19.315  0.00  0.00    +0.000 C 
ENDBRANCH  15  17
ENDBRANCH  14  15
ENDBRANCH  13  14
ENDBRANCH  12  13
ENDBRANCH  10  12
ENDBRANCH   8  10
ENDBRANCH   1   8
BRANCH   5  18
ATOM     18  S   UNL     1       1.129   4.205  20.474  0.00  0.00    +0.000 S 
ATOM     19  H   UNL     1       0.335   4.874  19.628  0.00  0.00    +0.000 HD
ENDBRANCH   5  18
BRANCH   7  20
ATOM     20  O   UNL     1       5.702   3.216  19.050  0.00  0.00    +0.000 OA
ATOM     21  H   UNL     1       6.129   3.299  18.182  0.00  0.00    +0.000 HD
ENDBRANCH   7  20
TORSDOF 9
ENDMDL
MODEL 6
REMARK VINA RESULT:      -6.4      3.630      6.308
REMARK  Name = 
REMARK  12 active torsions:
REMARK  status: ('A' for Active; 'I' for Inactive)
REMARK    1  A    between atoms: C_1  and  C_2
REMARK    2  A    between atoms: C_2  and  C_3
REMARK    3  A    between atoms: C_3  and  C_4
REMARK    4  A    between atoms: C_4  and  C_5
REMARK    5  A    between atoms: C_5  and  O_6
REMARK    6  A    between atoms: O_6  and  C_7
REMARK    7  A    between atoms: C_7  and  C_9
REMARK    8  A    between atoms: C_9  and  C_10
REMARK    9  A    between atoms: C_9  and  C_11
REMARK   10  A    between atoms: C_12  and  C_13
REMARK   11  A    between atoms: C_15  and  S_16
REMARK   12  A    between atoms: C_18  and  O_19
REMARK                            x       y       z     vdW  Elec       q    Type
REMARK                         _______ _______ _______ _____ _____    ______ ____
ROOT
ATOM      1  C   UNL     1       6.520   5.731  16.907  0.00  0.00    +0.000 A 
ATOM      2  C   UNL     1       5.556   6.085  15.955  0.00  0.00    +0.000 A 
ATOM      3  C   UNL     1       4.471   7.086  16.179  0.00  0.00    +0.000 C 
ATOM      4  N   UNL     1       5.532   5.537  14.715  0.00  0.00    +0.000 NA
ATOM      5  C   UNL     1       6.413   4.560  14.438  0.00  0.00    +0.000 A 
ATOM      6  N   UNL     1       7.293   4.069  15.313  0.00  0.00    +0.000 NA
ATOM      7  C   UNL     1       7.303   4.666  16.505  0.00  0.00    +0.000 A 
ENDROOT
BRANCH   1   8
ATOM      8  C   UNL     1       6.710   6.379  18.251  0.00  0.00    +0.000 C 
ATOM      9  C   UNL     1       8.047   7.152  18.397  0.00  0.00    +0.000 C 
BRANCH   8  10
ATOM     10  C   UNL     1       6.591   5.420  19.431  0.00  0.00    +0.000 C 
ATOM     11  O   UNL     1       7.473   5.224  20.257  0.00  0.00    +0.000 OA
BRANCH  10  12
ATOM     12  O   UNL     1       5.401   4.761  19.414  0.00  0.00    +0.000 OA
BRANCH  12  13
ATOM     13  C   UNL     1       4.227   5.570  19.522  0.00  0.00    +0.000 C 
BRANCH  13  14
ATOM     14  C   UNL     1       2.989   4.724  19.291  0.00  0.00    +0.000 C 
BRANCH  14  15
ATOM     15  C   UNL     1       2.037   4.774  20.491  0.00  0.00    +0.000 C 
BRANCH  15  17
ATOM     16  C   UNL     1       1.160   2.825  19.172  0.00  0.00    +0.000 C 
ATOM     17  C   UNL     1       0.951   3.707  20.392  0.00  0.00    +0.000 C 
ENDBRANCH  15  17
ENDBRANCH  14  15
ENDBRANCH  13  14
ENDBRANCH  12  13
ENDBRANCH  10  12
ENDBRANCH   8  10
ENDBRANCH   1   8
BRANCH   5  18
ATOM     18  S   UNL     1       6.415   3.903  12.804  0.00  0.00    +0.000 S 
ATOM     19  H   UNL     1       6.032   2.681  13.199  0.00  0.00    +0.000 HD
ENDBRANCH   5  18
BRANCH   7  20
ATOM     20  O   UNL     1       8.190   4.100  17.356  0.00  0.00    +0.000 OA
ATOM     21  H   UNL     1       7.709   3.295  17.612  0.00  0.00    +0.000 HD
ENDBRANCH   7  20
TORSDOF 9
ENDMDL
MODEL 7
REMARK VINA RESULT:      -6.3      4.254      6.720
REMARK  Name = 
REMARK  12 active torsions:
REMARK  status: ('A' for Active; 'I' for Inactive)
REMARK    1  A    between atoms: C_1  and  C_2
REMARK    2  A    between atoms: C_2  and  C_3
REMARK    3  A    between atoms: C_3  and  C_4
REMARK    4  A    between atoms: C_4  and  C_5
REMARK    5  A    between atoms: C_5  and  O_6
REMARK    6  A    between atoms: O_6  and  C_7
REMARK    7  A    between atoms: C_7  and  C_9
REMARK    8  A    between atoms: C_9  and  C_10
REMARK    9  A    between atoms: C_9  and  C_11
REMARK   10  A    between atoms: C_12  and  C_13
REMARK   11  A    between atoms: C_15  and  S_16
REMARK   12  A    between atoms: C_18  and  O_19
REMARK                            x       y       z     vdW  Elec       q    Type
REMARK                         _______ _______ _______ _____ _____    ______ ____
ROOT
ATOM      1  C   UNL     1       5.845   5.296  16.785  0.00  0.00    +0.000 A 
ATOM      2  C   UNL     1       5.168   4.188  16.262  0.00  0.00    +0.000 A 
ATOM      3  C   UNL     1       4.124   3.409  16.995  0.00  0.00    +0.000 C 
ATOM      4  N   UNL     1       5.407   3.720  15.012  0.00  0.00    +0.000 NA
ATOM      5  C   UNL     1       6.390   4.296  14.299  0.00  0.00    +0.000 A 
ATOM      6  N   UNL     1       7.172   5.279  14.750  0.00  0.00    +0.000 NA
ATOM      7  C   UNL     1       6.873   5.728  15.970  0.00  0.00    +0.000 A 
ENDROOT
BRANCH   1   8
ATOM      8  C   UNL     1       5.554   5.967  18.100  0.00  0.00    +0.000 C 
ATOM      9  C   UNL     1       6.013   5.156  19.339  0.00  0.00    +0.000 C 
BRANCH   8  10
ATOM     10  C   UNL     1       4.089   6.343  18.300  0.00  0.00    +0.000 C 
ATOM     11  O   UNL     1       3.480   7.149  17.609  0.00  0.00    +0.000 OA
BRANCH  10  12
ATOM     12  O   UNL     1       3.561   5.713  19.383  0.00  0.00    +0.000 OA
BRANCH  12  13
ATOM     13  C   UNL     1       2.283   6.176  19.826  0.00  0.00    +0.000 C 
BRANCH  13  14
ATOM     14  C   UNL     1       1.695   5.201  20.829  0.00  0.00    +0.000 C 
BRANCH  14  15
ATOM     15  C   UNL     1       0.922   4.074  20.137  0.00  0.00    +0.000 C 
BRANCH  15  17
ATOM     16  C   UNL     1       2.416   2.702  21.618  0.00  0.00    +0.000 C 
ATOM     17  C   UNL     1       1.600   2.721  20.335  0.00  0.00    +0.000 C 
ENDBRANCH  15  17
ENDBRANCH  14  15
ENDBRANCH  13  14
ENDBRANCH  12  13
ENDBRANCH  10  12
ENDBRANCH   8  10
ENDBRANCH   1   8
BRANCH   5  18
ATOM     18  S   UNL     1       6.646   3.724  12.653  0.00  0.00    +0.000 S 
ATOM     19  H   UNL     1       5.795   2.698  12.782  0.00  0.00    +0.000 HD
ENDBRANCH   5  18
BRANCH   7  20
ATOM     20  O   UNL     1       7.722   6.698  16.383  0.00  0.00    +0.000 OA
ATOM     21  H   UNL     1       7.251   7.493  16.083  0.00  0.00    +0.000 HD
ENDBRANCH   7  20
TORSDOF 9
ENDMDL
MODEL 8
REMARK VINA RESULT:      -6.3      3.459      6.464
REMARK  Name = 
REMARK  12 active torsions:
REMARK  status: ('A' for Active; 'I' for Inactive)
REMARK    1  A    between atoms: C_1  and  C_2
REMARK    2  A    between atoms: C_2  and  C_3
REMARK    3  A    between atoms: C_3  and  C_4
REMARK    4  A    between atoms: C_4  and  C_5
REMARK    5  A    between atoms: C_5  and  O_6
REMARK    6  A    between atoms: O_6  and  C_7
REMARK    7  A    between atoms: C_7  and  C_9
REMARK    8  A    between atoms: C_9  and  C_10
REMARK    9  A    between atoms: C_9  and  C_11
REMARK   10  A    between atoms: C_12  and  C_13
REMARK   11  A    between atoms: C_15  and  S_16
REMARK   12  A    between atoms: C_18  and  O_19
REMARK                            x       y       z     vdW  Elec       q    Type
REMARK                         _______ _______ _______ _____ _____    ______ ____
ROOT
ATOM      1  C   UNL     1       6.409   5.619  17.567  0.00  0.00    +0.000 A 
ATOM      2  C   UNL     1       6.087   6.753  16.812  0.00  0.00    +0.000 A 
ATOM      3  C   UNL     1       5.044   6.792  15.743  0.00  0.00    +0.000 C 
ATOM      4  N   UNL     1       6.709   7.944  16.996  0.00  0.00    +0.000 NA
ATOM      5  C   UNL     1       7.725   7.997  17.875  0.00  0.00    +0.000 A 
ATOM      6  N   UNL     1       8.186   6.947  18.558  0.00  0.00    +0.000 NA
ATOM      7  C   UNL     1       7.518   5.808  18.369  0.00  0.00    +0.000 A 
ENDROOT
BRANCH   1   8
ATOM      8  C   UNL     1       5.686   4.300  17.529  0.00  0.00    +0.000 C 
ATOM      9  C   UNL     1       5.684   3.621  16.135  0.00  0.00    +0.000 C 
BRANCH   8  10
ATOM     10  C   UNL     1       4.245   4.363  18.024  0.00  0.00    +0.000 C 
ATOM     11  O   UNL     1       3.266   4.091  17.342  0.00  0.00    +0.000 OA
BRANCH  10  12
ATOM     12  O   UNL     1       4.182   4.818  19.304  0.00  0.00    +0.000 OA
BRANCH  12  13
ATOM     13  C   UNL     1       3.113   5.718  19.605  0.00  0.00    +0.000 C 
BRANCH  13  14
ATOM     14  C   UNL     1       2.245   5.144  20.710  0.00  0.00    +0.000 C 
BRANCH  14  15
ATOM     15  C   UNL     1       1.041   4.383  20.147  0.00  0.00    +0.000 C 
BRANCH  15  17
ATOM     16  C   UNL     1       1.885   2.607  21.709  0.00  0.00    +0.000 C 
ATOM     17  C   UNL     1       1.152   2.883  20.406  0.00  0.00    +0.000 C 
ENDBRANCH  15  17
ENDBRANCH  14  15
ENDBRANCH  13  14
ENDBRANCH  12  13
ENDBRANCH  10  12
ENDBRANCH   8  10
ENDBRANCH   1   8
BRANCH   5  18
ATOM     18  S   UNL     1       8.480   9.563  18.156  0.00  0.00    +0.000 S 
ATOM     19  H   UNL     1       7.479  10.007  18.927  0.00  0.00    +0.000 HD
ENDBRANCH   5  18
BRANCH   7  20
ATOM     20  O   UNL     1       8.056   4.776  19.060  0.00  0.00    +0.000 OA
ATOM     21  H   UNL     1       8.980   4.819  18.762  0.00  0.00    +0.000 HD
ENDBRANCH   7  20
TORSDOF 9
ENDMDL
MODEL 9
REMARK VINA RESULT:      -6.2      3.965      6.445
REMARK  Name = 
REMARK  12 active torsions:
REMARK  status: ('A' for Active; 'I' for Inactive)
REMARK    1  A    between atoms: C_1  and  C_2
REMARK    2  A    between atoms: C_2  and  C_3
REMARK    3  A    between atoms: C_3  and  C_4
REMARK    4  A    between atoms: C_4  and  C_5
REMARK    5  A    between atoms: C_5  and  O_6
REMARK    6  A    between atoms: O_6  and  C_7
REMARK    7  A    between atoms: C_7  and  C_9
REMARK    8  A    between atoms: C_9  and  C_10
REMARK    9  A    between atoms: C_9  and  C_11
REMARK   10  A    between atoms: C_12  and  C_13
REMARK   11  A    between atoms: C_15  and  S_16
REMARK   12  A    between atoms: C_18  and  O_19
REMARK                            x       y       z     vdW  Elec       q    Type
REMARK                         _______ _______ _______ _____ _____    ______ ____
ROOT
ATOM      1  C   UNL     1       3.925   6.054  18.374  0.00  0.00    +0.000 A 
ATOM      2  C   UNL     1       3.975   6.970  17.316  0.00  0.00    +0.000 A 
ATOM      3  C   UNL     1       4.925   6.885  16.166  0.00  0.00    +0.000 C 
ATOM      4  N   UNL     1       3.140   8.036  17.244  0.00  0.00    +0.000 NA
ATOM      5  C   UNL     1       2.304   8.254  18.274  0.00  0.00    +0.000 A 
ATOM      6  N   UNL     1       2.260   7.509  19.380  0.00  0.00    +0.000 NA
ATOM      7  C   UNL     1       3.074   6.453  19.387  0.00  0.00    +0.000 A 
ENDROOT
BRANCH   1   8
ATOM      8  C   UNL     1       4.712   4.775  18.471  0.00  0.00    +0.000 C 
ATOM      9  C   UNL     1       6.234   4.985  18.682  0.00  0.00    +0.000 C 
BRANCH   8  10
ATOM     10  C   UNL     1       4.525   3.835  17.285  0.00  0.00    +0.000 C 
ATOM     11  O   UNL     1       5.336   3.693  16.379  0.00  0.00    +0.000 OA
BRANCH  10  12
ATOM     12  O   UNL     1       3.314   3.217  17.330  0.00  0.00    +0.000 OA
BRANCH  12  13
ATOM     13  C   UNL     1       3.273   1.950  17.990  0.00  0.00    +0.000 C 
BRANCH  13  14
ATOM     14  C   UNL     1       2.042   1.864  18.875  0.00  0.00    +0.000 C 
BRANCH  14  15
ATOM     15  C   UNL     1       1.238   3.168  18.853  0.00  0.00    +0.000 C 
BRANCH  15  17
ATOM     16  C   UNL     1       1.433   2.740  21.320  0.00  0.00    +0.000 C 
ATOM     17  C   UNL     1       0.709   3.526  20.239  0.00  0.00    +0.000 C 
ENDBRANCH  15  17
ENDBRANCH  14  15
ENDBRANCH  13  14
ENDBRANCH  12  13
ENDBRANCH  10  12
ENDBRANCH   8  10
ENDBRANCH   1   8
BRANCH   5  18
ATOM     18  S   UNL     1       1.178   9.602  18.139  0.00  0.00    +0.000 S 
ATOM     19  H   UNL     1       0.161   8.923  18.685  0.00  0.00    +0.000 HD
ENDBRANCH   5  18
BRANCH   7  20
ATOM     20  O   UNL     1       3.009   5.761  20.548  0.00  0.00    +0.000 OA
ATOM     21  H   UNL     1       2.487   6.372  21.095  0.00  0.00    +0.000 HD
ENDBRANCH   7  20
TORSDOF 9
ENDMDL
