MODEL 1
REMARK VINA RESULT:      -7.2      0.000      0.000
REMARK  Name = 
REMARK  12 active torsions:
REMARK  status: ('A' for Active; 'I' for Inactive)
REMARK    1  A    between atoms: C_1  and  C_2
REMARK    2  A    between atoms: C_2  and  C_3
REMARK    3  A    between atoms: C_3  and  C_4
REMARK    4  A    between atoms: C_9  and  N_10
REMARK    5  A    between atoms: N_10  and  C_11
REMARK    6  A    between atoms: C_11  and  C_12
REMARK    7  A    between atoms: C_11  and  C_13
REMARK    8  A    between atoms: C_13  and  C_14
REMARK    9  A    between atoms: C_14  and  C_15
REMARK   10  A    between atoms: C_15  and  N_16
REMARK   11  A    between atoms: C_18  and  O_19
REMARK   12  A    between atoms: O_19  and  C_20
REMARK                            x       y       z     vdW  Elec       q    Type
REMARK                         _______ _______ _______ _____ _____    ______ ____
ROOT
ATOM      1  C   UNL     1       6.076   3.776  12.728  0.00  0.00    +0.000 A 
ATOM      2  C   UNL     1       7.180   4.388  12.110  0.00  0.00    +0.000 A 
ATOM      3  C   UNL     1       7.969   5.262  12.808  0.00  0.00    +0.000 A 
ATOM      4  N   UNL     1       7.764   5.558  14.090  0.00  0.00    +0.000 NA
ATOM      5  C   UNL     1       6.723   5.012  14.740  0.00  0.00    +0.000 A 
ATOM      6  C   UNL     1       6.622   5.417  16.088  0.00  0.00    +0.000 A 
ATOM      7  C   UNL     1       5.531   5.043  16.859  0.00  0.00    +0.000 A 
ATOM      8  C   UNL     1       4.592   4.159  16.360  0.00  0.00    +0.000 A 
ATOM      9  C   UNL     1       4.754   3.661  15.032  0.00  0.00    +0.000 A 
ATOM     10  C   UNL     1       5.805   4.101  14.142  0.00  0.00    +0.000 A 
ENDROOT
BRANCH   6  11
ATOM     11  N   UNL     1       7.606   6.292  16.594  0.00  0.00    +0.000 N 
ATOM     12  H   UNL     1       8.508   5.810  16.534  0.00  0.00    +0.000 HD
BRANCH  11  13
ATOM     13  C   UNL     1       7.418   7.117  17.786  0.00  0.00    +0.000 C 
ATOM     14  C   UNL     1       8.142   6.520  18.996  0.00  0.00    +0.000 C 
BRANCH  13  15
ATOM     15  C   UNL     1       7.977   8.522  17.476  0.00  0.00    +0.000 C 
BRANCH  15  16
ATOM     16  C   UNL     1       8.697   9.115  18.693  0.00  0.00    +0.000 C 
BRANCH  16  17
ATOM     17  C   UNL     1       8.978  10.602  18.519  0.00  0.00    +0.000 C 
BRANCH  17  18
ATOM     18  N   UNL     1      10.312  10.906  19.025  0.00  0.00    +0.000 NA
ATOM     19  H   UNL     1      10.234  11.392  19.920  0.00  0.00    +0.000 HD
ATOM     20  H   UNL     1      10.782  11.547  18.390  0.00  0.00    +0.000 HD
ENDBRANCH  17  18
ENDBRANCH  16  17
ENDBRANCH  15  16
ENDBRANCH  13  15
ENDBRANCH  11  13
ENDBRANCH   6  11
BRANCH   8  21
ATOM     21  O   UNL     1       3.511   3.727  17.096  0.00  0.00    +0.000 OA
ATOM     22  C   UNL     1       3.677   2.491  17.819  0.00  0.00    +0.000 C 
ENDBRANCH   8  21
BRANCH   1  23
ATOM     23  C   UNL     1       5.316   2.782  11.810  0.00  0.00    +0.000 C 
BRANCH  23  25
ATOM     24  C   UNL     1       3.481   3.783  10.063  0.00  0.00    +0.000 C 
ATOM     25  C   UNL     1       3.845   3.243  11.449  0.00  0.00    +0.000 C 
ENDBRANCH  23  25
ENDBRANCH   1  23
TORSDOF 9
ENDMDL
MODEL 2
REMARK VINA RESULT:      -7.1      3.479      6.044
REMARK  Name = 
REMARK  12 active torsions:
REMARK  status: ('A' for Active; 'I' for Inactive)
REMARK    1  A    between atoms: C_1  and  C_2
REMARK    2  A    between atoms: C_2  and  C_3
REMARK    3  A    between atoms: C_3  and  C_4
REMARK    4  A    between atoms: C_9  and  N_10
REMARK    5  A    between atoms: N_10  and  C_11
REMARK    6  A    between atoms: C_11  and  C_12
REMARK    7  A    between atoms: C_11  and  C_13
REMARK    8  A    between atoms: C_13  and  C_14
REMARK    9  A    between atoms: C_14  and  C_15
REMARK   10  A    between atoms: C_15  and  N_16
REMARK   11  A    between atoms: C_18  and  O_19
REMARK   12  A    between atoms: O_19  and  C_20
REMARK                            x       y       z     vdW  Elec       q    Type
REMARK                         _______ _______ _______ _____ _____    ______ ____
ROOT
ATOM      1  C   UNL     1       1.896   3.602  18.728  0.00  0.00    +0.000 A 
ATOM      2  C   UNL     1       2.449   2.477  18.092  0.00  0.00    +0.000 A 
ATOM      3  C   UNL     1       3.493   2.617  17.219  0.00  0.00    +0.000 A 
ATOM      4  N   UNL     1       4.057   3.792  16.945  0.00  0.00    +0.000 NA
ATOM      5  C   UNL     1       3.574   4.909  17.515  0.00  0.00    +0.000 A 
ATOM      6  C   UNL     1       4.260   6.081  17.133  0.00  0.00    +0.000 A 
ATOM      7  C   UNL     1       3.805   7.329  17.533  0.00  0.00    +0.000 A 
ATOM      8  C   UNL     1       2.751   7.437  18.422  0.00  0.00    +0.000 A 
ATOM      9  C   UNL     1       2.127   6.245  18.896  0.00  0.00    +0.000 A 
ATOM     10  C   UNL     1       2.481   4.923  18.429  0.00  0.00    +0.000 A 
ENDROOT
BRANCH   6  11
ATOM     11  N   UNL     1       5.355   5.952  16.253  0.00  0.00    +0.000 N 
ATOM     12  H   UNL     1       5.023   5.465  15.415  0.00  0.00    +0.000 HD
BRANCH  11  13
ATOM     13  C   UNL     1       6.704   5.595  16.690  0.00  0.00    +0.000 C 
ATOM     14  C   UNL     1       7.512   4.972  15.549  0.00  0.00    +0.000 C 
BRANCH  13  15
ATOM     15  C   UNL     1       7.393   6.885  17.182  0.00  0.00    +0.000 C 
BRANCH  15  16
ATOM     16  C   UNL     1       7.972   6.703  18.591  0.00  0.00    +0.000 C 
BRANCH  16  17
ATOM     17  C   UNL     1       7.272   5.587  19.354  0.00  0.00    +0.000 C 
BRANCH  17  18
ATOM     18  N   UNL     1       8.000   5.312  20.589  0.00  0.00    +0.000 NA
ATOM     19  H   UNL     1       7.547   5.795  21.366  0.00  0.00    +0.000 HD
ATOM     20  H   UNL     1       8.941   5.693  20.524  0.00  0.00    +0.000 HD
ENDBRANCH  17  18
ENDBRANCH  16  17
ENDBRANCH  15  16
ENDBRANCH  13  15
ENDBRANCH  11  13
ENDBRANCH   6  11
BRANCH   8  21
ATOM     21  O   UNL     1       2.285   8.649  18.879  0.00  0.00    +0.000 OA
ATOM     22  C   UNL     1       1.251   9.279  18.094  0.00  0.00    +0.000 C 
ENDBRANCH   8  21
BRANCH   1  23
ATOM     23  C   UNL     1       0.750   3.261  19.717  0.00  0.00    +0.000 C 
BRANCH  23  25
ATOM     24  C   UNL     1       2.506   2.610  21.696  0.00  0.00    +0.000 C 
ATOM     25  C   UNL     1       1.197   3.260  21.236  0.00  0.00    +0.000 C 
ENDBRANCH  23  25
ENDBRANCH   1  23
TORSDOF 9
ENDMDL
MODEL 3
REMARK VINA RESULT:      -6.8      3.282      7.171
REMARK  Name = 
REMARK  12 active torsions:
REMARK  status: ('A' for Active; 'I' for Inactive)
REMARK    1  A    between atoms: C_1  and  C_2
REMARK    2  A    between atoms: C_2  and  C_3
REMARK    3  A    between atoms: C_3  and  C_4
REMARK    4  A    between atoms: C_9  and  N_10
REMARK    5  A    between atoms: N_10  and  C_11
REMARK    6  A    between atoms: C_11  and  C_12
REMARK    7  A    between atoms: C_11  and  C_13
REMARK    8  A    between atoms: C_13  and  C_14
REMARK    9  A    between atoms: C_14  and  C_15
REMARK   10  A    between atoms: C_15  and  N_16
REMARK   11  A    between atoms: C_18  and  O_19
REMARK   12  A    between atoms: O_19  and  C_20
REMARK                            x       y       z     vdW  Elec       q    Type
REMARK                         _______ _______ _______ _____ _____    ______ ____
ROOT
ATOM      1  C   UNL     1       2.060   3.594  18.787  0.00  0.00    +0.000 A 
ATOM      2  C   UNL     1       2.486   2.285  18.503  0.00  0.00    +0.000 A 
ATOM      3  C   UNL     1       3.566   2.068  17.692  0.00  0.00    +0.000 A 
ATOM      4  N   UNL     1       4.282   3.055  17.158  0.00  0.00    +0.000 NA
ATOM      5  C   UNL     1       3.926   4.331  17.385  0.00  0.00    +0.000 A 
ATOM      6  C   UNL     1       4.767   5.273  16.754  0.00  0.00    +0.000 A 
ATOM      7  C   UNL     1       4.461   6.626  16.785  0.00  0.00    +0.000 A 
ATOM      8  C   UNL     1       3.402   7.086  17.546  0.00  0.00    +0.000 A 
ATOM      9  C   UNL     1       2.618   6.143  18.274  0.00  0.00    +0.000 A 
ATOM     10  C   UNL     1       2.816   4.712  18.192  0.00  0.00    +0.000 A 
ENDROOT
BRANCH   6  11
ATOM     11  N   UNL     1       5.864   4.791  16.010  0.00  0.00    +0.000 N 
ATOM     12  H   UNL     1       6.704   4.912  16.585  0.00  0.00    +0.000 HD
BRANCH  11  13
ATOM     13  C   UNL     1       6.045   5.042  14.582  0.00  0.00    +0.000 C 
ATOM     14  C   UNL     1       7.528   5.152  14.218  0.00  0.00    +0.000 C 
BRANCH  13  15
ATOM     15  C   UNL     1       5.398   3.869  13.815  0.00  0.00    +0.000 C 
BRANCH  15  16
ATOM     16  C   UNL     1       6.198   3.521  12.553  0.00  0.00    +0.000 C 
BRANCH  16  17
ATOM     17  C   UNL     1       5.456   2.531  11.665  0.00  0.00    +0.000 C 
BRANCH  17  18
ATOM     18  N   UNL     1       6.344   1.422  11.328  0.00  0.00    +0.000 NA
ATOM     19  H   UNL     1       6.577   0.904  12.176  0.00  0.00    +0.000 HD
ATOM     20  H   UNL     1       7.221   1.785  10.962  0.00  0.00    +0.000 HD
ENDBRANCH  17  18
ENDBRANCH  16  17
ENDBRANCH  15  16
ENDBRANCH  13  15
ENDBRANCH  11  13
ENDBRANCH   6  11
BRANCH   8  21
ATOM     21  O   UNL     1       3.078   8.421  17.640  0.00  0.00    +0.000 OA
ATOM     22  C   UNL     1       1.843   8.738  18.313  0.00  0.00    +0.000 C 
ENDBRANCH   8  21
BRANCH   1  23
ATOM     23  C   UNL     1       0.850   3.662  19.756  0.00  0.00    +0.000 C 
BRANCH  23  25
ATOM     24  C   UNL     1       2.292   3.211  22.023  0.00  0.00    +0.000 C 
ATOM     25  C   UNL     1       1.087   2.906  21.127  0.00  0.00    +0.000 C 
ENDBRANCH  23  25
ENDBRANCH   1  23
TORSDOF 9
ENDMDL
MODEL 4
REMARK VINA RESULT:      -6.8      3.851      6.733
REMARK  Name = 
REMARK  12 active torsions:
REMARK  status: ('A' for Active; 'I' for Inactive)
REMARK    1  A    between atoms: C_1  and  C_2
REMARK    2  A    between atoms: C_2  and  C_3
REMARK    3  A    between atoms: C_3  and  C_4
REMARK    4  A    between atoms: C_9  and  N_10
REMARK    5  A    between atoms: N_10  and  C_11
REMARK    6  A    between atoms: C_11  and  C_12
REMARK    7  A    between atoms: C_11  and  C_13
REMARK    8  A    between atoms: C_13  and  C_14
REMARK    9  A    between atoms: C_14  and  C_15
REMARK   10  A    between atoms: C_15  and  N_16
REMARK   11  A    between atoms: C_18  and  O_19
REMARK   12  A    between atoms: O_19  and  C_20
REMARK                            x       y       z     vdW  Elec       q    Type
REMARK                         _______ _______ _______ _____ _____    ______ ____
ROOT
ATOM      1  C   UNL     1       5.273   5.594  16.693  0.00  0.00    +0.000 A 
ATOM      2  C   UNL     1       5.879   4.416  17.162  0.00  0.00    +0.000 A 
ATOM      3  C   UNL     1       5.491   3.862  18.352  0.00  0.00    +0.000 A 
ATOM      4  N   UNL     1       4.520   4.373  19.106  0.00  0.00    +0.000 NA
ATOM      5  C   UNL     1       3.901   5.501  18.719  0.00  0.00    +0.000 A 
ATOM      6  C   UNL     1       2.900   5.933  19.614  0.00  0.00    +0.000 A 
ATOM      7  C   UNL     1       2.257   7.148  19.423  0.00  0.00    +0.000 A 
ATOM      8  C   UNL     1       2.492   7.891  18.281  0.00  0.00    +0.000 A 
ATOM      9  C   UNL     1       3.425   7.400  17.320  0.00  0.00    +0.000 A 
ATOM     10  C   UNL     1       4.209   6.200  17.516  0.00  0.00    +0.000 A 
ENDROOT
BRANCH   6  11
ATOM     11  N   UNL     1       2.645   5.146  20.756  0.00  0.00    +0.000 N 
ATOM     12  H   UNL     1       3.392   5.333  21.433  0.00  0.00    +0.000 HD
BRANCH  11  13
ATOM     13  C   UNL     1       2.192   3.757  20.696  0.00  0.00    +0.000 C 
ATOM     14  C   UNL     1       2.071   3.149  22.095  0.00  0.00    +0.000 C 
BRANCH  13  15
ATOM     15  C   UNL     1       0.818   3.744  19.993  0.00  0.00    +0.000 C 
BRANCH  15  16
ATOM     16  C   UNL     1       0.692   2.549  19.039  0.00  0.00    +0.000 C 
BRANCH  16  17
ATOM     17  C   UNL     1       2.015   2.223  18.359  0.00  0.00    +0.000 C 
BRANCH  17  18
ATOM     18  N   UNL     1       2.159   3.042  17.160  0.00  0.00    +0.000 NA
ATOM     19  H   UNL     1       2.649   2.508  16.441  0.00  0.00    +0.000 HD
ATOM     20  H   UNL     1       2.741   3.850  17.365  0.00  0.00    +0.000 HD
ENDBRANCH  17  18
ENDBRANCH  16  17
ENDBRANCH  15  16
ENDBRANCH  13  15
ENDBRANCH  11  13
ENDBRANCH   6  11
BRANCH   8  21
ATOM     21  O   UNL     1       1.854   9.085  18.026  0.00  0.00    +0.000 OA
ATOM     22  C   UNL     1       1.081   9.645  19.106  0.00  0.00    +0.000 C 
ENDBRANCH   8  21
BRANCH   1  23
ATOM     23  C   UNL     1       5.800   6.060  15.310  0.00  0.00    +0.000 C 
BRANCH  23  25
ATOM     24  C   UNL     1       6.016   3.953  13.598  0.00  0.00    +0.000 C 
ATOM     25  C   UNL     1       6.657   4.966  14.551  0.00  0.00    +0.000 C 
ENDBRANCH  23  25
ENDBRANCH   1  23
TORSDOF 9
ENDMDL
MODEL 5
REMARK VINA RESULT:      -6.8      4.323      6.921
REMARK  Name = 
REMARK  12 active torsions:
REMARK  status: ('A' for Active; 'I' for Inactive)
REMARK    1  A    between atoms: C_1  and  C_2
REMARK    2  A    between atoms: C_2  and  C_3
REMARK    3  A    between atoms: C_3  and  C_4
REMARK    4  A    between atoms: C_9  and  N_10
REMARK    5  A    between atoms: N_10  and  C_11
REMARK    6  A    between atoms: C_11  and  C_12
REMARK    7  A    between atoms: C_11  and  C_13
REMARK    8  A    between atoms: C_13  and  C_14
REMARK    9  A    between atoms: C_14  and  C_15
REMARK   10  A    between atoms: C_15  and  N_16
REMARK   11  A    between atoms: C_18  and  O_19
REMARK   12  A    between atoms: O_19  and  C_20
REMARK                            x       y       z     vdW  Elec       q    Type
REMARK                         _______ _______ _______ _____ _____    ______ ____
ROOT
ATOM      1  C   UNL     1       1.880   7.560  19.950  0.00  0.00    +0.000 A 
ATOM      2  C   UNL     1       2.075   8.594  19.018  0.00  0.00    +0.000 A 
ATOM      3  C   UNL     1       2.803   8.373  17.881  0.00  0.00    +0.000 A 
ATOM      4  N   UNL     1       3.335   7.191  17.578  0.00  0.00    +0.000 NA
ATOM      5  C   UNL     1       3.191   6.160  18.428  0.00  0.00    +0.000 A 
ATOM      6  C   UNL     1       3.808   4.971  17.986  0.00  0.00    +0.000 A 
ATOM      7  C   UNL     1       3.859   3.853  18.806  0.00  0.00    +0.000 A 
ATOM      8  C   UNL     1       3.189   3.843  20.016  0.00  0.00    +0.000 A 
ATOM      9  C   UNL     1       2.471   5.010  20.414  0.00  0.00    +0.000 A 
ATOM     10  C   UNL     1       2.475   6.242  19.657  0.00  0.00    +0.000 A 
ENDROOT
BRANCH   6  11
ATOM     11  N   UNL     1       4.456   4.986  16.733  0.00  0.00    +0.000 N 
ATOM     12  H   UNL     1       3.830   4.539  16.056  0.00  0.00    +0.000 HD
BRANCH  11  13
ATOM     13  C   UNL     1       5.877   4.693  16.555  0.00  0.00    +0.000 C 
ATOM     14  C   UNL     1       6.129   3.916  15.260  0.00  0.00    +0.000 C 
BRANCH  13  15
ATOM     15  C   UNL     1       6.631   6.039  16.519  0.00  0.00    +0.000 C 
BRANCH  15  16
ATOM     16  C   UNL     1       7.168   6.414  17.906  0.00  0.00    +0.000 C 
BRANCH  16  17
ATOM     17  C   UNL     1       7.621   5.190  18.691  0.00  0.00    +0.000 C 
BRANCH  17  18
ATOM     18  N   UNL     1       7.870   5.568  20.078  0.00  0.00    +0.000 NA
ATOM     19  H   UNL     1       8.524   6.351  20.105  0.00  0.00    +0.000 HD
ATOM     20  H   UNL     1       8.323   4.799  20.566  0.00  0.00    +0.000 HD
ENDBRANCH  17  18
ENDBRANCH  16  17
ENDBRANCH  15  16
ENDBRANCH  13  15
ENDBRANCH  11  13
ENDBRANCH   6  11
BRANCH   8  21
ATOM     21  O   UNL     1       3.178   2.748  20.850  0.00  0.00    +0.000 OA
ATOM     22  C   UNL     1       2.025   2.602  21.705  0.00  0.00    +0.000 C 
ENDBRANCH   8  21
BRANCH   1  23
ATOM     23  C   UNL     1       0.995   7.967  21.159  0.00  0.00    +0.000 C 
BRANCH  23  25
ATOM     24  C   UNL     1      -0.017  10.331  22.057  0.00  0.00    +0.000 C 
ATOM     25  C   UNL     1       0.186   9.310  20.934  0.00  0.00    +0.000 C 
ENDBRANCH  23  25
ENDBRANCH   1  23
TORSDOF 9
ENDMDL
MODEL 6
REMARK VINA RESULT:      -6.8      3.294      6.824
REMARK  Name = 
REMARK  12 active torsions:
REMARK  status: ('A' for Active; 'I' for Inactive)
REMARK    1  A    between atoms: C_1  and  C_2
REMARK    2  A    between atoms: C_2  and  C_3
REMARK    3  A    between atoms: C_3  and  C_4
REMARK    4  A    between atoms: C_9  and  N_10
REMARK    5  A    between atoms: N_10  and  C_11
REMARK    6  A    between atoms: C_11  and  C_12
REMARK    7  A    between atoms: C_11  and  C_13
REMARK    8  A    between atoms: C_13  and  C_14
REMARK    9  A    between atoms: C_14  and  C_15
REMARK   10  A    between atoms: C_15  and  N_16
REMARK   11  A    between atoms: C_18  and  O_19
REMARK   12  A    between atoms: O_19  and  C_20
REMARK                            x       y       z     vdW  Elec       q    Type
REMARK                         _______ _______ _______ _____ _____    ______ ____
ROOT
ATOM      1  C   UNL     1       1.671   3.419  18.909  0.00  0.00    +0.000 A 
ATOM      2  C   UNL     1       2.106   2.264  18.235  0.00  0.00    +0.000 A 
ATOM      3  C   UNL     1       3.077   2.346  17.276  0.00  0.00    +0.000 A 
ATOM      4  N   UNL     1       3.678   3.487  16.947  0.00  0.00    +0.000 NA
ATOM      5  C   UNL     1       3.307   4.630  17.549  0.00  0.00    +0.000 A 
ATOM      6  C   UNL     1       4.021   5.762  17.101  0.00  0.00    +0.000 A 
ATOM      7  C   UNL     1       3.670   7.034  17.531  0.00  0.00    +0.000 A 
ATOM      8  C   UNL     1       2.704   7.201  18.506  0.00  0.00    +0.000 A 
ATOM      9  C   UNL     1       2.059   6.046  19.039  0.00  0.00    +0.000 A 
ATOM     10  C   UNL     1       2.299   4.706  18.552  0.00  0.00    +0.000 A 
ENDROOT
BRANCH   6  11
ATOM     11  N   UNL     1       5.028   5.573  16.132  0.00  0.00    +0.000 N 
ATOM     12  H   UNL     1       4.736   4.796  15.532  0.00  0.00    +0.000 HD
BRANCH  11  13
ATOM     13  C   UNL     1       6.458   5.626  16.433  0.00  0.00    +0.000 C 
ATOM     14  C   UNL     1       6.755   5.070  17.828  0.00  0.00    +0.000 C 
BRANCH  13  15
ATOM     15  C   UNL     1       7.192   4.789  15.363  0.00  0.00    +0.000 C 
BRANCH  15  16
ATOM     16  C   UNL     1       6.200   4.113  14.408  0.00  0.00    +0.000 C 
BRANCH  16  17
ATOM     17  C   UNL     1       6.753   4.011  12.993  0.00  0.00    +0.000 C 
BRANCH  17  18
ATOM     18  N   UNL     1       6.245   2.798  12.360  0.00  0.00    +0.000 NA
ATOM     19  H   UNL     1       5.225   2.806  12.380  0.00  0.00    +0.000 HD
ATOM     20  H   UNL     1       6.537   1.984  12.896  0.00  0.00    +0.000 HD
ENDBRANCH  17  18
ENDBRANCH  16  17
ENDBRANCH  15  16
ENDBRANCH  13  15
ENDBRANCH  11  13
ENDBRANCH   6  11
BRANCH   8  21
ATOM     21  O   UNL     1       2.345   8.438  18.993  0.00  0.00    +0.000 OA
ATOM     22  C   UNL     1       1.844   9.389  18.031  0.00  0.00    +0.000 C 
ENDBRANCH   8  21
BRANCH   1  23
ATOM     23  C   UNL     1       0.597   3.143  19.994  0.00  0.00    +0.000 C 
BRANCH  23  25
ATOM     24  C   UNL     1       2.683   2.682  21.684  0.00  0.00    +0.000 C 
ATOM     25  C   UNL     1       1.194   2.950  21.448  0.00  0.00    +0.000 C 
ENDBRANCH  23  25
ENDBRANCH   1  23
TORSDOF 9
ENDMDL
MODEL 7
REMARK VINA RESULT:      -6.6      4.073      7.459
REMARK  Name = 
REMARK  12 active torsions:
REMARK  status: ('A' for Active; 'I' for Inactive)
REMARK    1  A    between atoms: C_1  and  C_2
REMARK    2  A    between atoms: C_2  and  C_3
REMARK    3  A    between atoms: C_3  and  C_4
REMARK    4  A    between atoms: C_9  and  N_10
REMARK    5  A    between atoms: N_10  and  C_11
REMARK    6  A    between atoms: C_11  and  C_12
REMARK    7  A    between atoms: C_11  and  C_13
REMARK    8  A    between atoms: C_13  and  C_14
REMARK    9  A    between atoms: C_14  and  C_15
REMARK   10  A    between atoms: C_15  and  N_16
REMARK   11  A    between atoms: C_18  and  O_19
REMARK   12  A    between atoms: O_19  and  C_20
REMARK                            x       y       z     vdW  Elec       q    Type
REMARK                         _______ _______ _______ _____ _____    ______ ____
ROOT
ATOM      1  C   UNL     1       2.767   7.614  18.241  0.00  0.00    +0.000 A 
ATOM      2  C   UNL     1       2.155   7.343  19.477  0.00  0.00    +0.000 A 
ATOM      3  C   UNL     1       2.514   6.240  20.202  0.00  0.00    +0.000 A 
ATOM      4  N   UNL     1       3.462   5.391  19.809  0.00  0.00    +0.000 NA
ATOM      5  C   UNL     1       4.084   5.588  18.634  0.00  0.00    +0.000 A 
ATOM      6  C   UNL     1       5.059   4.611  18.340  0.00  0.00    +0.000 A 
ATOM      7  C   UNL     1       5.700   4.600  17.110  0.00  0.00    +0.000 A 
ATOM      8  C   UNL     1       5.492   5.624  16.204  0.00  0.00    +0.000 A 
ATOM      9  C   UNL     1       4.587   6.672  16.547  0.00  0.00    +0.000 A 
ATOM     10  C   UNL     1       3.805   6.680  17.763  0.00  0.00    +0.000 A 
ENDROOT
BRANCH   6  11
ATOM     11  N   UNL     1       5.287   3.593  19.290  0.00  0.00    +0.000 N 
ATOM     12  H   UNL     1       6.299   3.531  19.439  0.00  0.00    +0.000 HD
BRANCH  11  13
ATOM     13  C   UNL     1       4.577   2.316  19.291  0.00  0.00    +0.000 C 
ATOM     14  C   UNL     1       3.983   2.010  20.669  0.00  0.00    +0.000 C 
BRANCH  13  15
ATOM     15  C   UNL     1       3.451   2.406  18.239  0.00  0.00    +0.000 C 
BRANCH  15  16
ATOM     16  C   UNL     1       2.116   1.910  18.808  0.00  0.00    +0.000 C 
BRANCH  16  17
ATOM     17  C   UNL     1       1.046   2.994  18.778  0.00  0.00    +0.000 C 
BRANCH  17  18
ATOM     18  N   UNL     1       0.519   3.192  20.124  0.00  0.00    +0.000 NA
ATOM     19  H   UNL     1      -0.021   4.058  20.154  0.00  0.00    +0.000 HD
ATOM     20  H   UNL     1       1.288   3.312  20.779  0.00  0.00    +0.000 HD
ENDBRANCH  17  18
ENDBRANCH  16  17
ENDBRANCH  15  16
ENDBRANCH  13  15
ENDBRANCH  11  13
ENDBRANCH   6  11
BRANCH   8  21
ATOM     21  O   UNL     1       6.131   5.680  14.985  0.00  0.00    +0.000 OA
ATOM     22  C   UNL     1       6.549   4.421  14.419  0.00  0.00    +0.000 C 
ENDBRANCH   8  21
BRANCH   1  23
ATOM     23  C   UNL     1       2.274   8.925  17.572  0.00  0.00    +0.000 C 
BRANCH  23  25
ATOM     24  C   UNL     1       1.038  10.918  18.958  0.00  0.00    +0.000 C 
ATOM     25  C   UNL     1       0.996   9.552  18.265  0.00  0.00    +0.000 C 
ENDBRANCH  23  25
ENDBRANCH   1  23
TORSDOF 9
ENDMDL
MODEL 8
REMARK VINA RESULT:      -6.5      3.590      6.686
REMARK  Name = 
REMARK  12 active torsions:
REMARK  status: ('A' for Active; 'I' for Inactive)
REMARK    1  A    between atoms: C_1  and  C_2
REMARK    2  A    between atoms: C_2  and  C_3
REMARK    3  A    between atoms: C_3  and  C_4
REMARK    4  A    between atoms: C_9  and  N_10
REMARK    5  A    between atoms: N_10  and  C_11
REMARK    6  A    between atoms: C_11  and  C_12
REMARK    7  A    between atoms: C_11  and  C_13
REMARK    8  A    between atoms: C_13  and  C_14
REMARK    9  A    between atoms: C_14  and  C_15
REMARK   10  A    between atoms: C_15  and  N_16
REMARK   11  A    between atoms: C_18  and  O_19
REMARK   12  A    between atoms: O_19  and  C_20
REMARK                            x       y       z     vdW  Elec       q    Type
REMARK                         _______ _______ _______ _____ _____    ______ ____
ROOT
ATOM      1  C   UNL     1       6.508   6.138  16.628  0.00  0.00    +0.000 A 
ATOM      2  C   UNL     1       7.095   4.985  16.078  0.00  0.00    +0.000 A 
ATOM      3  C   UNL     1       6.383   3.821  15.985  0.00  0.00    +0.000 A 
ATOM      4  N   UNL     1       5.114   3.714  16.373  0.00  0.00    +0.000 NA
ATOM      5  C   UNL     1       4.493   4.777  16.912  0.00  0.00    +0.000 A 
ATOM      6  C   UNL     1       3.155   4.522  17.282  0.00  0.00    +0.000 A 
ATOM      7  C   UNL     1       2.418   5.476  17.968  0.00  0.00    +0.000 A 
ATOM      8  C   UNL     1       2.936   6.740  18.182  0.00  0.00    +0.000 A 
ATOM      9  C   UNL     1       4.249   7.033  17.709  0.00  0.00    +0.000 A 
ATOM     10  C   UNL     1       5.109   6.049  17.089  0.00  0.00    +0.000 A 
ENDROOT
BRANCH   6  11
ATOM     11  N   UNL     1       2.628   3.239  17.026  0.00  0.00    +0.000 N 
ATOM     12  H   UNL     1       1.858   3.349  16.359  0.00  0.00    +0.000 HD
BRANCH  11  13
ATOM     13  C   UNL     1       2.415   2.231  18.063  0.00  0.00    +0.000 C 
ATOM     14  C   UNL     1       3.594   2.177  19.038  0.00  0.00    +0.000 C 
BRANCH  13  15
ATOM     15  C   UNL     1       1.121   2.604  18.819  0.00  0.00    +0.000 C 
BRANCH  15  16
ATOM     16  C   UNL     1       1.375   2.734  20.326  0.00  0.00    +0.000 C 
BRANCH  16  17
ATOM     17  C   UNL     1       1.129   4.152  20.824  0.00  0.00    +0.000 C 
BRANCH  17  18
ATOM     18  N   UNL     1       2.378   4.712  21.329  0.00  0.00    +0.000 NA
ATOM     19  H   UNL     1       2.626   5.538  20.783  0.00  0.00    +0.000 HD
ATOM     20  H   UNL     1       3.132   4.043  21.196  0.00  0.00    +0.000 HD
ENDBRANCH  17  18
ENDBRANCH  16  17
ENDBRANCH  15  16
ENDBRANCH  13  15
ENDBRANCH  11  13
ENDBRANCH   6  11
BRANCH   8  21
ATOM     21  O   UNL     1       2.232   7.734  18.824  0.00  0.00    +0.000 OA
ATOM     22  C   UNL     1       1.821   8.857  18.017  0.00  0.00    +0.000 C 
ENDBRANCH   8  21
BRANCH   1  23
ATOM     23  C   UNL     1       7.438   7.380  16.617  0.00  0.00    +0.000 C 
BRANCH  23  25
ATOM     24  C   UNL     1       8.488   9.215  18.335  0.00  0.00    +0.000 C 
ATOM     25  C   UNL     1       7.941   7.812  18.055  0.00  0.00    +0.000 C 
ENDBRANCH  23  25
ENDBRANCH   1  23
TORSDOF 9
ENDMDL
MODEL 9
REMARK VINA RESULT:      -6.5      2.885      7.257
REMARK  Name = 
REMARK  12 active torsions:
REMARK  status: ('A' for Active; 'I' for Inactive)
REMARK    1  A    between atoms: C_1  and  C_2
REMARK    2  A    between atoms: C_2  and  C_3
REMARK    3  A    between atoms: C_3  and  C_4
REMARK    4  A    between atoms: C_9  and  N_10
REMARK    5  A    between atoms: N_10  and  C_11
REMARK    6  A    between atoms: C_11  and  C_12
REMARK    7  A    between atoms: C_11  and  C_13
REMARK    8  A    between atoms: C_13  and  C_14
REMARK    9  A    between atoms: C_14  and  C_15
REMARK   10  A    between atoms: C_15  and  N_16
REMARK   11  A    between atoms: C_18  and  O_19
REMARK   12  A    between atoms: O_19  and  C_20
REMARK                            x       y       z     vdW  Elec       q    Type
REMARK                         _______ _______ _______ _____ _____    ______ ____
ROOT
ATOM      1  C   UNL     1       3.113   4.689  19.103  0.00  0.00    +0.000 A 
ATOM      2  C   UNL     1       2.174   4.032  18.290  0.00  0.00    +0.000 A 
ATOM      3  C   UNL     1       2.536   3.552  17.061  0.00  0.00    +0.000 A 
ATOM      4  N   UNL     1       3.774   3.648  16.581  0.00  0.00    +0.000 NA
ATOM      5  C   UNL     1       4.721   4.269  17.305  0.00  0.00    +0.000 A 
ATOM      6  C   UNL     1       5.983   4.303  16.675  0.00  0.00    +0.000 A 
ATOM      7  C   UNL     1       7.033   5.018  17.234  0.00  0.00    +0.000 A 
ATOM      8  C   UNL     1       6.898   5.596  18.483  0.00  0.00    +0.000 A 
ATOM      9  C   UNL     1       5.655   5.467  19.170  0.00  0.00    +0.000 A 
ATOM     10  C   UNL     1       4.490   4.834  18.592  0.00  0.00    +0.000 A 
ENDROOT
BRANCH   6  11
ATOM     11  N   UNL     1       6.115   3.678  15.417  0.00  0.00    +0.000 N 
ATOM     12  H   UNL     1       6.844   2.964  15.502  0.00  0.00    +0.000 HD
BRANCH  11  13
ATOM     13  C   UNL     1       6.098   4.405  14.149  0.00  0.00    +0.000 C 
ATOM     14  C   UNL     1       7.479   4.975  13.815  0.00  0.00    +0.000 C 
BRANCH  13  15
ATOM     15  C   UNL     1       5.656   3.415  13.049  0.00  0.00    +0.000 C 
BRANCH  15  16
ATOM     16  C   UNL     1       6.586   3.484  11.832  0.00  0.00    +0.000 C 
BRANCH  16  17
ATOM     17  C   UNL     1       7.105   2.108  11.434  0.00  0.00    +0.000 C 
BRANCH  17  18
ATOM     18  N   UNL     1       5.983   1.183  11.314  0.00  0.00    +0.000 NA
ATOM     19  H   UNL     1       5.398   1.249  12.148  0.00  0.00    +0.000 HD
ATOM     20  H   UNL     1       6.330   0.227  11.282  0.00  0.00    +0.000 HD
ENDBRANCH  17  18
ENDBRANCH  16  17
ENDBRANCH  15  16
ENDBRANCH  13  15
ENDBRANCH  11  13
ENDBRANCH   6  11
BRANCH   8  21
ATOM     21  O   UNL     1       7.921   6.284  19.098  0.00  0.00    +0.000 OA
ATOM     22  C   UNL     1       8.266   7.565  18.532  0.00  0.00    +0.000 C 
ENDBRANCH   8  21
BRANCH   1  23
ATOM     23  C   UNL     1       2.549   5.129  20.480  0.00  0.00    +0.000 C 
BRANCH  23  25
ATOM     24  C   UNL     1       2.499   2.663  21.636  0.00  0.00    +0.000 C 
ATOM     25  C   UNL     1       1.800   3.974  21.262  0.00  0.00    +0.000 C 
ENDBRANCH  23  25
ENDBRANCH   1  23
TORSDOF 9
ENDMDL
