MODEL 1
REMARK VINA RESULT:      -8.1      0.000      0.000
REMARK  Name = 
REMARK  2 active torsions:
REMARK  status: ('A' for Active; 'I' for Inactive)
REMARK    1  A    between atoms: C_4  and  N_5
REMARK    2  A    between atoms: N_14  and  C_15
REMARK                            x       y       z     vdW  Elec       q    Type
REMARK                         _______ _______ _______ _____ _____    ______ ____
ROOT
ATOM      1  N   UNL     1       5.131   3.993  15.607  0.00  0.00    +0.000 NA
ATOM      2  C   UNL     1       4.659   4.957  16.337  0.00  0.00    +0.000 C 
ATOM      3  S   UNL     1       4.835   6.697  16.151  0.00  0.00    +0.000 S 
ATOM      4  C   UNL     1       3.683   7.087  17.348  0.00  0.00    +0.000 C 
ATOM      5  N   UNL     1       3.283   8.273  17.681  0.00  0.00    +0.000 NA
ATOM      6  C   UNL     1       2.369   7.970  18.822  0.00  0.00    +0.000 C 
ATOM      7  C   UNL     1       2.545   6.471  19.164  0.00  0.00    +0.000 C 
ATOM      8  N   UNL     1       3.246   5.994  18.003  0.00  0.00    +0.000 N 
ATOM      9  C   UNL     1       3.757   4.772  17.623  0.00  0.00    +0.000 C 
ATOM     10  N   UNL     1       3.656   3.563  18.093  0.00  0.00    +0.000 NA
ENDROOT
BRANCH   1  14
ATOM     11  C   UNL     1       7.517   4.483  12.116  0.00  0.00    +0.000 A 
ATOM     12  C   UNL     1       6.366   3.707  12.111  0.00  0.00    +0.000 A 
ATOM     13  C   UNL     1       5.605   3.560  13.280  0.00  0.00    +0.000 A 
ATOM     14  C   UNL     1       5.966   4.189  14.485  0.00  0.00    +0.000 A 
ATOM     15  C   UNL     1       7.088   5.025  14.442  0.00  0.00    +0.000 A 
ATOM     16  C   UNL     1       7.880   5.143  13.284  0.00  0.00    +0.000 A 
ENDBRANCH   1  14
BRANCH  10  17
ATOM     17  C   UNL     1       2.881   3.215  19.214  0.00  0.00    +0.000 A 
ATOM     18  C   UNL     1       1.495   3.078  19.157  0.00  0.00    +0.000 A 
ATOM     19  C   UNL     1       0.728   2.880  20.309  0.00  0.00    +0.000 A 
ATOM     20  C   UNL     1       1.357   2.629  21.521  0.00  0.00    +0.000 A 
ATOM     21  C   UNL     1       2.750   2.580  21.569  0.00  0.00    +0.000 A 
ATOM     22  C   UNL     1       3.505   2.894  20.427  0.00  0.00    +0.000 A 
ENDBRANCH  10  17
TORSDOF 2
ENDMDL
MODEL 2
REMARK VINA RESULT:      -7.9      2.608      7.515
REMARK  Name = 
REMARK  2 active torsions:
REMARK  status: ('A' for Active; 'I' for Inactive)
REMARK    1  A    between atoms: C_4  and  N_5
REMARK    2  A    between atoms: N_14  and  C_15
REMARK                            x       y       z     vdW  Elec       q    Type
REMARK                         _______ _______ _______ _____ _____    ______ ____
ROOT
ATOM      1  N   UNL     1       2.263   7.878  19.583  0.00  0.00    +0.000 NA
ATOM      2  C   UNL     1       2.362   6.585  19.614  0.00  0.00    +0.000 C 
ATOM      3  S   UNL     1       1.476   5.412  20.581  0.00  0.00    +0.000 S 
ATOM      4  C   UNL     1       2.074   4.053  19.742  0.00  0.00    +0.000 C 
ATOM      5  N   UNL     1       1.748   2.815  19.940  0.00  0.00    +0.000 NA
ATOM      6  C   UNL     1       2.657   2.110  18.990  0.00  0.00    +0.000 C 
ATOM      7  C   UNL     1       3.655   3.161  18.445  0.00  0.00    +0.000 C 
ATOM      8  N   UNL     1       3.021   4.389  18.846  0.00  0.00    +0.000 N 
ATOM      9  C   UNL     1       3.348   5.722  18.728  0.00  0.00    +0.000 C 
ATOM     10  N   UNL     1       4.264   6.375  18.075  0.00  0.00    +0.000 NA
ENDROOT
BRANCH   1  14
ATOM     11  C   UNL     1      -0.432  10.194  21.928  0.00  0.00    +0.000 A 
ATOM     12  C   UNL     1      -0.412  10.277  20.542  0.00  0.00    +0.000 A 
ATOM     13  C   UNL     1       0.492   9.505  19.799  0.00  0.00    +0.000 A 
ATOM     14  C   UNL     1       1.398   8.624  20.415  0.00  0.00    +0.000 A 
ATOM     15  C   UNL     1       1.306   8.505  21.807  0.00  0.00    +0.000 A 
ATOM     16  C   UNL     1       0.430   9.307  22.562  0.00  0.00    +0.000 A 
ENDBRANCH   1  14
BRANCH  10  17
ATOM     17  C   UNL     1       5.209   5.772  17.225  0.00  0.00    +0.000 A 
ATOM     18  C   UNL     1       5.065   5.747  15.838  0.00  0.00    +0.000 A 
ATOM     19  C   UNL     1       5.933   5.014  15.023  0.00  0.00    +0.000 A 
ATOM     20  C   UNL     1       7.075   4.444  15.569  0.00  0.00    +0.000 A 
ATOM     21  C   UNL     1       7.336   4.611  16.928  0.00  0.00    +0.000 A 
ATOM     22  C   UNL     1       6.397   5.250  17.754  0.00  0.00    +0.000 A 
ENDBRANCH  10  17
TORSDOF 2
ENDMDL
MODEL 3
REMARK VINA RESULT:      -7.9      2.611      7.540
REMARK  Name = 
REMARK  2 active torsions:
REMARK  status: ('A' for Active; 'I' for Inactive)
REMARK    1  A    between atoms: C_4  and  N_5
REMARK    2  A    between atoms: N_14  and  C_15
REMARK                            x       y       z     vdW  Elec       q    Type
REMARK                         _______ _______ _______ _____ _____    ______ ____
ROOT
ATOM      1  N   UNL     1       2.217   7.900  19.509  0.00  0.00    +0.000 NA
ATOM      2  C   UNL     1       2.334   6.610  19.576  0.00  0.00    +0.000 C 
ATOM      3  S   UNL     1       1.455   5.452  20.568  0.00  0.00    +0.000 S 
ATOM      4  C   UNL     1       2.081   4.078  19.773  0.00  0.00    +0.000 C 
ATOM      5  N   UNL     1       1.770   2.842  20.002  0.00  0.00    +0.000 NA
ATOM      6  C   UNL     1       2.699   2.124  19.080  0.00  0.00    +0.000 C 
ATOM      7  C   UNL     1       3.686   3.174  18.516  0.00  0.00    +0.000 C 
ATOM      8  N   UNL     1       3.032   4.403  18.876  0.00  0.00    +0.000 N 
ATOM      9  C   UNL     1       3.341   5.737  18.724  0.00  0.00    +0.000 C 
ATOM     10  N   UNL     1       4.254   6.385  18.062  0.00  0.00    +0.000 NA
ENDROOT
BRANCH   1  14
ATOM     11  C   UNL     1      -0.347  10.117  22.085  0.00  0.00    +0.000 A 
ATOM     12  C   UNL     1       0.628   9.262  22.583  0.00  0.00    +0.000 A 
ATOM     13  C   UNL     1       1.452   8.541  21.708  0.00  0.00    +0.000 A 
ATOM     14  C   UNL     1       1.334   8.656  20.312  0.00  0.00    +0.000 A 
ATOM     15  C   UNL     1       0.394   9.580  19.837  0.00  0.00    +0.000 A 
ATOM     16  C   UNL     1      -0.466  10.275  20.709  0.00  0.00    +0.000 A 
ENDBRANCH   1  14
BRANCH  10  17
ATOM     17  C   UNL     1       5.215   5.772  17.238  0.00  0.00    +0.000 A 
ATOM     18  C   UNL     1       5.080   5.695  15.852  0.00  0.00    +0.000 A 
ATOM     19  C   UNL     1       5.967   4.953  15.067  0.00  0.00    +0.000 A 
ATOM     20  C   UNL     1       7.118   4.426  15.639  0.00  0.00    +0.000 A 
ATOM     21  C   UNL     1       7.368   4.645  16.993  0.00  0.00    +0.000 A 
ATOM     22  C   UNL     1       6.411   5.294  17.791  0.00  0.00    +0.000 A 
ENDBRANCH  10  17
TORSDOF 2
ENDMDL
MODEL 4
REMARK VINA RESULT:      -7.9      2.606      7.564
REMARK  Name = 
REMARK  2 active torsions:
REMARK  status: ('A' for Active; 'I' for Inactive)
REMARK    1  A    between atoms: C_4  and  N_5
REMARK    2  A    between atoms: N_14  and  C_15
REMARK                            x       y       z     vdW  Elec       q    Type
REMARK                         _______ _______ _______ _____ _____    ______ ____
ROOT
ATOM      1  N   UNL     1       2.265   7.822  19.598  0.00  0.00    +0.000 NA
ATOM      2  C   UNL     1       2.337   6.528  19.631  0.00  0.00    +0.000 C 
ATOM      3  S   UNL     1       1.406   5.373  20.578  0.00  0.00    +0.000 S 
ATOM      4  C   UNL     1       1.997   4.002  19.752  0.00  0.00    +0.000 C 
ATOM      5  N   UNL     1       1.641   2.770  19.943  0.00  0.00    +0.000 NA
ATOM      6  C   UNL     1       2.558   2.048  19.013  0.00  0.00    +0.000 C 
ATOM      7  C   UNL     1       3.588   3.079  18.492  0.00  0.00    +0.000 C 
ATOM      8  N   UNL     1       2.970   4.318  18.878  0.00  0.00    +0.000 N 
ATOM      9  C   UNL     1       3.326   5.645  18.768  0.00  0.00    +0.000 C 
ATOM     10  N   UNL     1       4.270   6.280  18.136  0.00  0.00    +0.000 NA
ENDROOT
BRANCH   1  14
ATOM     11  C   UNL     1      -0.438  10.190  21.881  0.00  0.00    +0.000 A 
ATOM     12  C   UNL     1      -0.394  10.263  20.495  0.00  0.00    +0.000 A 
ATOM     13  C   UNL     1       0.512   9.474  19.773  0.00  0.00    +0.000 A 
ATOM     14  C   UNL     1       1.396   8.586  20.410  0.00  0.00    +0.000 A 
ATOM     15  C   UNL     1       1.279   8.477  21.801  0.00  0.00    +0.000 A 
ATOM     16  C   UNL     1       0.401   9.297  22.536  0.00  0.00    +0.000 A 
ENDBRANCH   1  14
BRANCH  10  17
ATOM     17  C   UNL     1       5.222   5.657  17.308  0.00  0.00    +0.000 A 
ATOM     18  C   UNL     1       6.378   5.061  17.808  0.00  0.00    +0.000 A 
ATOM     19  C   UNL     1       7.383   4.582  16.962  0.00  0.00    +0.000 A 
ATOM     20  C   UNL     1       7.161   4.525  15.593  0.00  0.00    +0.000 A 
ATOM     21  C   UNL     1       5.935   4.949  15.083  0.00  0.00    +0.000 A 
ATOM     22  C   UNL     1       4.982   5.533  15.933  0.00  0.00    +0.000 A 
ENDBRANCH  10  17
TORSDOF 2
ENDMDL
MODEL 5
REMARK VINA RESULT:      -7.8      2.640      7.587
REMARK  Name = 
REMARK  2 active torsions:
REMARK  status: ('A' for Active; 'I' for Inactive)
REMARK    1  A    between atoms: C_4  and  N_5
REMARK    2  A    between atoms: N_14  and  C_15
REMARK                            x       y       z     vdW  Elec       q    Type
REMARK                         _______ _______ _______ _____ _____    ______ ____
ROOT
ATOM      1  N   UNL     1       2.214   7.849  19.575  0.00  0.00    +0.000 NA
ATOM      2  C   UNL     1       2.253   6.553  19.610  0.00  0.00    +0.000 C 
ATOM      3  S   UNL     1       1.257   5.422  20.518  0.00  0.00    +0.000 S 
ATOM      4  C   UNL     1       1.847   4.036  19.716  0.00  0.00    +0.000 C 
ATOM      5  N   UNL     1       1.454   2.814  19.892  0.00  0.00    +0.000 NA
ATOM      6  C   UNL     1       2.390   2.069  19.000  0.00  0.00    +0.000 C 
ATOM      7  C   UNL     1       3.466   3.074  18.522  0.00  0.00    +0.000 C 
ATOM      8  N   UNL     1       2.862   4.328  18.883  0.00  0.00    +0.000 N 
ATOM      9  C   UNL     1       3.255   5.646  18.788  0.00  0.00    +0.000 C 
ATOM     10  N   UNL     1       4.239   6.257  18.195  0.00  0.00    +0.000 NA
ENDROOT
BRANCH   1  14
ATOM     11  C   UNL     1      -0.348  10.156  22.073  0.00  0.00    +0.000 A 
ATOM     12  C   UNL     1       0.619   9.309  22.601  0.00  0.00    +0.000 A 
ATOM     13  C   UNL     1       1.442   8.558  21.751  0.00  0.00    +0.000 A 
ATOM     14  C   UNL     1       1.332   8.634  20.351  0.00  0.00    +0.000 A 
ATOM     15  C   UNL     1       0.401   9.549  19.846  0.00  0.00    +0.000 A 
ATOM     16  C   UNL     1      -0.459  10.275  20.693  0.00  0.00    +0.000 A 
ENDBRANCH   1  14
BRANCH  10  17
ATOM     17  C   UNL     1       5.208   5.611  17.407  0.00  0.00    +0.000 A 
ATOM     18  C   UNL     1       6.402   5.120  17.934  0.00  0.00    +0.000 A 
ATOM     19  C   UNL     1       7.416   4.618  17.114  0.00  0.00    +0.000 A 
ATOM     20  C   UNL     1       7.176   4.427  15.760  0.00  0.00    +0.000 A 
ATOM     21  C   UNL     1       5.922   4.743  15.239  0.00  0.00    +0.000 A 
ATOM     22  C   UNL     1       4.954   5.352  16.053  0.00  0.00    +0.000 A 
ENDBRANCH  10  17
TORSDOF 2
ENDMDL
MODEL 6
REMARK VINA RESULT:      -7.8      0.080      1.023
REMARK  Name = 
REMARK  2 active torsions:
REMARK  status: ('A' for Active; 'I' for Inactive)
REMARK    1  A    between atoms: C_4  and  N_5
REMARK    2  A    between atoms: N_14  and  C_15
REMARK                            x       y       z     vdW  Elec       q    Type
REMARK                         _______ _______ _______ _____ _____    ______ ____
ROOT
ATOM      1  N   UNL     1       5.127   4.009  15.637  0.00  0.00    +0.000 NA
ATOM      2  C   UNL     1       4.656   4.983  16.352  0.00  0.00    +0.000 C 
ATOM      3  S   UNL     1       4.825   6.721  16.134  0.00  0.00    +0.000 S 
ATOM      4  C   UNL     1       3.679   7.127  17.331  0.00  0.00    +0.000 C 
ATOM      5  N   UNL     1       3.276   8.318  17.646  0.00  0.00    +0.000 NA
ATOM      6  C   UNL     1       2.371   8.032  18.798  0.00  0.00    +0.000 C 
ATOM      7  C   UNL     1       2.553   6.540  19.165  0.00  0.00    +0.000 C 
ATOM      8  N   UNL     1       3.250   6.045  18.008  0.00  0.00    +0.000 N 
ATOM      9  C   UNL     1       3.762   4.818  17.647  0.00  0.00    +0.000 C 
ATOM     10  N   UNL     1       3.669   3.618  18.139  0.00  0.00    +0.000 NA
ENDROOT
BRANCH   1  14
ATOM     11  C   UNL     1       7.489   4.448  12.122  0.00  0.00    +0.000 A 
ATOM     12  C   UNL     1       6.332   3.681  12.134  0.00  0.00    +0.000 A 
ATOM     13  C   UNL     1       5.579   3.551  13.310  0.00  0.00    +0.000 A 
ATOM     14  C   UNL     1       5.955   4.187  14.506  0.00  0.00    +0.000 A 
ATOM     15  C   UNL     1       7.083   5.014  14.447  0.00  0.00    +0.000 A 
ATOM     16  C   UNL     1       7.867   5.114  13.282  0.00  0.00    +0.000 A 
ENDBRANCH   1  14
BRANCH  10  17
ATOM     17  C   UNL     1       2.902   3.286  19.270  0.00  0.00    +0.000 A 
ATOM     18  C   UNL     1       3.471   3.047  20.521  0.00  0.00    +0.000 A 
ATOM     19  C   UNL     1       2.711   2.573  21.595  0.00  0.00    +0.000 A 
ATOM     20  C   UNL     1       1.329   2.507  21.486  0.00  0.00    +0.000 A 
ATOM     21  C   UNL     1       0.719   2.916  20.301  0.00  0.00    +0.000 A 
ATOM     22  C   UNL     1       1.503   3.281  19.194  0.00  0.00    +0.000 A 
ENDBRANCH  10  17
TORSDOF 2
ENDMDL
MODEL 7
REMARK VINA RESULT:      -7.8      0.120      1.022
REMARK  Name = 
REMARK  2 active torsions:
REMARK  status: ('A' for Active; 'I' for Inactive)
REMARK    1  A    between atoms: C_4  and  N_5
REMARK    2  A    between atoms: N_14  and  C_15
REMARK                            x       y       z     vdW  Elec       q    Type
REMARK                         _______ _______ _______ _____ _____    ______ ____
ROOT
ATOM      1  N   UNL     1       5.078   4.002  15.584  0.00  0.00    +0.000 NA
ATOM      2  C   UNL     1       4.617   4.962  16.325  0.00  0.00    +0.000 C 
ATOM      3  S   UNL     1       4.792   6.703  16.145  0.00  0.00    +0.000 S 
ATOM      4  C   UNL     1       3.658   7.088  17.360  0.00  0.00    +0.000 C 
ATOM      5  N   UNL     1       3.264   8.273  17.704  0.00  0.00    +0.000 NA
ATOM      6  C   UNL     1       2.366   7.966  18.857  0.00  0.00    +0.000 C 
ATOM      7  C   UNL     1       2.545   6.465  19.190  0.00  0.00    +0.000 C 
ATOM      8  N   UNL     1       3.230   5.993  18.016  0.00  0.00    +0.000 N 
ATOM      9  C   UNL     1       3.733   4.772  17.623  0.00  0.00    +0.000 C 
ATOM     10  N   UNL     1       3.639   3.561  18.089  0.00  0.00    +0.000 NA
ENDROOT
BRANCH   1  14
ATOM     11  C   UNL     1       7.671   4.702  12.282  0.00  0.00    +0.000 A 
ATOM     12  C   UNL     1       7.910   5.262  13.530  0.00  0.00    +0.000 A 
ATOM     13  C   UNL     1       7.033   5.017  14.596  0.00  0.00    +0.000 A 
ATOM     14  C   UNL     1       5.897   4.201  14.451  0.00  0.00    +0.000 A 
ATOM     15  C   UNL     1       5.721   3.590  13.203  0.00  0.00    +0.000 A 
ATOM     16  C   UNL     1       6.573   3.866  12.117  0.00  0.00    +0.000 A 
ENDBRANCH   1  14
BRANCH  10  17
ATOM     17  C   UNL     1       2.879   3.208  19.220  0.00  0.00    +0.000 A 
ATOM     18  C   UNL     1       1.492   3.072  19.182  0.00  0.00    +0.000 A 
ATOM     19  C   UNL     1       0.742   2.869  20.344  0.00  0.00    +0.000 A 
ATOM     20  C   UNL     1       1.388   2.613  21.545  0.00  0.00    +0.000 A 
ATOM     21  C   UNL     1       2.781   2.564  21.573  0.00  0.00    +0.000 A 
ATOM     22  C   UNL     1       3.521   2.882  20.422  0.00  0.00    +0.000 A 
ENDBRANCH  10  17
TORSDOF 2
ENDMDL
MODEL 8
REMARK VINA RESULT:      -7.5      0.136      1.446
REMARK  Name = 
REMARK  2 active torsions:
REMARK  status: ('A' for Active; 'I' for Inactive)
REMARK    1  A    between atoms: C_4  and  N_5
REMARK    2  A    between atoms: N_14  and  C_15
REMARK                            x       y       z     vdW  Elec       q    Type
REMARK                         _______ _______ _______ _____ _____    ______ ____
ROOT
ATOM      1  N   UNL     1       5.068   4.019  15.621  0.00  0.00    +0.000 NA
ATOM      2  C   UNL     1       4.611   4.995  16.344  0.00  0.00    +0.000 C 
ATOM      3  S   UNL     1       4.785   6.732  16.128  0.00  0.00    +0.000 S 
ATOM      4  C   UNL     1       3.658   7.141  17.341  0.00  0.00    +0.000 C 
ATOM      5  N   UNL     1       3.265   8.333  17.663  0.00  0.00    +0.000 NA
ATOM      6  C   UNL     1       2.374   8.049  18.827  0.00  0.00    +0.000 C 
ATOM      7  C   UNL     1       2.554   6.556  19.189  0.00  0.00    +0.000 C 
ATOM      8  N   UNL     1       3.233   6.060  18.022  0.00  0.00    +0.000 N 
ATOM      9  C   UNL     1       3.735   4.831  17.651  0.00  0.00    +0.000 C 
ATOM     10  N   UNL     1       3.643   3.630  18.142  0.00  0.00    +0.000 NA
ENDROOT
BRANCH   1  14
ATOM     11  C   UNL     1       7.646   4.650  12.292  0.00  0.00    +0.000 A 
ATOM     12  C   UNL     1       7.901   5.221  13.532  0.00  0.00    +0.000 A 
ATOM     13  C   UNL     1       7.028   4.999  14.607  0.00  0.00    +0.000 A 
ATOM     14  C   UNL     1       5.881   4.196  14.479  0.00  0.00    +0.000 A 
ATOM     15  C   UNL     1       5.689   3.574  13.240  0.00  0.00    +0.000 A 
ATOM     16  C   UNL     1       6.536   3.826  12.145  0.00  0.00    +0.000 A 
ENDBRANCH   1  14
BRANCH  10  17
ATOM     17  C   UNL     1       2.889   3.300  19.283  0.00  0.00    +0.000 A 
ATOM     18  C   UNL     1       3.473   3.062  20.527  0.00  0.00    +0.000 A 
ATOM     19  C   UNL     1       2.727   2.589  21.610  0.00  0.00    +0.000 A 
ATOM     20  C   UNL     1       1.344   2.524  21.518  0.00  0.00    +0.000 A 
ATOM     21  C   UNL     1       0.719   2.931  20.340  0.00  0.00    +0.000 A 
ATOM     22  C   UNL     1       1.489   3.294  19.223  0.00  0.00    +0.000 A 
ENDBRANCH  10  17
TORSDOF 2
ENDMDL
MODEL 9
REMARK VINA RESULT:      -7.4      2.742      7.301
REMARK  Name = 
REMARK  2 active torsions:
REMARK  status: ('A' for Active; 'I' for Inactive)
REMARK    1  A    between atoms: C_4  and  N_5
REMARK    2  A    between atoms: N_14  and  C_15
REMARK                            x       y       z     vdW  Elec       q    Type
REMARK                         _______ _______ _______ _____ _____    ______ ____
ROOT
ATOM      1  N   UNL     1       1.932   8.615  18.609  0.00  0.00    +0.000 NA
ATOM      2  C   UNL     1       2.184   7.477  19.178  0.00  0.00    +0.000 C 
ATOM      3  S   UNL     1       1.437   6.735  20.588  0.00  0.00    +0.000 S 
ATOM      4  C   UNL     1       2.200   5.224  20.377  0.00  0.00    +0.000 C 
ATOM      5  N   UNL     1       2.022   4.159  21.093  0.00  0.00    +0.000 NA
ATOM      6  C   UNL     1       3.016   3.224  20.491  0.00  0.00    +0.000 C 
ATOM      7  C   UNL     1       3.886   4.048  19.511  0.00  0.00    +0.000 C 
ATOM      8  N   UNL     1       3.107   5.251  19.382  0.00  0.00    +0.000 N 
ATOM      9  C   UNL     1       3.274   6.435  18.698  0.00  0.00    +0.000 C 
ATOM     10  N   UNL     1       4.110   6.847  17.791  0.00  0.00    +0.000 NA
ENDROOT
BRANCH   1  14
ATOM     11  C   UNL     1      -1.047  11.379  19.876  0.00  0.00    +0.000 A 
ATOM     12  C   UNL     1      -1.076  10.802  18.614  0.00  0.00    +0.000 A 
ATOM     13  C   UNL     1      -0.076   9.899  18.224  0.00  0.00    +0.000 A 
ATOM     14  C   UNL     1       0.978   9.542  19.084  0.00  0.00    +0.000 A 
ATOM     15  C   UNL     1       0.942  10.081  20.375  0.00  0.00    +0.000 A 
ATOM     16  C   UNL     1      -0.035  11.020  20.758  0.00  0.00    +0.000 A 
ENDBRANCH   1  14
BRANCH  10  17
ATOM     17  C   UNL     1       5.127   6.049  17.236  0.00  0.00    +0.000 A 
ATOM     18  C   UNL     1       4.991   5.404  16.007  0.00  0.00    +0.000 A 
ATOM     19  C   UNL     1       5.948   4.497  15.543  0.00  0.00    +0.000 A 
ATOM     20  C   UNL     1       7.154   4.362  16.218  0.00  0.00    +0.000 A 
ATOM     21  C   UNL     1       7.389   5.136  17.354  0.00  0.00    +0.000 A 
ATOM     22  C   UNL     1       6.373   5.956  17.871  0.00  0.00    +0.000 A 
ENDBRANCH  10  17
TORSDOF 2
ENDMDL
