MODEL 1
REMARK VINA RESULT:      -6.4      0.000      0.000
REMARK  Name = 
REMARK  11 active torsions:
REMARK  status: ('A' for Active; 'I' for Inactive)
REMARK    1  A    between atoms: C_1  and  C_2
REMARK    2  A    between atoms: C_2  and  N_3
REMARK    3  A    between atoms: N_3  and  C_4
REMARK    4  A    between atoms: C_4  and  C_5
REMARK    5  A    between atoms: C_5  and  C_6
REMARK    6  A    between atoms: C_6  and  C_7
REMARK    7  A    between atoms: C_7  and  N_8
REMARK    8  A    between atoms: C_7  and  C_9
REMARK    9  A    between atoms: C_9  and  C_10
REMARK   10  A    between atoms: N_12  and  C_13
REMARK   11  A    between atoms: N_12  and  C_14
REMARK                            x       y       z     vdW  Elec       q    Type
REMARK                         _______ _______ _______ _____ _____    ______ ____
ROOT
ATOM      1  C   UNL     1       3.952   5.685  19.125  0.00  0.00    +0.000 C 
ATOM      2  O   UNL     1       4.264   4.810  19.919  0.00  0.00    +0.000 OA
ATOM      3  N   UNL     1       4.775   5.960  18.050  0.00  0.00    +0.000 N 
ATOM      4  C   UNL     1       4.436   6.991  17.068  0.00  0.00    +0.000 C 
ENDROOT
BRANCH   3   5
ATOM      5  C   UNL     1       6.028   5.228  17.785  0.00  0.00    +0.000 C 
ATOM      6  C   UNL     1       5.881   3.961  16.909  0.00  0.00    +0.000 C 
ATOM      7  N   UNL     1       6.123   4.183  15.497  0.00  0.00    +0.000 NA
ATOM      8  C   UNL     1       6.971   5.062  15.065  0.00  0.00    +0.000 C 
ATOM      9  N   UNL     1       7.334   5.126  13.680  0.00  0.00    +0.000 N 
ATOM     10  C   UNL     1       6.926   4.243  12.722  0.00  0.00    +0.000 C 
ATOM     11  N   UNL     1       7.361   4.380  11.446  0.00  0.00    +0.000 N 
ATOM     12  O   UNL     1       6.175   3.319  12.998  0.00  0.00    +0.000 OA
ATOM     13  N   UNL     1       7.547   6.005  15.967  0.00  0.00    +0.000 N 
ATOM     14  C   UNL     1       7.099   6.138  17.240  0.00  0.00    +0.000 C 
ATOM     15  O   UNL     1       7.546   7.026  17.950  0.00  0.00    +0.000 OA
ATOM     16  H   UNL     1       7.982   5.878  13.399  0.00  0.00    +0.000 HD
ATOM     17  H   UNL     1       7.998   5.146  11.181  0.00  0.00    +0.000 HD
ATOM     18  H   UNL     1       7.065   3.713  10.718  0.00  0.00    +0.000 HD
ATOM     19  H   UNL     1       8.267   6.657  15.618  0.00  0.00    +0.000 HD
ENDBRANCH   3   5
BRANCH   1  20
ATOM     20  C   UNL     1       2.634   6.436  19.337  0.00  0.00    +0.000 C 
BRANCH  20  21
ATOM     21  C   UNL     1       1.856   6.132  20.651  0.00  0.00    +0.000 C 
BRANCH  21  22
ATOM     22  N   UNL     1       1.258   7.357  21.198  0.00  0.00    +0.000 NA
ATOM     23  H   UNL     1       0.451   7.117  21.820  0.00  0.00    +0.000 HD
ATOM     24  H   UNL     1       0.918   7.989  20.441  0.00  0.00    +0.000 HD
ENDBRANCH  21  22
BRANCH  21  25
ATOM     25  C   UNL     1       0.710   5.098  20.445  0.00  0.00    +0.000 C 
BRANCH  25  26
ATOM     26  C   UNL     1       1.175   3.630  20.460  0.00  0.00    +0.000 C 
BRANCH  26  27
ATOM     27  C   UNL     1       0.881   2.907  19.137  0.00  0.00    +0.000 C 
BRANCH  27  28
ATOM     28  N   UNL     1       1.923   3.243  18.157  0.00  0.00    +0.000 NA
ATOM     29  H   UNL     1       1.476   3.747  17.356  0.00  0.00    +0.000 HD
BRANCH  28  31
ATOM     30  C   UNL     1       3.683   1.594  18.591  0.00  0.00    +0.000 C 
ATOM     31  C   UNL     1       2.580   2.039  17.633  0.00  0.00    +0.000 C 
ENDBRANCH  28  31
ENDBRANCH  27  28
ENDBRANCH  26  27
ENDBRANCH  25  26
ENDBRANCH  21  25
ENDBRANCH  20  21
ENDBRANCH   1  20
TORSDOF 9
ENDMDL
MODEL 2
REMARK VINA RESULT:      -6.4      2.534      6.816
REMARK  Name = 
REMARK  11 active torsions:
REMARK  status: ('A' for Active; 'I' for Inactive)
REMARK    1  A    between atoms: C_1  and  C_2
REMARK    2  A    between atoms: C_2  and  N_3
REMARK    3  A    between atoms: N_3  and  C_4
REMARK    4  A    between atoms: C_4  and  C_5
REMARK    5  A    between atoms: C_5  and  C_6
REMARK    6  A    between atoms: C_6  and  C_7
REMARK    7  A    between atoms: C_7  and  N_8
REMARK    8  A    between atoms: C_7  and  C_9
REMARK    9  A    between atoms: C_9  and  C_10
REMARK   10  A    between atoms: N_12  and  C_13
REMARK   11  A    between atoms: N_12  and  C_14
REMARK                            x       y       z     vdW  Elec       q    Type
REMARK                         _______ _______ _______ _____ _____    ______ ____
ROOT
ATOM      1  C   UNL     1       6.379   4.911  16.427  0.00  0.00    +0.000 C 
ATOM      2  O   UNL     1       5.648   3.969  16.696  0.00  0.00    +0.000 OA
ATOM      3  N   UNL     1       6.307   6.069  17.177  0.00  0.00    +0.000 N 
ATOM      4  C   UNL     1       7.170   7.219  16.898  0.00  0.00    +0.000 C 
ENDROOT
BRANCH   3   5
ATOM      5  C   UNL     1       5.395   6.233  18.325  0.00  0.00    +0.000 C 
ATOM      6  C   UNL     1       3.895   6.351  17.966  0.00  0.00    +0.000 C 
ATOM      7  N   UNL     1       3.170   5.096  18.018  0.00  0.00    +0.000 NA
ATOM      8  C   UNL     1       3.469   4.152  18.853  0.00  0.00    +0.000 C 
ATOM      9  N   UNL     1       2.621   3.009  19.018  0.00  0.00    +0.000 N 
ATOM     10  C   UNL     1       1.407   2.842  18.416  0.00  0.00    +0.000 C 
ATOM     11  N   UNL     1       0.671   1.733  18.672  0.00  0.00    +0.000 N 
ATOM     12  O   UNL     1       0.964   3.685  17.650  0.00  0.00    +0.000 OA
ATOM     13  N   UNL     1       4.672   4.227  19.618  0.00  0.00    +0.000 N 
ATOM     14  C   UNL     1       5.617   5.167  19.367  0.00  0.00    +0.000 C 
ATOM     15  O   UNL     1       6.678   5.134  19.972  0.00  0.00    +0.000 OA
ATOM     16  H   UNL     1       2.942   2.277  19.669  0.00  0.00    +0.000 HD
ATOM     17  H   UNL     1       1.015   1.005  19.316  0.00  0.00    +0.000 HD
ATOM     18  H   UNL     1      -0.250   1.602  18.229  0.00  0.00    +0.000 HD
ATOM     19  H   UNL     1       4.863   3.499  20.323  0.00  0.00    +0.000 HD
ENDBRANCH   3   5
BRANCH   1  20
ATOM     20  C   UNL     1       7.375   4.764  15.273  0.00  0.00    +0.000 C 
BRANCH  20  21
ATOM     21  C   UNL     1       6.798   4.861  13.830  0.00  0.00    +0.000 C 
BRANCH  21  22
ATOM     22  N   UNL     1       7.814   5.361  12.894  0.00  0.00    +0.000 NA
ATOM     23  H   UNL     1       8.257   6.230  13.274  0.00  0.00    +0.000 HD
ATOM     24  H   UNL     1       7.401   5.577  11.961  0.00  0.00    +0.000 HD
ENDBRANCH  21  22
BRANCH  21  25
ATOM     25  C   UNL     1       6.293   3.490  13.292  0.00  0.00    +0.000 C 
BRANCH  25  26
ATOM     26  C   UNL     1       5.923   3.497  11.797  0.00  0.00    +0.000 C 
BRANCH  26  27
ATOM     27  C   UNL     1       4.480   3.032  11.547  0.00  0.00    +0.000 C 
BRANCH  27  28
ATOM     28  N   UNL     1       3.716   4.127  10.932  0.00  0.00    +0.000 NA
ATOM     29  H   UNL     1       3.033   4.492  11.636  0.00  0.00    +0.000 HD
BRANCH  28  31
ATOM     30  C   UNL     1       2.343   4.864   9.041  0.00  0.00    +0.000 C 
ATOM     31  C   UNL     1       2.963   3.667   9.759  0.00  0.00    +0.000 C 
ENDBRANCH  28  31
ENDBRANCH  27  28
ENDBRANCH  26  27
ENDBRANCH  25  26
ENDBRANCH  21  25
ENDBRANCH  20  21
ENDBRANCH   1  20
TORSDOF 9
ENDMDL
MODEL 3
REMARK VINA RESULT:      -6.3      0.995      1.181
REMARK  Name = 
REMARK  11 active torsions:
REMARK  status: ('A' for Active; 'I' for Inactive)
REMARK    1  A    between atoms: C_1  and  C_2
REMARK    2  A    between atoms: C_2  and  N_3
REMARK    3  A    between atoms: N_3  and  C_4
REMARK    4  A    between atoms: C_4  and  C_5
REMARK    5  A    between atoms: C_5  and  C_6
REMARK    6  A    between atoms: C_6  and  C_7
REMARK    7  A    between atoms: C_7  and  N_8
REMARK    8  A    between atoms: C_7  and  C_9
REMARK    9  A    between atoms: C_9  and  C_10
REMARK   10  A    between atoms: N_12  and  C_13
REMARK   11  A    between atoms: N_12  and  C_14
REMARK                            x       y       z     vdW  Elec       q    Type
REMARK                         _______ _______ _______ _____ _____    ______ ____
ROOT
ATOM      1  C   UNL     1       4.205   5.803  19.230  0.00  0.00    +0.000 C 
ATOM      2  O   UNL     1       4.628   5.037  20.082  0.00  0.00    +0.000 OA
ATOM      3  N   UNL     1       4.917   5.988  18.060  0.00  0.00    +0.000 N 
ATOM      4  C   UNL     1       4.443   6.888  17.007  0.00  0.00    +0.000 C 
ENDROOT
BRANCH   3   5
ATOM      5  C   UNL     1       6.176   5.280  17.762  0.00  0.00    +0.000 C 
ATOM      6  C   UNL     1       6.027   3.991  16.920  0.00  0.00    +0.000 C 
ATOM      7  N   UNL     1       6.209   4.187  15.494  0.00  0.00    +0.000 NA
ATOM      8  C   UNL     1       7.016   5.076  15.011  0.00  0.00    +0.000 C 
ATOM      9  N   UNL     1       7.324   5.118  13.612  0.00  0.00    +0.000 N 
ATOM     10  C   UNL     1       6.901   4.204  12.690  0.00  0.00    +0.000 C 
ATOM     11  N   UNL     1       7.283   4.323  11.395  0.00  0.00    +0.000 N 
ATOM     12  O   UNL     1       6.185   3.269  13.015  0.00  0.00    +0.000 OA
ATOM     13  N   UNL     1       7.604   6.053  15.869  0.00  0.00    +0.000 N 
ATOM     14  C   UNL     1       7.203   6.203  17.156  0.00  0.00    +0.000 C 
ATOM     15  O   UNL     1       7.654   7.118  17.829  0.00  0.00    +0.000 OA
ATOM     16  H   UNL     1       7.941   5.878  13.290  0.00  0.00    +0.000 HD
ATOM     17  H   UNL     1       7.890   5.098  11.089  0.00  0.00    +0.000 HD
ATOM     18  H   UNL     1       6.975   3.633  10.693  0.00  0.00    +0.000 HD
ATOM     19  H   UNL     1       8.293   6.714  15.478  0.00  0.00    +0.000 HD
ENDBRANCH   3   5
BRANCH   1  20
ATOM     20  C   UNL     1       2.875   6.522  19.480  0.00  0.00    +0.000 C 
BRANCH  20  21
ATOM     21  C   UNL     1       1.580   5.669  19.342  0.00  0.00    +0.000 C 
BRANCH  21  22
ATOM     22  N   UNL     1       1.664   4.778  18.177  0.00  0.00    +0.000 NA
ATOM     23  H   UNL     1       0.705   4.489  17.875  0.00  0.00    +0.000 HD
ATOM     24  H   UNL     1       2.219   3.920  18.391  0.00  0.00    +0.000 HD
ENDBRANCH  21  22
BRANCH  21  25
ATOM     25  C   UNL     1       1.305   4.786  20.594  0.00  0.00    +0.000 C 
BRANCH  25  26
ATOM     26  C   UNL     1       0.918   3.331  20.267  0.00  0.00    +0.000 C 
BRANCH  26  27
ATOM     27  C   UNL     1       1.967   2.321  20.754  0.00  0.00    +0.000 C 
BRANCH  27  28
ATOM     28  N   UNL     1       3.225   2.537  20.025  0.00  0.00    +0.000 NA
ATOM     29  H   UNL     1       3.155   3.440  19.501  0.00  0.00    +0.000 HD
BRANCH  28  31
ATOM     30  C   UNL     1       3.201   1.968  17.642  0.00  0.00    +0.000 C 
ATOM     31  C   UNL     1       3.479   1.464  19.056  0.00  0.00    +0.000 C 
ENDBRANCH  28  31
ENDBRANCH  27  28
ENDBRANCH  26  27
ENDBRANCH  25  26
ENDBRANCH  21  25
ENDBRANCH  20  21
ENDBRANCH   1  20
TORSDOF 9
ENDMDL
MODEL 4
REMARK VINA RESULT:      -6.3      3.044      5.478
REMARK  Name = 
REMARK  11 active torsions:
REMARK  status: ('A' for Active; 'I' for Inactive)
REMARK    1  A    between atoms: C_1  and  C_2
REMARK    2  A    between atoms: C_2  and  N_3
REMARK    3  A    between atoms: N_3  and  C_4
REMARK    4  A    between atoms: C_4  and  C_5
REMARK    5  A    between atoms: C_5  and  C_6
REMARK    6  A    between atoms: C_6  and  C_7
REMARK    7  A    between atoms: C_7  and  N_8
REMARK    8  A    between atoms: C_7  and  C_9
REMARK    9  A    between atoms: C_9  and  C_10
REMARK   10  A    between atoms: N_12  and  C_13
REMARK   11  A    between atoms: N_12  and  C_14
REMARK                            x       y       z     vdW  Elec       q    Type
REMARK                         _______ _______ _______ _____ _____    ______ ____
ROOT
ATOM      1  C   UNL     1       2.492   5.325  19.844  0.00  0.00    +0.000 C 
ATOM      2  O   UNL     1       3.584   5.651  19.403  0.00  0.00    +0.000 OA
ATOM      3  N   UNL     1       2.025   4.041  19.636  0.00  0.00    +0.000 N 
ATOM      4  C   UNL     1       0.728   3.603  20.155  0.00  0.00    +0.000 C 
ENDROOT
BRANCH   3   5
ATOM      5  C   UNL     1       2.794   3.009  18.916  0.00  0.00    +0.000 C 
ATOM      6  C   UNL     1       2.854   3.179  17.380  0.00  0.00    +0.000 C 
ATOM      7  N   UNL     1       4.028   3.886  16.906  0.00  0.00    +0.000 NA
ATOM      8  C   UNL     1       5.176   3.811  17.501  0.00  0.00    +0.000 C 
ATOM      9  N   UNL     1       6.360   4.357  16.907  0.00  0.00    +0.000 N 
ATOM     10  C   UNL     1       6.427   4.902  15.657  0.00  0.00    +0.000 C 
ATOM     11  N   UNL     1       7.611   5.358  15.180  0.00  0.00    +0.000 N 
ATOM     12  O   UNL     1       5.433   4.980  14.951  0.00  0.00    +0.000 OA
ATOM     13  N   UNL     1       5.277   3.193  18.784  0.00  0.00    +0.000 N 
ATOM     14  C   UNL     1       4.177   2.842  19.494  0.00  0.00    +0.000 C 
ATOM     15  O   UNL     1       4.301   2.412  20.631  0.00  0.00    +0.000 OA
ATOM     16  H   UNL     1       7.230   4.298  17.456  0.00  0.00    +0.000 HD
ATOM     17  H   UNL     1       8.469   5.303  15.749  0.00  0.00    +0.000 HD
ATOM     18  H   UNL     1       7.674   5.763  14.235  0.00  0.00    +0.000 HD
ATOM     19  H   UNL     1       6.208   3.086  19.216  0.00  0.00    +0.000 HD
ENDBRANCH   3   5
BRANCH   1  20
ATOM     20  C   UNL     1       1.682   6.352  20.640  0.00  0.00    +0.000 C 
BRANCH  20  21
ATOM     21  C   UNL     1       1.952   7.854  20.329  0.00  0.00    +0.000 C 
BRANCH  21  22
ATOM     22  N   UNL     1       2.056   8.076  18.881  0.00  0.00    +0.000 NA
ATOM     23  H   UNL     1       2.527   8.990  18.689  0.00  0.00    +0.000 HD
ATOM     24  H   UNL     1       1.117   8.083  18.426  0.00  0.00    +0.000 HD
ENDBRANCH  21  22
BRANCH  21  25
ATOM     25  C   UNL     1       0.834   8.791  20.872  0.00  0.00    +0.000 C 
BRANCH  25  26
ATOM     26  C   UNL     1       0.544  10.011  19.977  0.00  0.00    +0.000 C 
BRANCH  26  27
ATOM     27  C   UNL     1      -0.807  10.667  20.297  0.00  0.00    +0.000 C 
BRANCH  27  28
ATOM     28  N   UNL     1      -0.594  12.081  20.634  0.00  0.00    +0.000 NA
ATOM     29  H   UNL     1       0.269  12.413  20.145  0.00  0.00    +0.000 HD
BRANCH  28  31
ATOM     30  C   UNL     1      -1.397  11.400  22.846  0.00  0.00    +0.000 C 
ATOM     31  C   UNL     1      -0.406  12.271  22.077  0.00  0.00    +0.000 C 
ENDBRANCH  28  31
ENDBRANCH  27  28
ENDBRANCH  26  27
ENDBRANCH  25  26
ENDBRANCH  21  25
ENDBRANCH  20  21
ENDBRANCH   1  20
TORSDOF 9
ENDMDL
MODEL 5
REMARK VINA RESULT:      -6.3      3.152      4.566
REMARK  Name = 
REMARK  11 active torsions:
REMARK  status: ('A' for Active; 'I' for Inactive)
REMARK    1  A    between atoms: C_1  and  C_2
REMARK    2  A    between atoms: C_2  and  N_3
REMARK    3  A    between atoms: N_3  and  C_4
REMARK    4  A    between atoms: C_4  and  C_5
REMARK    5  A    between atoms: C_5  and  C_6
REMARK    6  A    between atoms: C_6  and  C_7
REMARK    7  A    between atoms: C_7  and  N_8
REMARK    8  A    between atoms: C_7  and  C_9
REMARK    9  A    between atoms: C_9  and  C_10
REMARK   10  A    between atoms: N_12  and  C_13
REMARK   11  A    between atoms: N_12  and  C_14
REMARK                            x       y       z     vdW  Elec       q    Type
REMARK                         _______ _______ _______ _____ _____    ______ ____
ROOT
ATOM      1  C   UNL     1       3.500   6.085  18.135  0.00  0.00    +0.000 C 
ATOM      2  O   UNL     1       4.256   6.483  17.260  0.00  0.00    +0.000 OA
ATOM      3  N   UNL     1       3.792   4.917  18.813  0.00  0.00    +0.000 N 
ATOM      4  C   UNL     1       2.921   4.409  19.874  0.00  0.00    +0.000 C 
ENDROOT
BRANCH   3   5
ATOM      5  C   UNL     1       5.001   4.114  18.554  0.00  0.00    +0.000 C 
ATOM      6  C   UNL     1       5.011   3.346  17.211  0.00  0.00    +0.000 C 
ATOM      7  N   UNL     1       5.672   4.050  16.128  0.00  0.00    +0.000 NA
ATOM      8  C   UNL     1       6.679   4.841  16.323  0.00  0.00    +0.000 C 
ATOM      9  N   UNL     1       7.434   5.367  15.225  0.00  0.00    +0.000 N 
ATOM     10  C   UNL     1       7.250   5.028  13.915  0.00  0.00    +0.000 C 
ATOM     11  N   UNL     1       8.049   5.563  12.960  0.00  0.00    +0.000 N 
ATOM     12  O   UNL     1       6.377   4.239  13.587  0.00  0.00    +0.000 OA
ATOM     13  N   UNL     1       7.044   5.221  17.649  0.00  0.00    +0.000 N 
ATOM     14  C   UNL     1       6.257   4.933  18.715  0.00  0.00    +0.000 C 
ATOM     15  O   UNL     1       6.550   5.365  19.819  0.00  0.00    +0.000 OA
ATOM     16  H   UNL     1       8.196   6.024  15.452  0.00  0.00    +0.000 HD
ATOM     17  H   UNL     1       8.797   6.229  13.204  0.00  0.00    +0.000 HD
ATOM     18  H   UNL     1       7.923   5.307  11.969  0.00  0.00    +0.000 HD
ATOM     19  H   UNL     1       7.886   5.802  17.790  0.00  0.00    +0.000 HD
ENDBRANCH   3   5
BRANCH   1  20
ATOM     20  C   UNL     1       2.257   6.916  18.469  0.00  0.00    +0.000 C 
BRANCH  20  21
ATOM     21  C   UNL     1       2.444   8.461  18.542  0.00  0.00    +0.000 C 
BRANCH  21  22
ATOM     22  N   UNL     1       2.518   9.041  17.195  0.00  0.00    +0.000 NA
ATOM     23  H   UNL     1       1.714   8.708  16.614  0.00  0.00    +0.000 HD
ATOM     24  H   UNL     1       3.407   8.782  16.714  0.00  0.00    +0.000 HD
ENDBRANCH  21  22
BRANCH  21  25
ATOM     25  C   UNL     1       1.283   9.171  19.299  0.00  0.00    +0.000 C 
BRANCH  25  26
ATOM     26  C   UNL     1       0.768  10.447  18.608  0.00  0.00    +0.000 C 
BRANCH  26  27
ATOM     27  C   UNL     1      -0.714  10.720  18.908  0.00  0.00    +0.000 C 
BRANCH  27  28
ATOM     28  N   UNL     1      -1.393  11.128  17.671  0.00  0.00    +0.000 NA
ATOM     29  H   UNL     1      -2.167  11.789  17.919  0.00  0.00    +0.000 HD
BRANCH  28  31
ATOM     30  C   UNL     1      -3.375   9.696  17.521  0.00  0.00    +0.000 C 
ATOM     31  C   UNL     1      -1.979   9.979  16.971  0.00  0.00    +0.000 C 
ENDBRANCH  28  31
ENDBRANCH  27  28
ENDBRANCH  26  27
ENDBRANCH  25  26
ENDBRANCH  21  25
ENDBRANCH  20  21
ENDBRANCH   1  20
TORSDOF 9
ENDMDL
MODEL 6
REMARK VINA RESULT:      -6.2      3.017      5.388
REMARK  Name = 
REMARK  11 active torsions:
REMARK  status: ('A' for Active; 'I' for Inactive)
REMARK    1  A    between atoms: C_1  and  C_2
REMARK    2  A    between atoms: C_2  and  N_3
REMARK    3  A    between atoms: N_3  and  C_4
REMARK    4  A    between atoms: C_4  and  C_5
REMARK    5  A    between atoms: C_5  and  C_6
REMARK    6  A    between atoms: C_6  and  C_7
REMARK    7  A    between atoms: C_7  and  N_8
REMARK    8  A    between atoms: C_7  and  C_9
REMARK    9  A    between atoms: C_9  and  C_10
REMARK   10  A    between atoms: N_12  and  C_13
REMARK   11  A    between atoms: N_12  and  C_14
REMARK                            x       y       z     vdW  Elec       q    Type
REMARK                         _______ _______ _______ _____ _____    ______ ____
ROOT
ATOM      1  C   UNL     1       2.410   5.211  19.871  0.00  0.00    +0.000 C 
ATOM      2  O   UNL     1       3.492   5.576  19.437  0.00  0.00    +0.000 OA
ATOM      3  N   UNL     1       1.986   3.914  19.651  0.00  0.00    +0.000 N 
ATOM      4  C   UNL     1       0.702   3.430  20.160  0.00  0.00    +0.000 C 
ENDROOT
BRANCH   3   5
ATOM      5  C   UNL     1       2.792   2.914  18.927  0.00  0.00    +0.000 C 
ATOM      6  C   UNL     1       2.870   3.110  17.394  0.00  0.00    +0.000 C 
ATOM      7  N   UNL     1       4.032   3.854  16.948  0.00  0.00    +0.000 NA
ATOM      8  C   UNL     1       5.172   3.798  17.559  0.00  0.00    +0.000 C 
ATOM      9  N   UNL     1       6.350   4.384  16.990  0.00  0.00    +0.000 N 
ATOM     10  C   UNL     1       6.422   4.950  15.750  0.00  0.00    +0.000 C 
ATOM     11  N   UNL     1       7.600   5.443  15.299  0.00  0.00    +0.000 N 
ATOM     12  O   UNL     1       5.436   5.014  15.031  0.00  0.00    +0.000 OA
ATOM     13  N   UNL     1       5.272   3.163  18.833  0.00  0.00    +0.000 N 
ATOM     14  C   UNL     1       4.170   2.773  19.522  0.00  0.00    +0.000 C 
ATOM     15  O   UNL     1       4.289   2.329  20.654  0.00  0.00    +0.000 OA
ATOM     16  H   UNL     1       7.214   4.338  17.551  0.00  0.00    +0.000 HD
ATOM     17  H   UNL     1       8.451   5.402  15.879  0.00  0.00    +0.000 HD
ATOM     18  H   UNL     1       7.666   5.865  14.361  0.00  0.00    +0.000 HD
ATOM     19  H   UNL     1       6.198   3.073  19.278  0.00  0.00    +0.000 HD
ENDBRANCH   3   5
BRANCH   1  20
ATOM     20  C   UNL     1       1.563   6.206  20.671  0.00  0.00    +0.000 C 
BRANCH  20  21
ATOM     21  C   UNL     1       1.920   7.714  20.519  0.00  0.00    +0.000 C 
BRANCH  21  22
ATOM     22  N   UNL     1       1.920   8.109  19.104  0.00  0.00    +0.000 NA
ATOM     23  H   UNL     1       2.535   8.945  18.965  0.00  0.00    +0.000 HD
ATOM     24  H   UNL     1       0.960   8.342  18.771  0.00  0.00    +0.000 HD
ENDBRANCH  21  22
BRANCH  21  25
ATOM     25  C   UNL     1       0.923   8.646  21.270  0.00  0.00    +0.000 C 
BRANCH  25  26
ATOM     26  C   UNL     1       0.128   9.590  20.349  0.00  0.00    +0.000 C 
BRANCH  26  27
ATOM     27  C   UNL     1       0.680  11.024  20.361  0.00  0.00    +0.000 C 
BRANCH  27  28
ATOM     28  N   UNL     1       1.340  11.301  19.077  0.00  0.00    +0.000 NA
ATOM     29  H   UNL     1       2.358  11.077  19.171  0.00  0.00    +0.000 HD
BRANCH  28  31
ATOM     30  C   UNL     1       0.822  13.542  19.921  0.00  0.00    +0.000 C 
ATOM     31  C   UNL     1       1.214  12.714  18.699  0.00  0.00    +0.000 C 
ENDBRANCH  28  31
ENDBRANCH  27  28
ENDBRANCH  26  27
ENDBRANCH  25  26
ENDBRANCH  21  25
ENDBRANCH  20  21
ENDBRANCH   1  20
TORSDOF 9
ENDMDL
MODEL 7
REMARK VINA RESULT:      -6.2      3.088      4.393
REMARK  Name = 
REMARK  11 active torsions:
REMARK  status: ('A' for Active; 'I' for Inactive)
REMARK    1  A    between atoms: C_1  and  C_2
REMARK    2  A    between atoms: C_2  and  N_3
REMARK    3  A    between atoms: N_3  and  C_4
REMARK    4  A    between atoms: C_4  and  C_5
REMARK    5  A    between atoms: C_5  and  C_6
REMARK    6  A    between atoms: C_6  and  C_7
REMARK    7  A    between atoms: C_7  and  N_8
REMARK    8  A    between atoms: C_7  and  C_9
REMARK    9  A    between atoms: C_9  and  C_10
REMARK   10  A    between atoms: N_12  and  C_13
REMARK   11  A    between atoms: N_12  and  C_14
REMARK                            x       y       z     vdW  Elec       q    Type
REMARK                         _______ _______ _______ _____ _____    ______ ____
ROOT
ATOM      1  C   UNL     1       2.596   6.389  19.688  0.00  0.00    +0.000 C 
ATOM      2  O   UNL     1       2.202   5.509  20.437  0.00  0.00    +0.000 OA
ATOM      3  N   UNL     1       3.523   6.091  18.707  0.00  0.00    +0.000 N 
ATOM      4  C   UNL     1       4.014   7.112  17.780  0.00  0.00    +0.000 C 
ENDROOT
BRANCH   3   5
ATOM      5  C   UNL     1       4.062   4.735  18.492  0.00  0.00    +0.000 C 
ATOM      6  C   UNL     1       3.578   4.027  17.204  0.00  0.00    +0.000 C 
ATOM      7  N   UNL     1       4.468   4.181  16.070  0.00  0.00    +0.000 NA
ATOM      8  C   UNL     1       5.753   4.279  16.202  0.00  0.00    +0.000 C 
ATOM      9  N   UNL     1       6.622   4.233  15.063  0.00  0.00    +0.000 N 
ATOM     10  C   UNL     1       6.220   3.990  13.781  0.00  0.00    +0.000 C 
ATOM     11  N   UNL     1       7.136   3.934  12.784  0.00  0.00    +0.000 N 
ATOM     12  O   UNL     1       5.041   3.812  13.516  0.00  0.00    +0.000 OA
ATOM     13  N   UNL     1       6.330   4.456  17.495  0.00  0.00    +0.000 N 
ATOM     14  C   UNL     1       5.566   4.714  18.586  0.00  0.00    +0.000 C 
ATOM     15  O   UNL     1       6.102   4.963  19.655  0.00  0.00    +0.000 OA
ATOM     16  H   UNL     1       7.631   4.359  15.237  0.00  0.00    +0.000 HD
ATOM     17  H   UNL     1       8.139   4.076  12.975  0.00  0.00    +0.000 HD
ATOM     18  H   UNL     1       6.843   3.743  11.814  0.00  0.00    +0.000 HD
ATOM     19  H   UNL     1       7.357   4.469  17.588  0.00  0.00    +0.000 HD
ENDBRANCH   3   5
BRANCH   1  20
ATOM     20  C   UNL     1       2.024   7.802  19.846  0.00  0.00    +0.000 C 
BRANCH  20  21
ATOM     21  C   UNL     1       1.123   8.059  21.090  0.00  0.00    +0.000 C 
BRANCH  21  22
ATOM     22  N   UNL     1       1.883   8.725  22.155  0.00  0.00    +0.000 NA
ATOM     23  H   UNL     1       2.484   9.480  21.750  0.00  0.00    +0.000 HD
ATOM     24  H   UNL     1       2.493   8.053  22.669  0.00  0.00    +0.000 HD
ENDBRANCH  21  22
BRANCH  21  25
ATOM     25  C   UNL     1      -0.112   8.949  20.763  0.00  0.00    +0.000 C 
BRANCH  25  26
ATOM     26  C   UNL     1       0.193  10.131  19.823  0.00  0.00    +0.000 C 
BRANCH  26  27
ATOM     27  C   UNL     1      -1.067  10.673  19.133  0.00  0.00    +0.000 C 
BRANCH  27  28
ATOM     28  N   UNL     1      -0.969  10.438  17.685  0.00  0.00    +0.000 NA
ATOM     29  H   UNL     1      -0.808  11.357  17.210  0.00  0.00    +0.000 HD
BRANCH  28  31
ATOM     30  C   UNL     1      -2.609  10.588  15.872  0.00  0.00    +0.000 C 
ATOM     31  C   UNL     1      -2.202   9.853  17.147  0.00  0.00    +0.000 C 
ENDBRANCH  28  31
ENDBRANCH  27  28
ENDBRANCH  26  27
ENDBRANCH  25  26
ENDBRANCH  21  25
ENDBRANCH  20  21
ENDBRANCH   1  20
TORSDOF 9
ENDMDL
MODEL 8
REMARK VINA RESULT:      -6.2      2.401      4.210
REMARK  Name = 
REMARK  11 active torsions:
REMARK  status: ('A' for Active; 'I' for Inactive)
REMARK    1  A    between atoms: C_1  and  C_2
REMARK    2  A    between atoms: C_2  and  N_3
REMARK    3  A    between atoms: N_3  and  C_4
REMARK    4  A    between atoms: C_4  and  C_5
REMARK    5  A    between atoms: C_5  and  C_6
REMARK    6  A    between atoms: C_6  and  C_7
REMARK    7  A    between atoms: C_7  and  N_8
REMARK    8  A    between atoms: C_7  and  C_9
REMARK    9  A    between atoms: C_9  and  C_10
REMARK   10  A    between atoms: N_12  and  C_13
REMARK   11  A    between atoms: N_12  and  C_14
REMARK                            x       y       z     vdW  Elec       q    Type
REMARK                         _______ _______ _______ _____ _____    ______ ____
ROOT
ATOM      1  C   UNL     1       2.945   4.461  18.879  0.00  0.00    +0.000 C 
ATOM      2  O   UNL     1       2.898   3.289  19.223  0.00  0.00    +0.000 OA
ATOM      3  N   UNL     1       4.074   4.944  18.247  0.00  0.00    +0.000 N 
ATOM      4  C   UNL     1       4.170   6.338  17.807  0.00  0.00    +0.000 C 
ENDROOT
BRANCH   3   5
ATOM      5  C   UNL     1       5.246   4.105  17.935  0.00  0.00    +0.000 C 
ATOM      6  C   UNL     1       5.231   3.440  16.538  0.00  0.00    +0.000 C 
ATOM      7  N   UNL     1       5.934   4.189  15.515  0.00  0.00    +0.000 NA
ATOM      8  C   UNL     1       6.976   4.914  15.774  0.00  0.00    +0.000 C 
ATOM      9  N   UNL     1       7.766   5.483  14.722  0.00  0.00    +0.000 N 
ATOM     10  C   UNL     1       7.577   5.252  13.390  0.00  0.00    +0.000 C 
ATOM     11  N   UNL     1       8.409   5.817  12.481  0.00  0.00    +0.000 N 
ATOM     12  O   UNL     1       6.670   4.532  12.998  0.00  0.00    +0.000 OA
ATOM     13  N   UNL     1       7.348   5.176  17.126  0.00  0.00    +0.000 N 
ATOM     14  C   UNL     1       6.538   4.847  18.164  0.00  0.00    +0.000 C 
ATOM     15  O   UNL     1       6.842   5.182  19.298  0.00  0.00    +0.000 OA
ATOM     16  H   UNL     1       8.556   6.083  15.001  0.00  0.00    +0.000 HD
ATOM     17  H   UNL     1       9.186   6.426  12.778  0.00  0.00    +0.000 HD
ATOM     18  H   UNL     1       8.280   5.642  11.473  0.00  0.00    +0.000 HD
ATOM     19  H   UNL     1       8.215   5.703  17.314  0.00  0.00    +0.000 HD
ENDBRANCH   3   5
BRANCH   1  20
ATOM     20  C   UNL     1       1.729   5.355  19.140  0.00  0.00    +0.000 C 
BRANCH  20  21
ATOM     21  C   UNL     1       1.523   5.851  20.602  0.00  0.00    +0.000 C 
BRANCH  21  22
ATOM     22  N   UNL     1       2.462   5.186  21.515  0.00  0.00    +0.000 NA
ATOM     23  H   UNL     1       1.938   4.720  22.293  0.00  0.00    +0.000 HD
ATOM     24  H   UNL     1       3.140   5.863  21.928  0.00  0.00    +0.000 HD
ENDBRANCH  21  22
BRANCH  21  25
ATOM     25  C   UNL     1       1.729   7.387  20.750  0.00  0.00    +0.000 C 
BRANCH  25  26
ATOM     26  C   UNL     1       0.484   8.144  21.251  0.00  0.00    +0.000 C 
BRANCH  26  27
ATOM     27  C   UNL     1       0.828   9.201  22.311  0.00  0.00    +0.000 C 
BRANCH  27  28
ATOM     28  N   UNL     1       1.011  10.505  21.657  0.00  0.00    +0.000 NA
ATOM     29  H   UNL     1       1.840  10.978  22.085  0.00  0.00    +0.000 HD
BRANCH  28  31
ATOM     30  C   UNL     1      -0.959  10.906  23.058  0.00  0.00    +0.000 C 
ATOM     31  C   UNL     1      -0.159  11.371  21.842  0.00  0.00    +0.000 C 
ENDBRANCH  28  31
ENDBRANCH  27  28
ENDBRANCH  26  27
ENDBRANCH  25  26
ENDBRANCH  21  25
ENDBRANCH  20  21
ENDBRANCH   1  20
TORSDOF 9
ENDMDL
MODEL 9
REMARK VINA RESULT:      -6.2      5.257      8.576
REMARK  Name = 
REMARK  11 active torsions:
REMARK  status: ('A' for Active; 'I' for Inactive)
REMARK    1  A    between atoms: C_1  and  C_2
REMARK    2  A    between atoms: C_2  and  N_3
REMARK    3  A    between atoms: N_3  and  C_4
REMARK    4  A    between atoms: C_4  and  C_5
REMARK    5  A    between atoms: C_5  and  C_6
REMARK    6  A    between atoms: C_6  and  C_7
REMARK    7  A    between atoms: C_7  and  N_8
REMARK    8  A    between atoms: C_7  and  C_9
REMARK    9  A    between atoms: C_9  and  C_10
REMARK   10  A    between atoms: N_12  and  C_13
REMARK   11  A    between atoms: N_12  and  C_14
REMARK                            x       y       z     vdW  Elec       q    Type
REMARK                         _______ _______ _______ _____ _____    ______ ____
ROOT
ATOM      1  C   UNL     1       1.655   8.440  19.424  0.00  0.00    +0.000 C 
ATOM      2  O   UNL     1       2.286   8.449  18.377  0.00  0.00    +0.000 OA
ATOM      3  N   UNL     1       0.674   9.388  19.640  0.00  0.00    +0.000 N 
ATOM      4  C   UNL     1      -0.113   9.409  20.875  0.00  0.00    +0.000 C 
ENDROOT
BRANCH   3   5
ATOM      5  C   UNL     1       0.318  10.422  18.650  0.00  0.00    +0.000 C 
ATOM      6  C   UNL     1      -0.944  10.123  17.807  0.00  0.00    +0.000 C 
ATOM      7  N   UNL     1      -2.163  10.705  18.333  0.00  0.00    +0.000 NA
ATOM      8  C   UNL     1      -2.178  11.830  18.975  0.00  0.00    +0.000 C 
ATOM      9  N   UNL     1      -3.411  12.478  19.312  0.00  0.00    +0.000 N 
ATOM     10  C   UNL     1      -4.649  12.054  18.922  0.00  0.00    +0.000 C 
ATOM     11  N   UNL     1      -5.748  12.767  19.270  0.00  0.00    +0.000 N 
ATOM     12  O   UNL     1      -4.785  11.041  18.254  0.00  0.00    +0.000 OA
ATOM     13  N   UNL     1      -0.952  12.440  19.380  0.00  0.00    +0.000 N 
ATOM     14  C   UNL     1       0.234  11.789  19.280  0.00  0.00    +0.000 C 
ATOM     15  O   UNL     1       1.246  12.301  19.733  0.00  0.00    +0.000 OA
ATOM     16  H   UNL     1      -3.348  13.349  19.860  0.00  0.00    +0.000 HD
ATOM     17  H   UNL     1      -5.667  13.629  19.830  0.00  0.00    +0.000 HD
ATOM     18  H   UNL     1      -6.686  12.460  18.974  0.00  0.00    +0.000 HD
ATOM     19  H   UNL     1      -0.979  13.365  19.835  0.00  0.00    +0.000 HD
ENDBRANCH   3   5
BRANCH   1  20
ATOM     20  C   UNL     1       1.961   7.352  20.459  0.00  0.00    +0.000 C 
BRANCH  20  21
ATOM     21  C   UNL     1       2.310   5.938  19.909  0.00  0.00    +0.000 C 
BRANCH  21  22
ATOM     22  N   UNL     1       3.756   5.806  19.691  0.00  0.00    +0.000 NA
ATOM     23  H   UNL     1       4.079   6.505  18.982  0.00  0.00    +0.000 HD
ATOM     24  H   UNL     1       4.007   4.850  19.355  0.00  0.00    +0.000 HD
ENDBRANCH  21  22
BRANCH  21  25
ATOM     25  C   UNL     1       1.871   4.795  20.871  0.00  0.00    +0.000 C 
BRANCH  25  26
ATOM     26  C   UNL     1       0.914   3.769  20.234  0.00  0.00    +0.000 C 
BRANCH  26  27
ATOM     27  C   UNL     1       1.536   2.368  20.137  0.00  0.00    +0.000 C 
BRANCH  27  28
ATOM     28  N   UNL     1       1.532   1.931  18.733  0.00  0.00    +0.000 NA
ATOM     29  H   UNL     1       1.308   0.908  18.705  0.00  0.00    +0.000 HD
BRANCH  28  31
ATOM     30  C   UNL     1       2.781   3.332  17.159  0.00  0.00    +0.000 C 
ATOM     31  C   UNL     1       2.841   2.132  18.102  0.00  0.00    +0.000 C 
ENDBRANCH  28  31
ENDBRANCH  27  28
ENDBRANCH  26  27
ENDBRANCH  25  26
ENDBRANCH  21  25
ENDBRANCH  20  21
ENDBRANCH   1  20
TORSDOF 9
ENDMDL
