MODEL 1
REMARK VINA RESULT:      -8.0      0.000      0.000
REMARK  Name = 
REMARK  8 active torsions:
REMARK  status: ('A' for Active; 'I' for Inactive)
REMARK    1  A    between atoms: C_1  and  N_2
REMARK    2  A    between atoms: C_3  and  C_5
REMARK    3  A    between atoms: C_6  and  O_7
REMARK    4  A    between atoms: C_8  and  N_9
REMARK    5  A    between atoms: N_9  and  S_10
REMARK    6  A    between atoms: S_10  and  C_13
REMARK    7  A    between atoms: C_19  and  O_20
REMARK    8  A    between atoms: C_22  and  C_23
REMARK                            x       y       z     vdW  Elec       q    Type
REMARK                         _______ _______ _______ _____ _____    ______ ____
ROOT
ATOM      1  C   UNL     1       6.667   5.576  17.250  0.00  0.00    +0.000 A 
ATOM      2  C   UNL     1       5.780   4.756  17.973  0.00  0.00    +0.000 A 
ATOM      3  C   UNL     1       5.131   3.699  17.323  0.00  0.00    +0.000 A 
ATOM      4  C   UNL     1       5.333   3.494  15.953  0.00  0.00    +0.000 A 
ATOM      5  C   UNL     1       6.164   4.323  15.197  0.00  0.00    +0.000 A 
ATOM      6  C   UNL     1       6.830   5.352  15.879  0.00  0.00    +0.000 A 
ATOM      7  F   UNL     1       7.665   6.128  15.166  0.00  0.00    +0.000 F 
ENDROOT
BRANCH   1  10
ATOM      8  C   UNL     1       8.145   9.009  17.918  0.00  0.00    +0.000 C 
ATOM      9  N   UNL     1       7.393   7.906  17.376  0.00  0.00    +0.000 N 
ATOM     10  C   UNL     1       7.443   6.643  17.929  0.00  0.00    +0.000 C 
ATOM     11  O   UNL     1       8.126   6.351  18.907  0.00  0.00    +0.000 OA
ATOM     12  H   UNL     1       6.750   8.098  16.617  0.00  0.00    +0.000 HD
ENDBRANCH   1  10
BRANCH   5  13
ATOM     13  C   UNL     1       6.393   4.128  13.718  0.00  0.00    +0.000 C 
ATOM     14  C   UNL     1       6.005   2.861  12.995  0.00  0.00    +0.000 C 
ATOM     15  C   UNL     1       5.185   4.102  12.807  0.00  0.00    +0.000 C 
ENDBRANCH   5  13
BRANCH   2  16
ATOM     16  O   UNL     1       5.570   4.935  19.321  0.00  0.00    +0.000 OA
ATOM     17  H   UNL     1       6.403   5.287  19.722  0.00  0.00    +0.000 HD
ENDBRANCH   2  16
BRANCH   3  18
ATOM     18  N   UNL     1       4.249   2.788  17.976  0.00  0.00    +0.000 N 
ATOM     19  H   UNL     1       4.513   2.468  18.908  0.00  0.00    +0.000 HD
BRANCH  18  20
ATOM     20  S   UNL     1       2.583   3.047  17.887  0.00  0.00    +0.000 S 
ATOM     21  O   UNL     1       2.258   3.296  16.500  0.00  0.00    +0.000 OA
ATOM     22  O   UNL     1       1.919   1.971  18.603  0.00  0.00    +0.000 OA
BRANCH  20  23
ATOM     23  C   UNL     1       2.273   4.549  18.793  0.00  0.00    +0.000 A 
ATOM     24  C   UNL     1       2.301   5.762  18.087  0.00  0.00    +0.000 A 
ATOM     25  C   UNL     1       2.196   6.968  18.777  0.00  0.00    +0.000 A 
ATOM     26 BR   UNL     1       2.288   8.602  17.831  0.00  0.00    +0.000 Br
ATOM     27  C   UNL     1       2.058   6.980  20.163  0.00  0.00    +0.000 A 
ATOM     28  C   UNL     1       2.013   5.774  20.865  0.00  0.00    +0.000 A 
ATOM     29  C   UNL     1       2.121   4.557  20.181  0.00  0.00    +0.000 A 
BRANCH  29  30
ATOM     30  O   UNL     1       2.055   3.396  20.891  0.00  0.00    +0.000 OA
ATOM     31  H   UNL     1       2.441   2.672  20.368  0.00  0.00    +0.000 HD
ENDBRANCH  29  30
ENDBRANCH  20  23
ENDBRANCH  18  20
ENDBRANCH   3  18
TORSDOF 7
ENDMDL
MODEL 2
REMARK VINA RESULT:      -7.8      3.180      6.024
REMARK  Name = 
REMARK  8 active torsions:
REMARK  status: ('A' for Active; 'I' for Inactive)
REMARK    1  A    between atoms: C_1  and  N_2
REMARK    2  A    between atoms: C_3  and  C_5
REMARK    3  A    between atoms: C_6  and  O_7
REMARK    4  A    between atoms: C_8  and  N_9
REMARK    5  A    between atoms: N_9  and  S_10
REMARK    6  A    between atoms: S_10  and  C_13
REMARK    7  A    between atoms: C_19  and  O_20
REMARK    8  A    between atoms: C_22  and  C_23
REMARK                            x       y       z     vdW  Elec       q    Type
REMARK                         _______ _______ _______ _____ _____    ______ ____
ROOT
ATOM      1  C   UNL     1       3.224   4.683  18.937  0.00  0.00    +0.000 A 
ATOM      2  C   UNL     1       3.887   4.447  17.718  0.00  0.00    +0.000 A 
ATOM      3  C   UNL     1       4.104   5.510  16.833  0.00  0.00    +0.000 A 
ATOM      4  C   UNL     1       3.622   6.787  17.145  0.00  0.00    +0.000 A 
ATOM      5  C   UNL     1       2.914   7.042  18.321  0.00  0.00    +0.000 A 
ATOM      6  C   UNL     1       2.741   5.968  19.207  0.00  0.00    +0.000 A 
ATOM      7  F   UNL     1       2.096   6.216  20.360  0.00  0.00    +0.000 F 
ENDROOT
BRANCH   1  10
ATOM      8  C   UNL     1       1.583   2.529  21.598  0.00  0.00    +0.000 C 
ATOM      9  N   UNL     1       1.840   3.506  20.573  0.00  0.00    +0.000 N 
ATOM     10  C   UNL     1       3.062   3.601  19.940  0.00  0.00    +0.000 C 
ATOM     11  O   UNL     1       4.022   2.880  20.195  0.00  0.00    +0.000 OA
ATOM     12  H   UNL     1       1.066   4.080  20.260  0.00  0.00    +0.000 HD
ENDBRANCH   1  10
BRANCH   5  13
ATOM     13  C   UNL     1       2.377   8.406  18.676  0.00  0.00    +0.000 C 
ATOM     14  C   UNL     1       2.354   9.553  17.695  0.00  0.00    +0.000 C 
ATOM     15  C   UNL     1       1.077   8.850  18.043  0.00  0.00    +0.000 C 
ENDBRANCH   5  13
BRANCH   2  16
ATOM     16  O   UNL     1       4.374   3.202  17.393  0.00  0.00    +0.000 OA
ATOM     17  H   UNL     1       5.124   2.992  18.003  0.00  0.00    +0.000 HD
ENDBRANCH   2  16
BRANCH   3  18
ATOM     18  N   UNL     1       4.801   5.382  15.595  0.00  0.00    +0.000 N 
ATOM     19  H   UNL     1       4.576   6.053  14.861  0.00  0.00    +0.000 HD
BRANCH  18  20
ATOM     20  S   UNL     1       6.457   5.055  15.613  0.00  0.00    +0.000 S 
ATOM     21  O   UNL     1       6.614   3.631  15.813  0.00  0.00    +0.000 OA
ATOM     22  O   UNL     1       7.057   5.693  14.453  0.00  0.00    +0.000 OA
BRANCH  20  23
ATOM     23  C   UNL     1       7.102   5.877  17.056  0.00  0.00    +0.000 A 
ATOM     24  C   UNL     1       7.386   7.249  16.960  0.00  0.00    +0.000 A 
ATOM     25  C   UNL     1       8.014   7.902  18.018  0.00  0.00    +0.000 A 
ATOM     26 BR   UNL     1       8.445   9.737  17.867  0.00  0.00    +0.000 Br
ATOM     27  C   UNL     1       8.359   7.206  19.174  0.00  0.00    +0.000 A 
ATOM     28  C   UNL     1       8.062   5.846  19.278  0.00  0.00    +0.000 A 
ATOM     29  C   UNL     1       7.433   5.180  18.219  0.00  0.00    +0.000 A 
BRANCH  29  30
ATOM     30  O   UNL     1       7.139   3.856  18.356  0.00  0.00    +0.000 OA
ATOM     31  H   UNL     1       6.204   3.754  18.602  0.00  0.00    +0.000 HD
ENDBRANCH  29  30
ENDBRANCH  20  23
ENDBRANCH  18  20
ENDBRANCH   3  18
TORSDOF 7
ENDMDL
MODEL 3
REMARK VINA RESULT:      -7.3      4.079      5.700
REMARK  Name = 
REMARK  8 active torsions:
REMARK  status: ('A' for Active; 'I' for Inactive)
REMARK    1  A    between atoms: C_1  and  N_2
REMARK    2  A    between atoms: C_3  and  C_5
REMARK    3  A    between atoms: C_6  and  O_7
REMARK    4  A    between atoms: C_8  and  N_9
REMARK    5  A    between atoms: N_9  and  S_10
REMARK    6  A    between atoms: S_10  and  C_13
REMARK    7  A    between atoms: C_19  and  O_20
REMARK    8  A    between atoms: C_22  and  C_23
REMARK                            x       y       z     vdW  Elec       q    Type
REMARK                         _______ _______ _______ _____ _____    ______ ____
ROOT
ATOM      1  C   UNL     1       4.239   5.075  17.131  0.00  0.00    +0.000 A 
ATOM      2  C   UNL     1       3.991   6.359  17.653  0.00  0.00    +0.000 A 
ATOM      3  C   UNL     1       2.871   6.568  18.467  0.00  0.00    +0.000 A 
ATOM      4  C   UNL     1       1.986   5.513  18.721  0.00  0.00    +0.000 A 
ATOM      5  C   UNL     1       2.176   4.243  18.174  0.00  0.00    +0.000 A 
ATOM      6  C   UNL     1       3.324   4.051  17.390  0.00  0.00    +0.000 A 
ATOM      7  F   UNL     1       3.535   2.818  16.896  0.00  0.00    +0.000 F 
ENDROOT
BRANCH   1  10
ATOM      8  C   UNL     1       6.425   4.293  14.127  0.00  0.00    +0.000 C 
ATOM      9  N   UNL     1       5.315   4.617  14.985  0.00  0.00    +0.000 N 
ATOM     10  C   UNL     1       5.466   4.797  16.344  0.00  0.00    +0.000 C 
ATOM     11  O   UNL     1       6.538   4.689  16.933  0.00  0.00    +0.000 OA
ATOM     12  H   UNL     1       4.417   4.797  14.550  0.00  0.00    +0.000 HD
ENDBRANCH   1  10
BRANCH   5  13
ATOM     13  C   UNL     1       1.233   3.092  18.425  0.00  0.00    +0.000 C 
ATOM     14  C   UNL     1       1.628   1.876  19.228  0.00  0.00    +0.000 C 
ATOM     15  C   UNL     1       0.706   2.894  19.830  0.00  0.00    +0.000 C 
ENDBRANCH   5  13
BRANCH   2  16
ATOM     16  O   UNL     1       4.849   7.408  17.422  0.00  0.00    +0.000 OA
ATOM     17  H   UNL     1       4.913   7.946  18.250  0.00  0.00    +0.000 HD
ENDBRANCH   2  16
BRANCH   3  18
ATOM     18  N   UNL     1       2.556   7.818  19.077  0.00  0.00    +0.000 N 
ATOM     19  H   UNL     1       3.263   8.233  19.685  0.00  0.00    +0.000 HD
BRANCH  18  20
ATOM     20  S   UNL     1       1.786   9.010  18.163  0.00  0.00    +0.000 S 
ATOM     21  O   UNL     1       2.799   9.665  17.367  0.00  0.00    +0.000 OA
ATOM     22  O   UNL     1       0.633   8.409  17.515  0.00  0.00    +0.000 OA
BRANCH  20  23
ATOM     23  C   UNL     1       1.167  10.200  19.336  0.00  0.00    +0.000 A 
ATOM     24  C   UNL     1       0.697   9.726  20.570  0.00  0.00    +0.000 A 
ATOM     25  C   UNL     1       0.083  10.603  21.462  0.00  0.00    +0.000 A 
ATOM     26 BR   UNL     1      -0.598   9.952  23.101  0.00  0.00    +0.000 Br
ATOM     27  C   UNL     1      -0.064  11.950  21.140  0.00  0.00    +0.000 A 
ATOM     28  C   UNL     1       0.418  12.427  19.920  0.00  0.00    +0.000 A 
ATOM     29  C   UNL     1       1.034  11.553  19.016  0.00  0.00    +0.000 A 
BRANCH  29  30
ATOM     30  O   UNL     1       1.512  12.051  17.841  0.00  0.00    +0.000 OA
ATOM     31  H   UNL     1       2.260  12.646  18.019  0.00  0.00    +0.000 HD
ENDBRANCH  29  30
ENDBRANCH  20  23
ENDBRANCH  18  20
ENDBRANCH   3  18
TORSDOF 7
ENDMDL
MODEL 4
REMARK VINA RESULT:      -7.2      3.537      5.876
REMARK  Name = 
REMARK  8 active torsions:
REMARK  status: ('A' for Active; 'I' for Inactive)
REMARK    1  A    between atoms: C_1  and  N_2
REMARK    2  A    between atoms: C_3  and  C_5
REMARK    3  A    between atoms: C_6  and  O_7
REMARK    4  A    between atoms: C_8  and  N_9
REMARK    5  A    between atoms: N_9  and  S_10
REMARK    6  A    between atoms: S_10  and  C_13
REMARK    7  A    between atoms: C_19  and  O_20
REMARK    8  A    between atoms: C_22  and  C_23
REMARK                            x       y       z     vdW  Elec       q    Type
REMARK                         _______ _______ _______ _____ _____    ______ ____
ROOT
ATOM      1  C   UNL     1       2.557   6.732  19.174  0.00  0.00    +0.000 A 
ATOM      2  C   UNL     1       3.225   6.875  17.943  0.00  0.00    +0.000 A 
ATOM      3  C   UNL     1       3.686   5.736  17.272  0.00  0.00    +0.000 A 
ATOM      4  C   UNL     1       3.518   4.471  17.848  0.00  0.00    +0.000 A 
ATOM      5  C   UNL     1       2.908   4.301  19.092  0.00  0.00    +0.000 A 
ATOM      6  C   UNL     1       2.424   5.455  19.728  0.00  0.00    +0.000 A 
ATOM      7  F   UNL     1       1.797   5.295  20.907  0.00  0.00    +0.000 F 
ENDROOT
BRANCH   1  10
ATOM      8  C   UNL     1       1.325   8.926  22.018  0.00  0.00    +0.000 C 
ATOM      9  N   UNL     1       1.916   7.866  21.242  0.00  0.00    +0.000 N 
ATOM     10  C   UNL     1       1.973   7.909  19.865  0.00  0.00    +0.000 C 
ATOM     11  O   UNL     1       1.526   8.832  19.191  0.00  0.00    +0.000 OA
ATOM     12  H   UNL     1       2.373   7.111  21.742  0.00  0.00    +0.000 HD
ENDBRANCH   1  10
BRANCH   5  13
ATOM     13  C   UNL     1       2.722   2.951  19.739  0.00  0.00    +0.000 C 
ATOM     14  C   UNL     1       1.444   2.550  20.433  0.00  0.00    +0.000 C 
ATOM     15  C   UNL     1       1.768   1.973  19.088  0.00  0.00    +0.000 C 
ENDBRANCH   5  13
BRANCH   2  16
ATOM     16  O   UNL     1       3.397   8.106  17.355  0.00  0.00    +0.000 OA
ATOM     17  H   UNL     1       4.077   8.606  17.870  0.00  0.00    +0.000 HD
ENDBRANCH   2  16
BRANCH   3  18
ATOM     18  N   UNL     1       4.336   5.771  16.003  0.00  0.00    +0.000 N 
ATOM     19  H   UNL     1       4.197   6.603  15.430  0.00  0.00    +0.000 HD
BRANCH  18  20
ATOM     20  S   UNL     1       5.927   5.222  15.876  0.00  0.00    +0.000 S 
ATOM     21  O   UNL     1       5.906   3.790  16.071  0.00  0.00    +0.000 OA
ATOM     22  O   UNL     1       6.502   5.778  14.663  0.00  0.00    +0.000 OA
BRANCH  20  23
ATOM     23  C   UNL     1       6.803   5.942  17.250  0.00  0.00    +0.000 A 
ATOM     24  C   UNL     1       7.174   7.293  17.159  0.00  0.00    +0.000 A 
ATOM     25  C   UNL     1       7.974   7.860  18.149  0.00  0.00    +0.000 A 
ATOM     26 BR   UNL     1       8.518   9.664  17.997  0.00  0.00    +0.000 Br
ATOM     27  C   UNL     1       8.405   7.098  19.232  0.00  0.00    +0.000 A 
ATOM     28  C   UNL     1       8.022   5.759  19.333  0.00  0.00    +0.000 A 
ATOM     29  C   UNL     1       7.221   5.180  18.342  0.00  0.00    +0.000 A 
BRANCH  29  30
ATOM     30  O   UNL     1       6.848   3.876  18.476  0.00  0.00    +0.000 OA
ATOM     31  H   UNL     1       6.194   3.796  19.192  0.00  0.00    +0.000 HD
ENDBRANCH  29  30
ENDBRANCH  20  23
ENDBRANCH  18  20
ENDBRANCH   3  18
TORSDOF 7
ENDMDL
MODEL 5
REMARK VINA RESULT:      -7.1      3.573      5.990
REMARK  Name = 
REMARK  8 active torsions:
REMARK  status: ('A' for Active; 'I' for Inactive)
REMARK    1  A    between atoms: C_1  and  N_2
REMARK    2  A    between atoms: C_3  and  C_5
REMARK    3  A    between atoms: C_6  and  O_7
REMARK    4  A    between atoms: C_8  and  N_9
REMARK    5  A    between atoms: N_9  and  S_10
REMARK    6  A    between atoms: S_10  and  C_13
REMARK    7  A    between atoms: C_19  and  O_20
REMARK    8  A    between atoms: C_22  and  C_23
REMARK                            x       y       z     vdW  Elec       q    Type
REMARK                         _______ _______ _______ _____ _____    ______ ____
ROOT
ATOM      1  C   UNL     1       2.604   7.267  18.567  0.00  0.00    +0.000 A 
ATOM      2  C   UNL     1       3.302   6.715  17.476  0.00  0.00    +0.000 A 
ATOM      3  C   UNL     1       3.699   5.373  17.519  0.00  0.00    +0.000 A 
ATOM      4  C   UNL     1       3.440   4.605  18.661  0.00  0.00    +0.000 A 
ATOM      5  C   UNL     1       2.798   5.139  19.780  0.00  0.00    +0.000 A 
ATOM      6  C   UNL     1       2.379   6.475  19.697  0.00  0.00    +0.000 A 
ATOM      7  F   UNL     1       1.723   6.984  20.755  0.00  0.00    +0.000 F 
ENDROOT
BRANCH   1  10
ATOM      8  C   UNL     1       0.790  10.419  19.656  0.00  0.00    +0.000 C 
ATOM      9  N   UNL     1       1.383   9.108  19.613  0.00  0.00    +0.000 N 
ATOM     10  C   UNL     1       2.085   8.657  18.515  0.00  0.00    +0.000 C 
ATOM     11  O   UNL     1       2.256   9.317  17.494  0.00  0.00    +0.000 OA
ATOM     12  H   UNL     1       1.345   8.542  20.453  0.00  0.00    +0.000 HD
ENDBRANCH   1  10
BRANCH   5  13
ATOM     13  C   UNL     1       2.514   4.335  21.025  0.00  0.00    +0.000 C 
ATOM     14  C   UNL     1       1.356   3.373  21.126  0.00  0.00    +0.000 C 
ATOM     15  C   UNL     1       2.750   2.841  20.980  0.00  0.00    +0.000 C 
ENDBRANCH   5  13
BRANCH   2  16
ATOM     16  O   UNL     1       3.562   7.448  16.342  0.00  0.00    +0.000 OA
ATOM     17  H   UNL     1       3.803   8.367  16.614  0.00  0.00    +0.000 HD
ENDBRANCH   2  16
BRANCH   3  18
ATOM     18  N   UNL     1       4.372   4.709  16.451  0.00  0.00    +0.000 N 
ATOM     19  H   UNL     1       3.794   4.318  15.707  0.00  0.00    +0.000 HD
BRANCH  18  20
ATOM     20  S   UNL     1       5.778   5.391  15.813  0.00  0.00    +0.000 S 
ATOM     21  O   UNL     1       6.542   4.320  15.212  0.00  0.00    +0.000 OA
ATOM     22  O   UNL     1       5.401   6.546  15.016  0.00  0.00    +0.000 OA
BRANCH  20  23
ATOM     23  C   UNL     1       6.703   5.997  17.210  0.00  0.00    +0.000 A 
ATOM     24  C   UNL     1       7.101   7.343  17.202  0.00  0.00    +0.000 A 
ATOM     25  C   UNL     1       7.937   7.826  18.207  0.00  0.00    +0.000 A 
ATOM     26 BR   UNL     1       8.516   9.625  18.165  0.00  0.00    +0.000 Br
ATOM     27  C   UNL     1       8.378   6.982  19.224  0.00  0.00    +0.000 A 
ATOM     28  C   UNL     1       7.969   5.648  19.244  0.00  0.00    +0.000 A 
ATOM     29  C   UNL     1       7.132   5.154  18.236  0.00  0.00    +0.000 A 
BRANCH  29  30
ATOM     30  O   UNL     1       6.734   3.851  18.291  0.00  0.00    +0.000 OA
ATOM     31  H   UNL     1       5.815   3.804  18.605  0.00  0.00    +0.000 HD
ENDBRANCH  29  30
ENDBRANCH  20  23
ENDBRANCH  18  20
ENDBRANCH   3  18
TORSDOF 7
ENDMDL
MODEL 6
REMARK VINA RESULT:      -7.1      3.663      6.820
REMARK  Name = 
REMARK  8 active torsions:
REMARK  status: ('A' for Active; 'I' for Inactive)
REMARK    1  A    between atoms: C_1  and  N_2
REMARK    2  A    between atoms: C_3  and  C_5
REMARK    3  A    between atoms: C_6  and  O_7
REMARK    4  A    between atoms: C_8  and  N_9
REMARK    5  A    between atoms: N_9  and  S_10
REMARK    6  A    between atoms: S_10  and  C_13
REMARK    7  A    between atoms: C_19  and  O_20
REMARK    8  A    between atoms: C_22  and  C_23
REMARK                            x       y       z     vdW  Elec       q    Type
REMARK                         _______ _______ _______ _____ _____    ______ ____
ROOT
ATOM      1  C   UNL     1       2.049   7.704  19.290  0.00  0.00    +0.000 A 
ATOM      2  C   UNL     1       2.921   7.570  18.194  0.00  0.00    +0.000 A 
ATOM      3  C   UNL     1       3.593   6.358  17.990  0.00  0.00    +0.000 A 
ATOM      4  C   UNL     1       3.426   5.307  18.899  0.00  0.00    +0.000 A 
ATOM      5  C   UNL     1       2.610   5.427  20.026  0.00  0.00    +0.000 A 
ATOM      6  C   UNL     1       1.921   6.639  20.188  0.00  0.00    +0.000 A 
ATOM      7  F   UNL     1       1.101   6.746  21.247  0.00  0.00    +0.000 F 
ENDROOT
BRANCH   1  10
ATOM      8  C   UNL     1      -0.147  10.678  18.425  0.00  0.00    +0.000 C 
ATOM      9  N   UNL     1       0.615   9.457  18.372  0.00  0.00    +0.000 N 
ATOM     10  C   UNL     1       1.249   8.939  19.482  0.00  0.00    +0.000 C 
ATOM     11  O   UNL     1       1.227   9.467  20.590  0.00  0.00    +0.000 OA
ATOM     12  H   UNL     1       0.608   8.932  17.505  0.00  0.00    +0.000 HD
ENDBRANCH   1  10
BRANCH   5  13
ATOM     13  C   UNL     1       2.420   4.312  21.025  0.00  0.00    +0.000 C 
ATOM     14  C   UNL     1       1.245   3.367  20.976  0.00  0.00    +0.000 C 
ATOM     15  C   UNL     1       2.599   2.888  20.547  0.00  0.00    +0.000 C 
ENDBRANCH   5  13
BRANCH   2  16
ATOM     16  O   UNL     1       3.096   8.587  17.284  0.00  0.00    +0.000 OA
ATOM     17  H   UNL     1       3.942   8.427  16.797  0.00  0.00    +0.000 HD
ENDBRANCH   2  16
BRANCH   3  18
ATOM     18  N   UNL     1       4.463   6.109  16.888  0.00  0.00    +0.000 N 
ATOM     19  H   UNL     1       5.177   6.809  16.689  0.00  0.00    +0.000 HD
BRANCH  18  20
ATOM     20  S   UNL     1       5.077   4.554  16.658  0.00  0.00    +0.000 S 
ATOM     21  O   UNL     1       6.112   4.348  17.647  0.00  0.00    +0.000 OA
ATOM     22  O   UNL     1       3.957   3.631  16.581  0.00  0.00    +0.000 OA
BRANCH  20  23
ATOM     23  C   UNL     1       5.856   4.567  15.056  0.00  0.00    +0.000 A 
ATOM     24  C   UNL     1       5.307   3.757  14.050  0.00  0.00    +0.000 A 
ATOM     25  C   UNL     1       5.960   3.635  12.825  0.00  0.00    +0.000 A 
ATOM     26 BR   UNL     1       5.248   2.500  11.491  0.00  0.00    +0.000 Br
ATOM     27  C   UNL     1       7.151   4.316  12.588  0.00  0.00    +0.000 A 
ATOM     28  C   UNL     1       7.690   5.137  13.581  0.00  0.00    +0.000 A 
ATOM     29  C   UNL     1       7.043   5.263  14.816  0.00  0.00    +0.000 A 
BRANCH  29  30
ATOM     30  O   UNL     1       7.582   6.085  15.760  0.00  0.00    +0.000 OA
ATOM     31  H   UNL     1       7.608   5.625  16.617  0.00  0.00    +0.000 HD
ENDBRANCH  29  30
ENDBRANCH  20  23
ENDBRANCH  18  20
ENDBRANCH   3  18
TORSDOF 7
ENDMDL
MODEL 7
REMARK VINA RESULT:      -7.1      3.619      6.762
REMARK  Name = 
REMARK  8 active torsions:
REMARK  status: ('A' for Active; 'I' for Inactive)
REMARK    1  A    between atoms: C_1  and  N_2
REMARK    2  A    between atoms: C_3  and  C_5
REMARK    3  A    between atoms: C_6  and  O_7
REMARK    4  A    between atoms: C_8  and  N_9
REMARK    5  A    between atoms: N_9  and  S_10
REMARK    6  A    between atoms: S_10  and  C_13
REMARK    7  A    between atoms: C_19  and  O_20
REMARK    8  A    between atoms: C_22  and  C_23
REMARK                            x       y       z     vdW  Elec       q    Type
REMARK                         _______ _______ _______ _____ _____    ______ ____
ROOT
ATOM      1  C   UNL     1       2.157   6.988  19.581  0.00  0.00    +0.000 A 
ATOM      2  C   UNL     1       3.051   6.998  18.493  0.00  0.00    +0.000 A 
ATOM      3  C   UNL     1       3.446   5.787  17.913  0.00  0.00    +0.000 A 
ATOM      4  C   UNL     1       2.985   4.576  18.444  0.00  0.00    +0.000 A 
ATOM      5  C   UNL     1       2.140   4.531  19.555  0.00  0.00    +0.000 A 
ATOM      6  C   UNL     1       1.732   5.760  20.096  0.00  0.00    +0.000 A 
ATOM      7  F   UNL     1       0.885   5.724  21.140  0.00  0.00    +0.000 F 
ENDROOT
BRANCH   1  10
ATOM      8  C   UNL     1       1.109   9.522  22.207  0.00  0.00    +0.000 C 
ATOM      9  N   UNL     1       1.630   8.361  21.533  0.00  0.00    +0.000 N 
ATOM     10  C   UNL     1       1.644   8.256  20.158  0.00  0.00    +0.000 C 
ATOM     11  O   UNL     1       1.215   9.122  19.402  0.00  0.00    +0.000 OA
ATOM     12  H   UNL     1       2.071   7.643  22.098  0.00  0.00    +0.000 HD
ENDBRANCH   1  10
BRANCH   5  13
ATOM     13  C   UNL     1       1.636   3.240  20.151  0.00  0.00    +0.000 C 
ATOM     14  C   UNL     1       2.451   1.970  20.149  0.00  0.00    +0.000 C 
ATOM     15  C   UNL     1       2.285   2.740  21.424  0.00  0.00    +0.000 C 
ENDBRANCH   5  13
BRANCH   2  16
ATOM     16  O   UNL     1       3.512   8.175  17.951  0.00  0.00    +0.000 OA
ATOM     17  H   UNL     1       4.343   7.983  17.450  0.00  0.00    +0.000 HD
ENDBRANCH   2  16
BRANCH   3  18
ATOM     18  N   UNL     1       4.312   5.693  16.784  0.00  0.00    +0.000 N 
ATOM     19  H   UNL     1       4.803   6.541  16.499  0.00  0.00    +0.000 HD
BRANCH  18  20
ATOM     20  S   UNL     1       5.315   4.345  16.625  0.00  0.00    +0.000 S 
ATOM     21  O   UNL     1       6.401   4.501  17.566  0.00  0.00    +0.000 OA
ATOM     22  O   UNL     1       4.483   3.154  16.671  0.00  0.00    +0.000 OA
BRANCH  20  23
ATOM     23  C   UNL     1       6.004   4.439  14.984  0.00  0.00    +0.000 A 
ATOM     24  C   UNL     1       5.445   3.624  13.987  0.00  0.00    +0.000 A 
ATOM     25  C   UNL     1       6.036   3.567  12.727  0.00  0.00    +0.000 A 
ATOM     26 BR   UNL     1       5.315   2.428  11.402  0.00  0.00    +0.000 Br
ATOM     27  C   UNL     1       7.175   4.318  12.445  0.00  0.00    +0.000 A 
ATOM     28  C   UNL     1       7.721   5.143  13.430  0.00  0.00    +0.000 A 
ATOM     29  C   UNL     1       7.137   5.204  14.701  0.00  0.00    +0.000 A 
BRANCH  29  30
ATOM     30  O   UNL     1       7.681   6.032  15.636  0.00  0.00    +0.000 OA
ATOM     31  H   UNL     1       7.194   5.944  16.473  0.00  0.00    +0.000 HD
ENDBRANCH  29  30
ENDBRANCH  20  23
ENDBRANCH  18  20
ENDBRANCH   3  18
TORSDOF 7
ENDMDL
MODEL 8
REMARK VINA RESULT:      -7.0      3.522      5.156
REMARK  Name = 
REMARK  8 active torsions:
REMARK  status: ('A' for Active; 'I' for Inactive)
REMARK    1  A    between atoms: C_1  and  N_2
REMARK    2  A    between atoms: C_3  and  C_5
REMARK    3  A    between atoms: C_6  and  O_7
REMARK    4  A    between atoms: C_8  and  N_9
REMARK    5  A    between atoms: N_9  and  S_10
REMARK    6  A    between atoms: S_10  and  C_13
REMARK    7  A    between atoms: C_19  and  O_20
REMARK    8  A    between atoms: C_22  and  C_23
REMARK                            x       y       z     vdW  Elec       q    Type
REMARK                         _______ _______ _______ _____ _____    ______ ____
ROOT
ATOM      1  C   UNL     1       4.626   4.689  17.071  0.00  0.00    +0.000 A 
ATOM      2  C   UNL     1       4.359   6.019  17.451  0.00  0.00    +0.000 A 
ATOM      3  C   UNL     1       3.418   6.274  18.455  0.00  0.00    +0.000 A 
ATOM      4  C   UNL     1       2.718   5.213  19.042  0.00  0.00    +0.000 A 
ATOM      5  C   UNL     1       2.921   3.889  18.650  0.00  0.00    +0.000 A 
ATOM      6  C   UNL     1       3.895   3.657  17.667  0.00  0.00    +0.000 A 
ATOM      7  F   UNL     1       4.125   2.379  17.315  0.00  0.00    +0.000 F 
ENDROOT
BRANCH   1  10
ATOM      8  C   UNL     1       6.245   4.015  13.705  0.00  0.00    +0.000 C 
ATOM      9  N   UNL     1       5.316   4.354  14.751  0.00  0.00    +0.000 N 
ATOM     10  C   UNL     1       5.685   4.377  16.080  0.00  0.00    +0.000 C 
ATOM     11  O   UNL     1       6.814   4.107  16.481  0.00  0.00    +0.000 OA
ATOM     12  H   UNL     1       4.389   4.663  14.480  0.00  0.00    +0.000 HD
ENDBRANCH   1  10
BRANCH   5  13
ATOM     13  C   UNL     1       2.174   2.728  19.261  0.00  0.00    +0.000 C 
ATOM     14  C   UNL     1       1.025   2.915  20.221  0.00  0.00    +0.000 C 
ATOM     15  C   UNL     1       0.750   2.480  18.813  0.00  0.00    +0.000 C 
ENDBRANCH   5  13
BRANCH   2  16
ATOM     16  O   UNL     1       5.038   7.077  16.892  0.00  0.00    +0.000 OA
ATOM     17  H   UNL     1       4.581   7.913  17.155  0.00  0.00    +0.000 HD
ENDBRANCH   2  16
BRANCH   3  18
ATOM     18  N   UNL     1       3.108   7.580  18.938  0.00  0.00    +0.000 N 
ATOM     19  H   UNL     1       3.890   8.174  19.214  0.00  0.00    +0.000 HD
BRANCH  18  20
ATOM     20  S   UNL     1       1.921   8.489  18.155  0.00  0.00    +0.000 S 
ATOM     21  O   UNL     1       2.597   9.500  17.374  0.00  0.00    +0.000 OA
ATOM     22  O   UNL     1       1.000   7.569  17.508  0.00  0.00    +0.000 OA
BRANCH  20  23
ATOM     23  C   UNL     1       1.012   9.319  19.444  0.00  0.00    +0.000 A 
ATOM     24  C   UNL     1       0.346  10.511  19.116  0.00  0.00    +0.000 A 
ATOM     25  C   UNL     1      -0.264  11.262  20.119  0.00  0.00    +0.000 A 
ATOM     26 BR   UNL     1      -1.114  12.894  19.685  0.00  0.00    +0.000 Br
ATOM     27  C   UNL     1      -0.224  10.836  21.445  0.00  0.00    +0.000 A 
ATOM     28  C   UNL     1       0.423   9.642  21.770  0.00  0.00    +0.000 A 
ATOM     29  C   UNL     1       1.042   8.883  20.769  0.00  0.00    +0.000 A 
BRANCH  29  30
ATOM     30  O   UNL     1       1.650   7.712  21.113  0.00  0.00    +0.000 OA
ATOM     31  H   UNL     1       1.803   7.177  20.315  0.00  0.00    +0.000 HD
ENDBRANCH  29  30
ENDBRANCH  20  23
ENDBRANCH  18  20
ENDBRANCH   3  18
TORSDOF 7
ENDMDL
MODEL 9
REMARK VINA RESULT:      -6.9      3.286      4.676
REMARK  Name = 
REMARK  8 active torsions:
REMARK  status: ('A' for Active; 'I' for Inactive)
REMARK    1  A    between atoms: C_1  and  N_2
REMARK    2  A    between atoms: C_3  and  C_5
REMARK    3  A    between atoms: C_6  and  O_7
REMARK    4  A    between atoms: C_8  and  N_9
REMARK    5  A    between atoms: N_9  and  S_10
REMARK    6  A    between atoms: S_10  and  C_13
REMARK    7  A    between atoms: C_19  and  O_20
REMARK    8  A    between atoms: C_22  and  C_23
REMARK                            x       y       z     vdW  Elec       q    Type
REMARK                         _______ _______ _______ _____ _____    ______ ____
ROOT
ATOM      1  C   UNL     1       5.243   4.910  16.170  0.00  0.00    +0.000 A 
ATOM      2  C   UNL     1       4.856   6.172  16.657  0.00  0.00    +0.000 A 
ATOM      3  C   UNL     1       4.071   6.256  17.812  0.00  0.00    +0.000 A 
ATOM      4  C   UNL     1       3.641   5.085  18.449  0.00  0.00    +0.000 A 
ATOM      5  C   UNL     1       3.963   3.818  17.960  0.00  0.00    +0.000 A 
ATOM      6  C   UNL     1       4.780   3.762  16.821  0.00  0.00    +0.000 A 
ATOM      7  F   UNL     1       5.129   2.545  16.370  0.00  0.00    +0.000 F 
ENDROOT
BRANCH   1  10
ATOM      8  C   UNL     1       6.517   3.825  12.762  0.00  0.00    +0.000 C 
ATOM      9  N   UNL     1       5.703   4.053  13.927  0.00  0.00    +0.000 N 
ATOM     10  C   UNL     1       6.154   4.788  15.004  0.00  0.00    +0.000 C 
ATOM     11  O   UNL     1       7.270   5.296  15.066  0.00  0.00    +0.000 OA
ATOM     12  H   UNL     1       4.744   3.727  13.907  0.00  0.00    +0.000 HD
ENDBRANCH   1  10
BRANCH   5  13
ATOM     13  C   UNL     1       3.505   2.542  18.623  0.00  0.00    +0.000 C 
ATOM     14  C   UNL     1       2.470   2.520  19.720  0.00  0.00    +0.000 C 
ATOM     15  C   UNL     1       2.099   2.057  18.344  0.00  0.00    +0.000 C 
ENDBRANCH   5  13
BRANCH   2  16
ATOM     16  O   UNL     1       5.272   7.336  16.051  0.00  0.00    +0.000 OA
ATOM     17  H   UNL     1       6.124   7.156  15.583  0.00  0.00    +0.000 HD
ENDBRANCH   2  16
BRANCH   3  18
ATOM     18  N   UNL     1       3.663   7.486  18.408  0.00  0.00    +0.000 N 
ATOM     19  H   UNL     1       4.367   8.218  18.498  0.00  0.00    +0.000 HD
BRANCH  18  20
ATOM     20  S   UNL     1       2.169   8.149  17.988  0.00  0.00    +0.000 S 
ATOM     21  O   UNL     1       2.424   9.267  17.108  0.00  0.00    +0.000 OA
ATOM     22  O   UNL     1       1.301   7.068  17.551  0.00  0.00    +0.000 OA
BRANCH  20  23
ATOM     23  C   UNL     1       1.479   8.796  19.498  0.00  0.00    +0.000 A 
ATOM     24  C   UNL     1       0.992  10.112  19.489  0.00  0.00    +0.000 A 
ATOM     25  C   UNL     1       0.568  10.703  20.678  0.00  0.00    +0.000 A 
ATOM     26 BR   UNL     1      -0.036  12.494  20.673  0.00  0.00    +0.000 Br
ATOM     27  C   UNL     1       0.617   9.994  21.876  0.00  0.00    +0.000 A 
ATOM     28  C   UNL     1       1.084   8.679  21.884  0.00  0.00    +0.000 A 
ATOM     29  C   UNL     1       1.516   8.078  20.695  0.00  0.00    +0.000 A 
BRANCH  29  30
ATOM     30  O   UNL     1       1.950   6.786  20.730  0.00  0.00    +0.000 OA
ATOM     31  H   UNL     1       1.844   6.431  21.630  0.00  0.00    +0.000 HD
ENDBRANCH  29  30
ENDBRANCH  20  23
ENDBRANCH  18  20
ENDBRANCH   3  18
TORSDOF 7
ENDMDL
