MODEL 1
REMARK VINA RESULT:      -7.0      0.000      0.000
REMARK  Name = 
REMARK  4 active torsions:
REMARK  status: ('A' for Active; 'I' for Inactive)
REMARK    1  A    between atoms: C_1  and  C_2
REMARK    2  A    between atoms: C_2  and  C_3
REMARK    3  A    between atoms: C_5  and  O_6
REMARK    4  A    between atoms: N_11  and  C_12
REMARK                            x       y       z     vdW  Elec       q    Type
REMARK                         _______ _______ _______ _____ _____    ______ ____
ROOT
ATOM      1  C   UNL     1       6.916   7.478  17.309  0.00  0.00    +0.000 A 
ATOM      2  N   UNL     1       7.572   6.470  16.705  0.00  0.00    +0.000 NA
ATOM      3  C   UNL     1       6.874   5.339  16.543  0.00  0.00    +0.000 A 
ATOM      4  C   UNL     1       5.585   5.166  16.956  0.00  0.00    +0.000 A 
ATOM      5  S   UNL     1       4.526   3.784  16.811  0.00  0.00    +0.000 S 
ATOM      6  C   UNL     1       3.211   4.663  17.626  0.00  0.00    +0.000 A 
ATOM      7  S   UNL     1       1.803   3.849  18.019  0.00  0.00    +0.000 S 
ATOM      8  N   UNL     1       3.622   5.981  17.914  0.00  0.00    +0.000 N 
ATOM      9  C   UNL     1       4.987   6.250  17.557  0.00  0.00    +0.000 A 
ATOM     10  N   UNL     1       5.631   7.423  17.727  0.00  0.00    +0.000 NA
ENDROOT
BRANCH   8  11
ATOM     11  C   UNL     1       2.790   7.033  18.416  0.00  0.00    +0.000 A 
ATOM     12  C   UNL     1       2.398   7.098  19.763  0.00  0.00    +0.000 A 
ATOM     13  C   UNL     1       1.624   8.161  20.246  0.00  0.00    +0.000 A 
ATOM     14  C   UNL     1       1.215   9.179  19.390  0.00  0.00    +0.000 A 
ATOM     15  C   UNL     1       1.570   9.127  18.049  0.00  0.00    +0.000 A 
ATOM     16  C   UNL     1       2.350   8.067  17.572  0.00  0.00    +0.000 A 
ENDBRANCH   8  11
BRANCH   1  18
ATOM     17  C   UNL     1       8.628   8.636  18.735  0.00  0.00    +0.000 C 
ATOM     18  C   UNL     1       7.699   8.746  17.539  0.00  0.00    +0.000 C 
ENDBRANCH   1  18
BRANCH   3  19
ATOM     19  O   UNL     1       7.568   4.356  15.917  0.00  0.00    +0.000 OA
ATOM     20  H   UNL     1       7.509   4.647  14.989  0.00  0.00    +0.000 HD
ENDBRANCH   3  19
TORSDOF 3
ENDMDL
MODEL 2
REMARK VINA RESULT:      -7.0      0.135      1.108
REMARK  Name = 
REMARK  4 active torsions:
REMARK  status: ('A' for Active; 'I' for Inactive)
REMARK    1  A    between atoms: C_1  and  C_2
REMARK    2  A    between atoms: C_2  and  C_3
REMARK    3  A    between atoms: C_5  and  O_6
REMARK    4  A    between atoms: N_11  and  C_12
REMARK                            x       y       z     vdW  Elec       q    Type
REMARK                         _______ _______ _______ _____ _____    ______ ____
ROOT
ATOM      1  C   UNL     1       6.912   7.376  17.266  0.00  0.00    +0.000 A 
ATOM      2  N   UNL     1       7.516   6.359  16.625  0.00  0.00    +0.000 NA
ATOM      3  C   UNL     1       6.776   5.256  16.457  0.00  0.00    +0.000 A 
ATOM      4  C   UNL     1       5.492   5.119  16.898  0.00  0.00    +0.000 A 
ATOM      5  S   UNL     1       4.382   3.778  16.750  0.00  0.00    +0.000 S 
ATOM      6  C   UNL     1       3.119   4.684  17.615  0.00  0.00    +0.000 A 
ATOM      7  S   UNL     1       1.692   3.911  18.026  0.00  0.00    +0.000 S 
ATOM      8  N   UNL     1       3.582   5.980  17.921  0.00  0.00    +0.000 N 
ATOM      9  C   UNL     1       4.947   6.209  17.536  0.00  0.00    +0.000 A 
ATOM     10  N   UNL     1       5.636   7.356  17.715  0.00  0.00    +0.000 NA
ENDROOT
BRANCH   8  11
ATOM     11  C   UNL     1       2.800   7.050  18.465  0.00  0.00    +0.000 A 
ATOM     12  C   UNL     1       2.373   8.136  17.684  0.00  0.00    +0.000 A 
ATOM     13  C   UNL     1       1.568   9.148  18.222  0.00  0.00    +0.000 A 
ATOM     14  C   UNL     1       1.180   9.103  19.557  0.00  0.00    +0.000 A 
ATOM     15  C   UNL     1       1.607   8.052  20.357  0.00  0.00    +0.000 A 
ATOM     16  C   UNL     1       2.405   7.038  19.814  0.00  0.00    +0.000 A 
ENDBRANCH   8  11
BRANCH   1  18
ATOM     17  C   UNL     1       8.652   8.465  18.711  0.00  0.00    +0.000 C 
ATOM     18  C   UNL     1       7.744   8.610  17.503  0.00  0.00    +0.000 C 
ENDBRANCH   1  18
BRANCH   3  19
ATOM     19  O   UNL     1       7.420   4.264  15.794  0.00  0.00    +0.000 OA
ATOM     20  H   UNL     1       8.298   4.295  16.215  0.00  0.00    +0.000 HD
ENDBRANCH   3  19
TORSDOF 3
ENDMDL
MODEL 3
REMARK VINA RESULT:      -6.4      3.415      5.108
REMARK  Name = 
REMARK  4 active torsions:
REMARK  status: ('A' for Active; 'I' for Inactive)
REMARK    1  A    between atoms: C_1  and  C_2
REMARK    2  A    between atoms: C_2  and  C_3
REMARK    3  A    between atoms: C_5  and  O_6
REMARK    4  A    between atoms: N_11  and  C_12
REMARK                            x       y       z     vdW  Elec       q    Type
REMARK                         _______ _______ _______ _____ _____    ______ ____
ROOT
ATOM      1  C   UNL     1       5.484   3.876  13.328  0.00  0.00    +0.000 A 
ATOM      2  N   UNL     1       6.668   4.457  13.066  0.00  0.00    +0.000 NA
ATOM      3  C   UNL     1       7.278   5.030  14.111  0.00  0.00    +0.000 A 
ATOM      4  C   UNL     1       6.767   5.059  15.377  0.00  0.00    +0.000 A 
ATOM      5  S   UNL     1       7.425   5.734  16.848  0.00  0.00    +0.000 S 
ATOM      6  C   UNL     1       6.002   5.198  17.770  0.00  0.00    +0.000 A 
ATOM      7  S   UNL     1       5.838   5.669  19.369  0.00  0.00    +0.000 S 
ATOM      8  N   UNL     1       5.126   4.482  16.929  0.00  0.00    +0.000 N 
ATOM      9  C   UNL     1       5.555   4.434  15.559  0.00  0.00    +0.000 A 
ATOM     10  N   UNL     1       4.904   3.820  14.549  0.00  0.00    +0.000 NA
ENDROOT
BRANCH   8  11
ATOM     11  C   UNL     1       3.961   3.759  17.343  0.00  0.00    +0.000 A 
ATOM     12  C   UNL     1       4.010   2.399  17.688  0.00  0.00    +0.000 A 
ATOM     13  C   UNL     1       2.869   1.720  18.137  0.00  0.00    +0.000 A 
ATOM     14  C   UNL     1       1.651   2.384  18.240  0.00  0.00    +0.000 A 
ATOM     15  C   UNL     1       1.571   3.724  17.884  0.00  0.00    +0.000 A 
ATOM     16  C   UNL     1       2.715   4.400  17.444  0.00  0.00    +0.000 A 
ENDBRANCH   8  11
BRANCH   1  18
ATOM     17  C   UNL     1       5.573   2.163  11.494  0.00  0.00    +0.000 C 
ATOM     18  C   UNL     1       4.762   3.264  12.155  0.00  0.00    +0.000 C 
ENDBRANCH   1  18
BRANCH   3  19
ATOM     19  O   UNL     1       8.475   5.589  13.805  0.00  0.00    +0.000 OA
ATOM     20  H   UNL     1       8.383   6.467  14.218  0.00  0.00    +0.000 HD
ENDBRANCH   3  19
TORSDOF 3
ENDMDL
MODEL 4
REMARK VINA RESULT:      -6.2      3.846      6.389
REMARK  Name = 
REMARK  4 active torsions:
REMARK  status: ('A' for Active; 'I' for Inactive)
REMARK    1  A    between atoms: C_1  and  C_2
REMARK    2  A    between atoms: C_2  and  C_3
REMARK    3  A    between atoms: C_5  and  O_6
REMARK    4  A    between atoms: N_11  and  C_12
REMARK                            x       y       z     vdW  Elec       q    Type
REMARK                         _______ _______ _______ _____ _____    ______ ____
ROOT
ATOM      1  C   UNL     1       0.327   8.816  21.310  0.00  0.00    +0.000 A 
ATOM      2  N   UNL     1       0.523   9.934  20.588  0.00  0.00    +0.000 NA
ATOM      3  C   UNL     1       1.295   9.797  19.502  0.00  0.00    +0.000 A 
ATOM      4  C   UNL     1       1.876   8.624  19.116  0.00  0.00    +0.000 A 
ATOM      5  S   UNL     1       2.882   8.260  17.736  0.00  0.00    +0.000 S 
ATOM      6  C   UNL     1       3.012   6.558  18.236  0.00  0.00    +0.000 A 
ATOM      7  S   UNL     1       4.045   5.536  17.404  0.00  0.00    +0.000 S 
ATOM      8  N   UNL     1       2.237   6.337  19.393  0.00  0.00    +0.000 N 
ATOM      9  C   UNL     1       1.618   7.527  19.907  0.00  0.00    +0.000 A 
ATOM     10  N   UNL     1       0.830   7.599  21.000  0.00  0.00    +0.000 NA
ENDROOT
BRANCH   8  11
ATOM     11  C   UNL     1       1.962   5.067  19.995  0.00  0.00    +0.000 A 
ATOM     12  C   UNL     1       1.155   4.103  19.370  0.00  0.00    +0.000 A 
ATOM     13  C   UNL     1       0.936   2.848  19.953  0.00  0.00    +0.000 A 
ATOM     14  C   UNL     1       1.511   2.532  21.179  0.00  0.00    +0.000 A 
ATOM     15  C   UNL     1       2.295   3.476  21.829  0.00  0.00    +0.000 A 
ATOM     16  C   UNL     1       2.518   4.726  21.240  0.00  0.00    +0.000 A 
ENDBRANCH   8  11
BRANCH   1  18
ATOM     17  C   UNL     1      -0.712  10.414  22.944  0.00  0.00    +0.000 C 
ATOM     18  C   UNL     1      -0.503   8.960  22.560  0.00  0.00    +0.000 C 
ENDBRANCH   1  18
BRANCH   3  19
ATOM     19  O   UNL     1       1.452  10.944  18.798  0.00  0.00    +0.000 OA
ATOM     20  H   UNL     1       1.679  11.572  19.508  0.00  0.00    +0.000 HD
ENDBRANCH   3  19
TORSDOF 3
ENDMDL
MODEL 5
REMARK VINA RESULT:      -6.2      3.170      5.485
REMARK  Name = 
REMARK  4 active torsions:
REMARK  status: ('A' for Active; 'I' for Inactive)
REMARK    1  A    between atoms: C_1  and  C_2
REMARK    2  A    between atoms: C_2  and  C_3
REMARK    3  A    between atoms: C_5  and  O_6
REMARK    4  A    between atoms: N_11  and  C_12
REMARK                            x       y       z     vdW  Elec       q    Type
REMARK                         _______ _______ _______ _____ _____    ______ ____
ROOT
ATOM      1  C   UNL     1       2.462   8.083  18.483  0.00  0.00    +0.000 A 
ATOM      2  N   UNL     1       1.667   8.120  19.567  0.00  0.00    +0.000 NA
ATOM      3  C   UNL     1       1.661   7.014  20.321  0.00  0.00    +0.000 A 
ATOM      4  C   UNL     1       2.388   5.892  20.045  0.00  0.00    +0.000 A 
ATOM      5  S   UNL     1       2.519   4.384  20.916  0.00  0.00    +0.000 S 
ATOM      6  C   UNL     1       3.665   3.748  19.714  0.00  0.00    +0.000 A 
ATOM      7  S   UNL     1       4.152   2.150  19.812  0.00  0.00    +0.000 S 
ATOM      8  N   UNL     1       3.937   4.733  18.742  0.00  0.00    +0.000 N 
ATOM      9  C   UNL     1       3.181   5.942  18.921  0.00  0.00    +0.000 A 
ATOM     10  N   UNL     1       3.245   7.037  18.135  0.00  0.00    +0.000 NA
ENDROOT
BRANCH   8  11
ATOM     11  C   UNL     1       4.928   4.652  17.712  0.00  0.00    +0.000 A 
ATOM     12  C   UNL     1       6.285   4.914  17.959  0.00  0.00    +0.000 A 
ATOM     13  C   UNL     1       7.248   4.782  16.949  0.00  0.00    +0.000 A 
ATOM     14  C   UNL     1       6.873   4.395  15.667  0.00  0.00    +0.000 A 
ATOM     15  C   UNL     1       5.534   4.152  15.390  0.00  0.00    +0.000 A 
ATOM     16  C   UNL     1       4.577   4.277  16.404  0.00  0.00    +0.000 A 
ENDBRANCH   8  11
BRANCH   1  18
ATOM     17  C   UNL     1       1.632  10.435  18.196  0.00  0.00    +0.000 C 
ATOM     18  C   UNL     1       2.448   9.303  17.597  0.00  0.00    +0.000 C 
ENDBRANCH   1  18
BRANCH   3  19
ATOM     19  O   UNL     1       0.859   7.101  21.411  0.00  0.00    +0.000 OA
ATOM     20  H   UNL     1       1.417   7.625  22.014  0.00  0.00    +0.000 HD
ENDBRANCH   3  19
TORSDOF 3
ENDMDL
MODEL 6
REMARK VINA RESULT:      -6.2      3.189      5.558
REMARK  Name = 
REMARK  4 active torsions:
REMARK  status: ('A' for Active; 'I' for Inactive)
REMARK    1  A    between atoms: C_1  and  C_2
REMARK    2  A    between atoms: C_2  and  C_3
REMARK    3  A    between atoms: C_5  and  O_6
REMARK    4  A    between atoms: N_11  and  C_12
REMARK                            x       y       z     vdW  Elec       q    Type
REMARK                         _______ _______ _______ _____ _____    ______ ____
ROOT
ATOM      1  C   UNL     1       2.516   7.942  18.502  0.00  0.00    +0.000 A 
ATOM      2  N   UNL     1       1.710   7.988  19.578  0.00  0.00    +0.000 NA
ATOM      3  C   UNL     1       1.693   6.887  20.339  0.00  0.00    +0.000 A 
ATOM      4  C   UNL     1       2.418   5.760  20.076  0.00  0.00    +0.000 A 
ATOM      5  S   UNL     1       2.533   4.257  20.958  0.00  0.00    +0.000 S 
ATOM      6  C   UNL     1       3.688   3.609  19.771  0.00  0.00    +0.000 A 
ATOM      7  S   UNL     1       4.167   2.009  19.883  0.00  0.00    +0.000 S 
ATOM      8  N   UNL     1       3.974   4.587  18.796  0.00  0.00    +0.000 N 
ATOM      9  C   UNL     1       3.221   5.800  18.960  0.00  0.00    +0.000 A 
ATOM     10  N   UNL     1       3.298   6.890  18.167  0.00  0.00    +0.000 NA
ENDROOT
BRANCH   8  11
ATOM     11  C   UNL     1       4.975   4.495  17.776  0.00  0.00    +0.000 A 
ATOM     12  C   UNL     1       4.657   4.192  16.442  0.00  0.00    +0.000 A 
ATOM     13  C   UNL     1       5.644   4.154  15.449  0.00  0.00    +0.000 A 
ATOM     14  C   UNL     1       6.974   4.406  15.769  0.00  0.00    +0.000 A 
ATOM     15  C   UNL     1       7.319   4.685  17.085  0.00  0.00    +0.000 A 
ATOM     16  C   UNL     1       6.328   4.731  18.073  0.00  0.00    +0.000 A 
ENDBRANCH   8  11
BRANCH   1  18
ATOM     17  C   UNL     1       1.547  10.222  18.091  0.00  0.00    +0.000 C 
ATOM     18  C   UNL     1       2.516   9.156  17.609  0.00  0.00    +0.000 C 
ENDBRANCH   1  18
BRANCH   3  19
ATOM     19  O   UNL     1       0.881   6.984  21.420  0.00  0.00    +0.000 OA
ATOM     20  H   UNL     1       0.780   7.951  21.493  0.00  0.00    +0.000 HD
ENDBRANCH   3  19
TORSDOF 3
ENDMDL
MODEL 7
REMARK VINA RESULT:      -6.2      3.408      5.170
REMARK  Name = 
REMARK  4 active torsions:
REMARK  status: ('A' for Active; 'I' for Inactive)
REMARK    1  A    between atoms: C_1  and  C_2
REMARK    2  A    between atoms: C_2  and  C_3
REMARK    3  A    between atoms: C_5  and  O_6
REMARK    4  A    between atoms: N_11  and  C_12
REMARK                            x       y       z     vdW  Elec       q    Type
REMARK                         _______ _______ _______ _____ _____    ______ ____
ROOT
ATOM      1  C   UNL     1       5.464   3.854  13.358  0.00  0.00    +0.000 A 
ATOM      2  N   UNL     1       6.652   4.417  13.074  0.00  0.00    +0.000 NA
ATOM      3  C   UNL     1       7.283   4.993  14.104  0.00  0.00    +0.000 A 
ATOM      4  C   UNL     1       6.791   5.041  15.377  0.00  0.00    +0.000 A 
ATOM      5  S   UNL     1       7.479   5.722  16.831  0.00  0.00    +0.000 S 
ATOM      6  C   UNL     1       6.062   5.214  17.779  0.00  0.00    +0.000 A 
ATOM      7  S   UNL     1       5.927   5.704  19.374  0.00  0.00    +0.000 S 
ATOM      8  N   UNL     1       5.165   4.501  16.958  0.00  0.00    +0.000 N 
ATOM      9  C   UNL     1       5.574   4.434  15.582  0.00  0.00    +0.000 A 
ATOM     10  N   UNL     1       4.901   3.818  14.588  0.00  0.00    +0.000 NA
ENDROOT
BRANCH   8  11
ATOM     11  C   UNL     1       3.997   3.798  17.396  0.00  0.00    +0.000 A 
ATOM     12  C   UNL     1       2.739   4.415  17.474  0.00  0.00    +0.000 A 
ATOM     13  C   UNL     1       1.598   3.698  17.858  0.00  0.00    +0.000 A 
ATOM     14  C   UNL     1       1.693   2.348  18.184  0.00  0.00    +0.000 A 
ATOM     15  C   UNL     1       2.930   1.719  18.136  0.00  0.00    +0.000 A 
ATOM     16  C   UNL     1       4.065   2.437  17.744  0.00  0.00    +0.000 A 
ENDBRANCH   8  11
BRANCH   1  18
ATOM     17  C   UNL     1       5.557   2.216  11.457  0.00  0.00    +0.000 C 
ATOM     18  C   UNL     1       4.717   3.239  12.202  0.00  0.00    +0.000 C 
ENDBRANCH   1  18
BRANCH   3  19
ATOM     19  O   UNL     1       8.483   5.533  13.775  0.00  0.00    +0.000 OA
ATOM     20  H   UNL     1       9.090   4.968  14.286  0.00  0.00    +0.000 HD
ENDBRANCH   3  19
TORSDOF 3
ENDMDL
MODEL 8
REMARK VINA RESULT:      -6.2      3.390      5.617
REMARK  Name = 
REMARK  4 active torsions:
REMARK  status: ('A' for Active; 'I' for Inactive)
REMARK    1  A    between atoms: C_1  and  C_2
REMARK    2  A    between atoms: C_2  and  C_3
REMARK    3  A    between atoms: C_5  and  O_6
REMARK    4  A    between atoms: N_11  and  C_12
REMARK                            x       y       z     vdW  Elec       q    Type
REMARK                         _______ _______ _______ _____ _____    ______ ____
ROOT
ATOM      1  C   UNL     1       0.861   8.932  20.155  0.00  0.00    +0.000 A 
ATOM      2  N   UNL     1       1.212   9.884  19.272  0.00  0.00    +0.000 NA
ATOM      3  C   UNL     1       2.052   9.498  18.304  0.00  0.00    +0.000 A 
ATOM      4  C   UNL     1       2.557   8.235  18.184  0.00  0.00    +0.000 A 
ATOM      5  S   UNL     1       3.634   7.555  16.989  0.00  0.00    +0.000 S 
ATOM      6  C   UNL     1       3.572   5.967  17.787  0.00  0.00    +0.000 A 
ATOM      7  S   UNL     1       4.575   4.740  17.246  0.00  0.00    +0.000 S 
ATOM      8  N   UNL     1       2.692   6.016  18.886  0.00  0.00    +0.000 N 
ATOM      9  C   UNL     1       2.140   7.321  19.125  0.00  0.00    +0.000 A 
ATOM     10  N   UNL     1       1.277   7.646  20.110  0.00  0.00    +0.000 NA
ENDROOT
BRANCH   8  11
ATOM     11  C   UNL     1       2.258   4.899  19.671  0.00  0.00    +0.000 A 
ATOM     12  C   UNL     1       2.715   4.684  20.981  0.00  0.00    +0.000 A 
ATOM     13  C   UNL     1       2.243   3.613  21.751  0.00  0.00    +0.000 A 
ATOM     14  C   UNL     1       1.312   2.725  21.223  0.00  0.00    +0.000 A 
ATOM     15  C   UNL     1       0.861   2.901  19.922  0.00  0.00    +0.000 A 
ATOM     16  C   UNL     1       1.329   3.977  19.159  0.00  0.00    +0.000 A 
ENDBRANCH   8  11
BRANCH   1  18
ATOM     17  C   UNL     1       0.645   9.317  22.627  0.00  0.00    +0.000 C 
ATOM     18  C   UNL     1      -0.050   9.359  21.278  0.00  0.00    +0.000 C 
ENDBRANCH   1  18
BRANCH   3  19
ATOM     19  O   UNL     1       2.366  10.484  17.429  0.00  0.00    +0.000 OA
ATOM     20  H   UNL     1       3.331  10.373  17.359  0.00  0.00    +0.000 HD
ENDBRANCH   3  19
TORSDOF 3
ENDMDL
MODEL 9
REMARK VINA RESULT:      -6.1      2.441      5.204
REMARK  Name = 
REMARK  4 active torsions:
REMARK  status: ('A' for Active; 'I' for Inactive)
REMARK    1  A    between atoms: C_1  and  C_2
REMARK    2  A    between atoms: C_2  and  C_3
REMARK    3  A    between atoms: C_5  and  O_6
REMARK    4  A    between atoms: N_11  and  C_12
REMARK                            x       y       z     vdW  Elec       q    Type
REMARK                         _______ _______ _______ _____ _____    ______ ____
ROOT
ATOM      1  C   UNL     1       2.275   5.577  19.865  0.00  0.00    +0.000 A 
ATOM      2  N   UNL     1       1.391   4.611  19.557  0.00  0.00    +0.000 NA
ATOM      3  C   UNL     1       1.743   3.801  18.551  0.00  0.00    +0.000 A 
ATOM      4  C   UNL     1       2.906   3.913  17.846  0.00  0.00    +0.000 A 
ATOM      5  S   UNL     1       3.532   2.944  16.534  0.00  0.00    +0.000 S 
ATOM      6  C   UNL     1       4.999   3.946  16.449  0.00  0.00    +0.000 A 
ATOM      7  S   UNL     1       6.094   3.691  15.208  0.00  0.00    +0.000 S 
ATOM      8  N   UNL     1       4.968   4.929  17.458  0.00  0.00    +0.000 N 
ATOM      9  C   UNL     1       3.757   4.923  18.231  0.00  0.00    +0.000 A 
ATOM     10  N   UNL     1       3.467   5.757  19.251  0.00  0.00    +0.000 NA
ENDROOT
BRANCH   8  11
ATOM     11  C   UNL     1       6.039   5.813  17.809  0.00  0.00    +0.000 A 
ATOM     12  C   UNL     1       6.986   5.487  18.793  0.00  0.00    +0.000 A 
ATOM     13  C   UNL     1       8.055   6.343  19.088  0.00  0.00    +0.000 A 
ATOM     14  C   UNL     1       8.194   7.552  18.413  0.00  0.00    +0.000 A 
ATOM     15  C   UNL     1       7.259   7.909  17.451  0.00  0.00    +0.000 A 
ATOM     16  C   UNL     1       6.197   7.047  17.154  0.00  0.00    +0.000 A 
ENDBRANCH   8  11
BRANCH   1  18
ATOM     17  C   UNL     1       1.689   7.946  20.458  0.00  0.00    +0.000 C 
ATOM     18  C   UNL     1       1.876   6.527  20.965  0.00  0.00    +0.000 C 
ENDBRANCH   1  18
BRANCH   3  19
ATOM     19  O   UNL     1       0.831   2.833  18.286  0.00  0.00    +0.000 OA
ATOM     20  H   UNL     1       1.407   2.112  17.975  0.00  0.00    +0.000 HD
ENDBRANCH   3  19
TORSDOF 3
ENDMDL
