MODEL 1
REMARK VINA RESULT:      -8.1      0.000      0.000
REMARK  Name = 
REMARK  7 active torsions:
REMARK  status: ('A' for Active; 'I' for Inactive)
REMARK    1  A    between atoms: C_2  and  C_3
REMARK    2  A    between atoms: C_3  and  C_4
REMARK    3  A    between atoms: C_5  and  C_6
REMARK    4  A    between atoms: C_8  and  C_9
REMARK    5  A    between atoms: C_16  and  N_17
REMARK    6  A    between atoms: N_17  and  C_18
REMARK    7  A    between atoms: C_21  and  O_22
REMARK                            x       y       z     vdW  Elec       q    Type
REMARK                         _______ _______ _______ _____ _____    ______ ____
ROOT
ATOM      1  C   UNL     1       3.430   3.845  19.947  0.00  0.00    +0.000 A 
ATOM      2  C   UNL     1       2.141   4.219  20.331  0.00  0.00    +0.000 A 
ATOM      3  C   UNL     1       1.095   3.267  20.832  0.00  0.00    +0.000 C 
ATOM      4  N   UNL     1       1.694   5.490  20.242  0.00  0.00    +0.000 NA
ATOM      5  C   UNL     1       2.524   6.412  19.742  0.00  0.00    +0.000 A 
ATOM      6  N   UNL     1       3.766   6.141  19.329  0.00  0.00    +0.000 NA
ATOM      7  C   UNL     1       4.212   4.871  19.405  0.00  0.00    +0.000 A 
ENDROOT
BRANCH   5   8
ATOM      8  C   UNL     1       1.993   7.777  19.540  0.00  0.00    +0.000 A 
ATOM      9  C   UNL     1       1.332   8.459  20.580  0.00  0.00    +0.000 A 
ATOM     10  C   UNL     1       0.771   9.725  20.392  0.00  0.00    +0.000 A 
ATOM     11  C   UNL     1       0.862  10.348  19.151  0.00  0.00    +0.000 A 
ATOM     12  C   UNL     1       1.523   9.709  18.105  0.00  0.00    +0.000 A 
ATOM     13  C   UNL     1       2.084   8.440  18.300  0.00  0.00    +0.000 A 
ENDBRANCH   5   8
BRANCH   7  14
ATOM     14  N   UNL     1       5.476   4.570  18.834  0.00  0.00    +0.000 N 
ATOM     15  H   UNL     1       6.226   4.940  19.407  0.00  0.00    +0.000 HD
BRANCH  14  16
ATOM     16  C   UNL     1       5.823   4.547  17.461  0.00  0.00    +0.000 A 
ATOM     17  C   UNL     1       7.123   4.812  17.005  0.00  0.00    +0.000 A 
ATOM     18  C   UNL     1       7.453   4.744  15.649  0.00  0.00    +0.000 A 
ATOM     19  C   UNL     1       6.457   4.473  14.724  0.00  0.00    +0.000 A 
ATOM     20  C   UNL     1       5.140   4.311  15.131  0.00  0.00    +0.000 A 
ATOM     21  C   UNL     1       4.823   4.360  16.495  0.00  0.00    +0.000 A 
BRANCH  19  22
ATOM     22  O   UNL     1       6.739   4.359  13.396  0.00  0.00    +0.000 OA
ATOM     23  H   UNL     1       7.688   4.527  13.272  0.00  0.00    +0.000 HD
ENDBRANCH  19  22
ENDBRANCH  14  16
ENDBRANCH   7  14
BRANCH   1  24
ATOM     24  C   UNL     1       3.931   2.428  20.083  0.00  0.00    +0.000 C 
BRANCH  24  26
ATOM     25  C   UNL     1       2.801   1.804  17.913  0.00  0.00    +0.000 C 
ATOM     26  C   UNL     1       3.774   1.616  18.820  0.00  0.00    +0.000 C 
ENDBRANCH  24  26
ENDBRANCH   1  24
TORSDOF 6
ENDMDL
MODEL 2
REMARK VINA RESULT:      -8.1      0.271      1.014
REMARK  Name = 
REMARK  7 active torsions:
REMARK  status: ('A' for Active; 'I' for Inactive)
REMARK    1  A    between atoms: C_2  and  C_3
REMARK    2  A    between atoms: C_3  and  C_4
REMARK    3  A    between atoms: C_5  and  C_6
REMARK    4  A    between atoms: C_8  and  C_9
REMARK    5  A    between atoms: C_16  and  N_17
REMARK    6  A    between atoms: N_17  and  C_18
REMARK    7  A    between atoms: C_21  and  O_22
REMARK                            x       y       z     vdW  Elec       q    Type
REMARK                         _______ _______ _______ _____ _____    ______ ____
ROOT
ATOM      1  C   UNL     1       3.456   3.704  19.986  0.00  0.00    +0.000 A 
ATOM      2  C   UNL     1       2.178   4.105  20.376  0.00  0.00    +0.000 A 
ATOM      3  C   UNL     1       1.124   3.180  20.913  0.00  0.00    +0.000 C 
ATOM      4  N   UNL     1       1.747   5.380  20.263  0.00  0.00    +0.000 NA
ATOM      5  C   UNL     1       2.583   6.278  19.730  0.00  0.00    +0.000 A 
ATOM      6  N   UNL     1       3.815   5.980  19.308  0.00  0.00    +0.000 NA
ATOM      7  C   UNL     1       4.245   4.706  19.409  0.00  0.00    +0.000 A 
ENDROOT
BRANCH   5   8
ATOM      8  C   UNL     1       2.068   7.645  19.501  0.00  0.00    +0.000 A 
ATOM      9  C   UNL     1       1.375   8.337  20.514  0.00  0.00    +0.000 A 
ATOM     10  C   UNL     1       0.830   9.606  20.299  0.00  0.00    +0.000 A 
ATOM     11  C   UNL     1       0.969  10.221  19.059  0.00  0.00    +0.000 A 
ATOM     12  C   UNL     1       1.663   9.571  18.040  0.00  0.00    +0.000 A 
ATOM     13  C   UNL     1       2.207   8.301  18.262  0.00  0.00    +0.000 A 
ENDBRANCH   5   8
BRANCH   7  14
ATOM     14  N   UNL     1       5.498   4.373  18.830  0.00  0.00    +0.000 N 
ATOM     15  H   UNL     1       6.255   4.581  19.470  0.00  0.00    +0.000 HD
BRANCH  14  16
ATOM     16  C   UNL     1       5.893   4.521  17.478  0.00  0.00    +0.000 A 
ATOM     17  C   UNL     1       5.028   4.264  16.404  0.00  0.00    +0.000 A 
ATOM     18  C   UNL     1       5.426   4.456  15.079  0.00  0.00    +0.000 A 
ATOM     19  C   UNL     1       6.729   4.849  14.815  0.00  0.00    +0.000 A 
ATOM     20  C   UNL     1       7.641   5.009  15.849  0.00  0.00    +0.000 A 
ATOM     21  C   UNL     1       7.227   4.835  17.175  0.00  0.00    +0.000 A 
BRANCH  19  22
ATOM     22  O   UNL     1       7.150   5.086  13.541  0.00  0.00    +0.000 OA
ATOM     23  H   UNL     1       7.534   4.264  13.191  0.00  0.00    +0.000 HD
ENDBRANCH  19  22
ENDBRANCH  14  16
ENDBRANCH   7  14
BRANCH   1  24
ATOM     24  C   UNL     1       3.939   2.284  20.149  0.00  0.00    +0.000 C 
BRANCH  24  26
ATOM     25  C   UNL     1       2.921   1.773  17.896  0.00  0.00    +0.000 C 
ATOM     26  C   UNL     1       3.720   1.434  18.921  0.00  0.00    +0.000 C 
ENDBRANCH  24  26
ENDBRANCH   1  24
TORSDOF 6
ENDMDL
MODEL 3
REMARK VINA RESULT:      -7.9      0.386      1.054
REMARK  Name = 
REMARK  7 active torsions:
REMARK  status: ('A' for Active; 'I' for Inactive)
REMARK    1  A    between atoms: C_2  and  C_3
REMARK    2  A    between atoms: C_3  and  C_4
REMARK    3  A    between atoms: C_5  and  C_6
REMARK    4  A    between atoms: C_8  and  C_9
REMARK    5  A    between atoms: C_16  and  N_17
REMARK    6  A    between atoms: N_17  and  C_18
REMARK    7  A    between atoms: C_21  and  O_22
REMARK                            x       y       z     vdW  Elec       q    Type
REMARK                         _______ _______ _______ _____ _____    ______ ____
ROOT
ATOM      1  C   UNL     1       3.437   3.692  19.967  0.00  0.00    +0.000 A 
ATOM      2  C   UNL     1       2.148   4.083  20.331  0.00  0.00    +0.000 A 
ATOM      3  C   UNL     1       1.090   3.148  20.841  0.00  0.00    +0.000 C 
ATOM      4  N   UNL     1       1.711   5.354  20.212  0.00  0.00    +0.000 NA
ATOM      5  C   UNL     1       2.551   6.260  19.701  0.00  0.00    +0.000 A 
ATOM      6  N   UNL     1       3.794   5.972  19.304  0.00  0.00    +0.000 NA
ATOM      7  C   UNL     1       4.231   4.701  19.411  0.00  0.00    +0.000 A 
ENDROOT
BRANCH   5   8
ATOM      8  C   UNL     1       2.032   7.625  19.466  0.00  0.00    +0.000 A 
ATOM      9  C   UNL     1       2.227   8.271  18.229  0.00  0.00    +0.000 A 
ATOM     10  C   UNL     1       1.795   9.581  18.006  0.00  0.00    +0.000 A 
ATOM     11  C   UNL     1       1.149  10.282  19.020  0.00  0.00    +0.000 A 
ATOM     12  C   UNL     1       0.926   9.667  20.250  0.00  0.00    +0.000 A 
ATOM     13  C   UNL     1       1.359   8.354  20.467  0.00  0.00    +0.000 A 
ENDBRANCH   5   8
BRANCH   7  14
ATOM     14  N   UNL     1       5.498   4.379  18.857  0.00  0.00    +0.000 N 
ATOM     15  H   UNL     1       6.235   4.537  19.535  0.00  0.00    +0.000 HD
BRANCH  14  16
ATOM     16  C   UNL     1       5.944   4.597  17.531  0.00  0.00    +0.000 A 
ATOM     17  C   UNL     1       7.037   5.422  17.227  0.00  0.00    +0.000 A 
ATOM     18  C   UNL     1       7.486   5.590  15.915  0.00  0.00    +0.000 A 
ATOM     19  C   UNL     1       6.796   4.979  14.880  0.00  0.00    +0.000 A 
ATOM     20  C   UNL     1       5.647   4.243  15.136  0.00  0.00    +0.000 A 
ATOM     21  C   UNL     1       5.218   4.062  16.457  0.00  0.00    +0.000 A 
BRANCH  19  22
ATOM     22  O   UNL     1       7.220   5.084  13.589  0.00  0.00    +0.000 OA
ATOM     23  H   UNL     1       6.472   4.873  13.007  0.00  0.00    +0.000 HD
ENDBRANCH  19  22
ENDBRANCH  14  16
ENDBRANCH   7  14
BRANCH   1  24
ATOM     24  C   UNL     1       3.927   2.274  20.136  0.00  0.00    +0.000 C 
BRANCH  24  26
ATOM     25  C   UNL     1       2.889   1.736  17.898  0.00  0.00    +0.000 C 
ATOM     26  C   UNL     1       3.712   1.419  18.910  0.00  0.00    +0.000 C 
ENDBRANCH  24  26
ENDBRANCH   1  24
TORSDOF 6
ENDMDL
MODEL 4
REMARK VINA RESULT:      -7.8      2.599      6.364
REMARK  Name = 
REMARK  7 active torsions:
REMARK  status: ('A' for Active; 'I' for Inactive)
REMARK    1  A    between atoms: C_2  and  C_3
REMARK    2  A    between atoms: C_3  and  C_4
REMARK    3  A    between atoms: C_5  and  C_6
REMARK    4  A    between atoms: C_8  and  C_9
REMARK    5  A    between atoms: C_16  and  N_17
REMARK    6  A    between atoms: N_17  and  C_18
REMARK    7  A    between atoms: C_21  and  O_22
REMARK                            x       y       z     vdW  Elec       q    Type
REMARK                         _______ _______ _______ _____ _____    ______ ____
ROOT
ATOM      1  C   UNL     1       2.292   4.301  19.004  0.00  0.00    +0.000 A 
ATOM      2  C   UNL     1       2.598   3.225  18.170  0.00  0.00    +0.000 A 
ATOM      3  C   UNL     1       1.997   1.856  18.296  0.00  0.00    +0.000 C 
ATOM      4  N   UNL     1       3.513   3.307  17.181  0.00  0.00    +0.000 NA
ATOM      5  C   UNL     1       4.163   4.465  17.023  0.00  0.00    +0.000 A 
ATOM      6  N   UNL     1       3.952   5.540  17.789  0.00  0.00    +0.000 NA
ATOM      7  C   UNL     1       3.047   5.459  18.785  0.00  0.00    +0.000 A 
ENDROOT
BRANCH   5   8
ATOM      8  C   UNL     1       5.245   4.515  16.016  0.00  0.00    +0.000 A 
ATOM      9  C   UNL     1       6.483   5.117  16.313  0.00  0.00    +0.000 A 
ATOM     10  C   UNL     1       7.497   5.226  15.357  0.00  0.00    +0.000 A 
ATOM     11  C   UNL     1       7.299   4.730  14.073  0.00  0.00    +0.000 A 
ATOM     12  C   UNL     1       6.091   4.114  13.751  0.00  0.00    +0.000 A 
ATOM     13  C   UNL     1       5.079   4.007  14.712  0.00  0.00    +0.000 A 
ENDBRANCH   5   8
BRANCH   7  14
ATOM     14  N   UNL     1       2.934   6.556  19.679  0.00  0.00    +0.000 N 
ATOM     15  H   UNL     1       2.979   6.241  20.641  0.00  0.00    +0.000 HD
BRANCH  14  16
ATOM     16  C   UNL     1       2.120   7.707  19.538  0.00  0.00    +0.000 A 
ATOM     17  C   UNL     1       2.049   8.442  18.345  0.00  0.00    +0.000 A 
ATOM     18  C   UNL     1       1.209   9.550  18.216  0.00  0.00    +0.000 A 
ATOM     19  C   UNL     1       0.476   9.975  19.313  0.00  0.00    +0.000 A 
ATOM     20  C   UNL     1       0.605   9.336  20.538  0.00  0.00    +0.000 A 
ATOM     21  C   UNL     1       1.433   8.212  20.652  0.00  0.00    +0.000 A 
BRANCH  19  22
ATOM     22  O   UNL     1      -0.385  11.028  19.222  0.00  0.00    +0.000 OA
ATOM     23  H   UNL     1       0.123  11.846  19.345  0.00  0.00    +0.000 HD
ENDBRANCH  19  22
ENDBRANCH  14  16
ENDBRANCH   7  14
BRANCH   1  24
ATOM     24  C   UNL     1       1.242   4.210  20.084  0.00  0.00    +0.000 C 
BRANCH  24  26
ATOM     25  C   UNL     1       1.595   2.476  21.885  0.00  0.00    +0.000 C 
ATOM     26  C   UNL     1       1.784   3.715  21.404  0.00  0.00    +0.000 C 
ENDBRANCH  24  26
ENDBRANCH   1  24
TORSDOF 6
ENDMDL
MODEL 5
REMARK VINA RESULT:      -7.8      2.597      6.393
REMARK  Name = 
REMARK  7 active torsions:
REMARK  status: ('A' for Active; 'I' for Inactive)
REMARK    1  A    between atoms: C_2  and  C_3
REMARK    2  A    between atoms: C_3  and  C_4
REMARK    3  A    between atoms: C_5  and  C_6
REMARK    4  A    between atoms: C_8  and  C_9
REMARK    5  A    between atoms: C_16  and  N_17
REMARK    6  A    between atoms: N_17  and  C_18
REMARK    7  A    between atoms: C_21  and  O_22
REMARK                            x       y       z     vdW  Elec       q    Type
REMARK                         _______ _______ _______ _____ _____    ______ ____
ROOT
ATOM      1  C   UNL     1       2.270   4.384  18.992  0.00  0.00    +0.000 A 
ATOM      2  C   UNL     1       2.580   3.323  18.141  0.00  0.00    +0.000 A 
ATOM      3  C   UNL     1       1.990   1.947  18.249  0.00  0.00    +0.000 C 
ATOM      4  N   UNL     1       3.490   3.426  17.149  0.00  0.00    +0.000 NA
ATOM      5  C   UNL     1       4.130   4.592  17.006  0.00  0.00    +0.000 A 
ATOM      6  N   UNL     1       3.915   5.653  17.789  0.00  0.00    +0.000 NA
ATOM      7  C   UNL     1       3.015   5.551  18.787  0.00  0.00    +0.000 A 
ENDROOT
BRANCH   5   8
ATOM      8  C   UNL     1       5.207   4.665  15.995  0.00  0.00    +0.000 A 
ATOM      9  C   UNL     1       5.059   4.056  14.733  0.00  0.00    +0.000 A 
ATOM     10  C   UNL     1       6.087   4.064  13.786  0.00  0.00    +0.000 A 
ATOM     11  C   UNL     1       7.296   4.687  14.077  0.00  0.00    +0.000 A 
ATOM     12  C   UNL     1       7.471   5.313  15.310  0.00  0.00    +0.000 A 
ATOM     13  C   UNL     1       6.437   5.303  16.254  0.00  0.00    +0.000 A 
ENDBRANCH   5   8
BRANCH   7  14
ATOM     14  N   UNL     1       2.898   6.634  19.697  0.00  0.00    +0.000 N 
ATOM     15  H   UNL     1       2.918   6.301  20.655  0.00  0.00    +0.000 HD
BRANCH  14  16
ATOM     16  C   UNL     1       2.105   7.799  19.560  0.00  0.00    +0.000 A 
ATOM     17  C   UNL     1       1.313   8.302  20.603  0.00  0.00    +0.000 A 
ATOM     18  C   UNL     1       0.569   9.476  20.459  0.00  0.00    +0.000 A 
ATOM     19  C   UNL     1       0.562  10.126  19.235  0.00  0.00    +0.000 A 
ATOM     20  C   UNL     1       1.249   9.597  18.151  0.00  0.00    +0.000 A 
ATOM     21  C   UNL     1       2.009   8.431  18.312  0.00  0.00    +0.000 A 
BRANCH  19  22
ATOM     22  O   UNL     1      -0.117  11.294  19.060  0.00  0.00    +0.000 OA
ATOM     23  H   UNL     1       0.473  12.027  19.300  0.00  0.00    +0.000 HD
ENDBRANCH  19  22
ENDBRANCH  14  16
ENDBRANCH   7  14
BRANCH   1  24
ATOM     24  C   UNL     1       1.225   4.269  20.076  0.00  0.00    +0.000 C 
BRANCH  24  26
ATOM     25  C   UNL     1       1.551   2.474  21.821  0.00  0.00    +0.000 C 
ATOM     26  C   UNL     1       1.769   3.720  21.373  0.00  0.00    +0.000 C 
ENDBRANCH  24  26
ENDBRANCH   1  24
TORSDOF 6
ENDMDL
MODEL 6
REMARK VINA RESULT:      -7.8      2.498      6.261
REMARK  Name = 
REMARK  7 active torsions:
REMARK  status: ('A' for Active; 'I' for Inactive)
REMARK    1  A    between atoms: C_2  and  C_3
REMARK    2  A    between atoms: C_3  and  C_4
REMARK    3  A    between atoms: C_5  and  C_6
REMARK    4  A    between atoms: C_8  and  C_9
REMARK    5  A    between atoms: C_16  and  N_17
REMARK    6  A    between atoms: N_17  and  C_18
REMARK    7  A    between atoms: C_21  and  O_22
REMARK                            x       y       z     vdW  Elec       q    Type
REMARK                         _______ _______ _______ _____ _____    ______ ____
ROOT
ATOM      1  C   UNL     1       2.262   4.268  19.019  0.00  0.00    +0.000 A 
ATOM      2  C   UNL     1       2.606   3.184  18.211  0.00  0.00    +0.000 A 
ATOM      3  C   UNL     1       2.042   1.801  18.360  0.00  0.00    +0.000 C 
ATOM      4  N   UNL     1       3.528   3.271  17.229  0.00  0.00    +0.000 NA
ATOM      5  C   UNL     1       4.146   4.444  17.053  0.00  0.00    +0.000 A 
ATOM      6  N   UNL     1       3.898   5.528  17.794  0.00  0.00    +0.000 NA
ATOM      7  C   UNL     1       2.985   5.442  18.783  0.00  0.00    +0.000 A 
ENDROOT
BRANCH   5   8
ATOM      8  C   UNL     1       5.236   4.504  16.055  0.00  0.00    +0.000 A 
ATOM      9  C   UNL     1       6.441   5.176  16.338  0.00  0.00    +0.000 A 
ATOM     10  C   UNL     1       7.460   5.294  15.388  0.00  0.00    +0.000 A 
ATOM     11  C   UNL     1       7.300   4.735  14.124  0.00  0.00    +0.000 A 
ATOM     12  C   UNL     1       6.127   4.050  13.816  0.00  0.00    +0.000 A 
ATOM     13  C   UNL     1       5.110   3.934  14.772  0.00  0.00    +0.000 A 
ENDBRANCH   5   8
BRANCH   7  14
ATOM     14  N   UNL     1       2.833   6.554  19.652  0.00  0.00    +0.000 N 
ATOM     15  H   UNL     1       2.689   6.246  20.606  0.00  0.00    +0.000 HD
BRANCH  14  16
ATOM     16  C   UNL     1       2.167   7.776  19.386  0.00  0.00    +0.000 A 
ATOM     17  C   UNL     1       1.381   8.433  20.345  0.00  0.00    +0.000 A 
ATOM     18  C   UNL     1       0.767   9.658  20.075  0.00  0.00    +0.000 A 
ATOM     19  C   UNL     1       0.883  10.208  18.808  0.00  0.00    +0.000 A 
ATOM     20  C   UNL     1       1.565   9.533  17.805  0.00  0.00    +0.000 A 
ATOM     21  C   UNL     1       2.195   8.315  18.092  0.00  0.00    +0.000 A 
BRANCH  19  22
ATOM     22  O   UNL     1       0.334  11.419  18.511  0.00  0.00    +0.000 OA
ATOM     23  H   UNL     1       1.054  12.034  18.292  0.00  0.00    +0.000 HD
ENDBRANCH  19  22
ENDBRANCH  14  16
ENDBRANCH   7  14
BRANCH   1  24
ATOM     24  C   UNL     1       1.204   4.170  20.092  0.00  0.00    +0.000 C 
BRANCH  24  26
ATOM     25  C   UNL     1       1.742   2.468  21.877  0.00  0.00    +0.000 C 
ATOM     26  C   UNL     1       1.750   3.734  21.430  0.00  0.00    +0.000 C 
ENDBRANCH  24  26
ENDBRANCH   1  24
TORSDOF 6
ENDMDL
MODEL 7
REMARK VINA RESULT:      -7.4      2.859      5.016
REMARK  Name = 
REMARK  7 active torsions:
REMARK  status: ('A' for Active; 'I' for Inactive)
REMARK    1  A    between atoms: C_2  and  C_3
REMARK    2  A    between atoms: C_3  and  C_4
REMARK    3  A    between atoms: C_5  and  C_6
REMARK    4  A    between atoms: C_8  and  C_9
REMARK    5  A    between atoms: C_16  and  N_17
REMARK    6  A    between atoms: N_17  and  C_18
REMARK    7  A    between atoms: C_21  and  O_22
REMARK                            x       y       z     vdW  Elec       q    Type
REMARK                         _______ _______ _______ _____ _____    ______ ____
ROOT
ATOM      1  C   UNL     1       6.470   6.046  17.637  0.00  0.00    +0.000 A 
ATOM      2  C   UNL     1       6.308   5.584  18.944  0.00  0.00    +0.000 A 
ATOM      3  C   UNL     1       7.376   5.630  19.999  0.00  0.00    +0.000 C 
ATOM      4  N   UNL     1       5.169   5.003  19.376  0.00  0.00    +0.000 NA
ATOM      5  C   UNL     1       4.173   4.848  18.497  0.00  0.00    +0.000 A 
ATOM      6  N   UNL     1       4.248   5.237  17.221  0.00  0.00    +0.000 NA
ATOM      7  C   UNL     1       5.388   5.809  16.783  0.00  0.00    +0.000 A 
ENDROOT
BRANCH   5   8
ATOM      8  C   UNL     1       2.973   4.108  18.942  0.00  0.00    +0.000 A 
ATOM      9  C   UNL     1       2.525   2.968  18.245  0.00  0.00    +0.000 A 
ATOM     10  C   UNL     1       1.360   2.290  18.614  0.00  0.00    +0.000 A 
ATOM     11  C   UNL     1       0.611   2.734  19.699  0.00  0.00    +0.000 A 
ATOM     12  C   UNL     1       1.034   3.848  20.420  0.00  0.00    +0.000 A 
ATOM     13  C   UNL     1       2.202   4.523  20.046  0.00  0.00    +0.000 A 
ENDBRANCH   5   8
BRANCH   7  14
ATOM     14  N   UNL     1       5.507   6.088  15.396  0.00  0.00    +0.000 N 
ATOM     15  H   UNL     1       4.758   6.697  15.088  0.00  0.00    +0.000 HD
BRANCH  14  16
ATOM     16  C   UNL     1       5.930   5.210  14.369  0.00  0.00    +0.000 A 
ATOM     17  C   UNL     1       7.184   5.320  13.749  0.00  0.00    +0.000 A 
ATOM     18  C   UNL     1       7.597   4.418  12.765  0.00  0.00    +0.000 A 
ATOM     19  C   UNL     1       6.723   3.428  12.346  0.00  0.00    +0.000 A 
ATOM     20  C   UNL     1       5.437   3.357  12.862  0.00  0.00    +0.000 A 
ATOM     21  C   UNL     1       5.039   4.252  13.863  0.00  0.00    +0.000 A 
BRANCH  19  22
ATOM     22  O   UNL     1       7.097   2.503  11.417  0.00  0.00    +0.000 OA
ATOM     23  H   UNL     1       6.929   2.874  10.535  0.00  0.00    +0.000 HD
ENDBRANCH  19  22
ENDBRANCH  14  16
ENDBRANCH   7  14
BRANCH   1  24
ATOM     24  C   UNL     1       7.736   6.726  17.174  0.00  0.00    +0.000 C 
BRANCH  24  26
ATOM     25  C   UNL     1       8.495   8.854  18.301  0.00  0.00    +0.000 C 
ATOM     26  C   UNL     1       7.727   8.219  17.401  0.00  0.00    +0.000 C 
ENDBRANCH  24  26
ENDBRANCH   1  24
TORSDOF 6
ENDMDL
MODEL 8
REMARK VINA RESULT:      -7.3      2.969      4.991
REMARK  Name = 
REMARK  7 active torsions:
REMARK  status: ('A' for Active; 'I' for Inactive)
REMARK    1  A    between atoms: C_2  and  C_3
REMARK    2  A    between atoms: C_3  and  C_4
REMARK    3  A    between atoms: C_5  and  C_6
REMARK    4  A    between atoms: C_8  and  C_9
REMARK    5  A    between atoms: C_16  and  N_17
REMARK    6  A    between atoms: N_17  and  C_18
REMARK    7  A    between atoms: C_21  and  O_22
REMARK                            x       y       z     vdW  Elec       q    Type
REMARK                         _______ _______ _______ _____ _____    ______ ____
ROOT
ATOM      1  C   UNL     1       6.450   6.063  17.683  0.00  0.00    +0.000 A 
ATOM      2  C   UNL     1       6.289   5.599  18.989  0.00  0.00    +0.000 A 
ATOM      3  C   UNL     1       7.365   5.617  20.035  0.00  0.00    +0.000 C 
ATOM      4  N   UNL     1       5.141   5.040  19.427  0.00  0.00    +0.000 NA
ATOM      5  C   UNL     1       4.135   4.910  18.555  0.00  0.00    +0.000 A 
ATOM      6  N   UNL     1       4.208   5.304  17.280  0.00  0.00    +0.000 NA
ATOM      7  C   UNL     1       5.356   5.853  16.836  0.00  0.00    +0.000 A 
ENDROOT
BRANCH   5   8
ATOM      8  C   UNL     1       2.923   4.193  19.006  0.00  0.00    +0.000 A 
ATOM      9  C   UNL     1       2.504   4.252  20.350  0.00  0.00    +0.000 A 
ATOM     10  C   UNL     1       1.395   3.535  20.808  0.00  0.00    +0.000 A 
ATOM     11  C   UNL     1       0.670   2.739  19.928  0.00  0.00    +0.000 A 
ATOM     12  C   UNL     1       1.046   2.671  18.588  0.00  0.00    +0.000 A 
ATOM     13  C   UNL     1       2.157   3.392  18.135  0.00  0.00    +0.000 A 
ENDBRANCH   5   8
BRANCH   7  14
ATOM     14  N   UNL     1       5.471   6.137  15.450  0.00  0.00    +0.000 N 
ATOM     15  H   UNL     1       4.722   6.749  15.146  0.00  0.00    +0.000 HD
BRANCH  14  16
ATOM     16  C   UNL     1       5.887   5.260  14.418  0.00  0.00    +0.000 A 
ATOM     17  C   UNL     1       5.091   4.202  13.957  0.00  0.00    +0.000 A 
ATOM     18  C   UNL     1       5.504   3.375  12.910  0.00  0.00    +0.000 A 
ATOM     19  C   UNL     1       6.760   3.563  12.355  0.00  0.00    +0.000 A 
ATOM     20  C   UNL     1       7.616   4.532  12.859  0.00  0.00    +0.000 A 
ATOM     21  C   UNL     1       7.184   5.371  13.894  0.00  0.00    +0.000 A 
BRANCH  19  22
ATOM     22  O   UNL     1       7.189   2.805  11.307  0.00  0.00    +0.000 OA
ATOM     23  H   UNL     1       7.670   2.040  11.663  0.00  0.00    +0.000 HD
ENDBRANCH  19  22
ENDBRANCH  14  16
ENDBRANCH   7  14
BRANCH   1  24
ATOM     24  C   UNL     1       7.726   6.719  17.213  0.00  0.00    +0.000 C 
BRANCH  24  26
ATOM     25  C   UNL     1       8.463   8.863  18.324  0.00  0.00    +0.000 C 
ATOM     26  C   UNL     1       7.731   8.217  17.402  0.00  0.00    +0.000 C 
ENDBRANCH  24  26
ENDBRANCH   1  24
TORSDOF 6
ENDMDL
MODEL 9
REMARK VINA RESULT:      -7.2      2.338      6.138
REMARK  Name = 
REMARK  7 active torsions:
REMARK  status: ('A' for Active; 'I' for Inactive)
REMARK    1  A    between atoms: C_2  and  C_3
REMARK    2  A    between atoms: C_3  and  C_4
REMARK    3  A    between atoms: C_5  and  C_6
REMARK    4  A    between atoms: C_8  and  C_9
REMARK    5  A    between atoms: C_16  and  N_17
REMARK    6  A    between atoms: N_17  and  C_18
REMARK    7  A    between atoms: C_21  and  O_22
REMARK                            x       y       z     vdW  Elec       q    Type
REMARK                         _______ _______ _______ _____ _____    ______ ____
ROOT
ATOM      1  C   UNL     1       3.299   3.811  19.352  0.00  0.00    +0.000 A 
ATOM      2  C   UNL     1       3.746   2.741  18.576  0.00  0.00    +0.000 A 
ATOM      3  C   UNL     1       3.560   1.295  18.935  0.00  0.00    +0.000 C 
ATOM      4  N   UNL     1       4.439   2.911  17.430  0.00  0.00    +0.000 NA
ATOM      5  C   UNL     1       4.723   4.162  17.050  0.00  0.00    +0.000 A 
ATOM      6  N   UNL     1       4.356   5.244  17.741  0.00  0.00    +0.000 NA
ATOM      7  C   UNL     1       3.672   5.078  18.892  0.00  0.00    +0.000 A 
ENDROOT
BRANCH   5   8
ATOM      8  C   UNL     1       5.580   4.340  15.858  0.00  0.00    +0.000 A 
ATOM      9  C   UNL     1       6.739   5.140  15.913  0.00  0.00    +0.000 A 
ATOM     10  C   UNL     1       7.530   5.369  14.784  0.00  0.00    +0.000 A 
ATOM     11  C   UNL     1       7.183   4.796  13.564  0.00  0.00    +0.000 A 
ATOM     12  C   UNL     1       6.053   3.987  13.479  0.00  0.00    +0.000 A 
ATOM     13  C   UNL     1       5.264   3.760  14.613  0.00  0.00    +0.000 A 
ENDBRANCH   5   8
BRANCH   7  14
ATOM     14  N   UNL     1       3.412   6.225  19.688  0.00  0.00    +0.000 N 
ATOM     15  H   UNL     1       3.328   5.970  20.666  0.00  0.00    +0.000 HD
BRANCH  14  16
ATOM     16  C   UNL     1       2.603   7.340  19.362  0.00  0.00    +0.000 A 
ATOM     17  C   UNL     1       1.750   7.953  20.291  0.00  0.00    +0.000 A 
ATOM     18  C   UNL     1       0.991   9.078  19.959  0.00  0.00    +0.000 A 
ATOM     19  C   UNL     1       1.033   9.564  18.662  0.00  0.00    +0.000 A 
ATOM     20  C   UNL     1       1.785   8.917  17.690  0.00  0.00    +0.000 A 
ATOM     21  C   UNL     1       2.559   7.803  18.038  0.00  0.00    +0.000 A 
BRANCH  19  22
ATOM     22  O   UNL     1       0.340  10.681  18.303  0.00  0.00    +0.000 OA
ATOM     23  H   UNL     1      -0.554  10.410  18.034  0.00  0.00    +0.000 HD
ENDBRANCH  19  22
ENDBRANCH  14  16
ENDBRANCH   7  14
BRANCH   1  24
ATOM     24  C   UNL     1       2.493   3.610  20.613  0.00  0.00    +0.000 C 
BRANCH  24  26
ATOM     25  C   UNL     1       0.354   3.015  19.412  0.00  0.00    +0.000 C 
ATOM     26  C   UNL     1       1.002   3.675  20.385  0.00  0.00    +0.000 C 
ENDBRANCH  24  26
ENDBRANCH   1  24
TORSDOF 6
ENDMDL
