MODEL 1
REMARK VINA RESULT:      -9.8      0.000      0.000
REMARK  Name = 
REMARK  7 active torsions:
REMARK  status: ('A' for Active; 'I' for Inactive)
REMARK    1  A    between atoms: C_4  and  C_5
REMARK    2  A    between atoms: C_5  and  O_6
REMARK    3  A    between atoms: O_6  and  C_7
REMARK    4  A    between atoms: C_10  and  N_11
REMARK    5  A    between atoms: C_13  and  C_14
REMARK    6  A    between atoms: C_17  and  C_18
REMARK    7  A    between atoms: N_27  and  C_28
REMARK                            x       y       z     vdW  Elec       q    Type
REMARK                         _______ _______ _______ _____ _____    ______ ____
ROOT
ATOM      1  N   UNL     1       2.490   6.892  19.793  0.00  0.00    +0.000 N 
ATOM      2  N   UNL     1       2.194   8.168  20.200  0.00  0.00    +0.000 NA
ATOM      3  C   UNL     1       1.052   7.982  20.838  0.00  0.00    +0.000 A 
ATOM      4  N   UNL     1       0.608   6.736  20.925  0.00  0.00    +0.000 NA
ATOM      5  N   UNL     1       1.610   6.049  20.282  0.00  0.00    +0.000 N 
ENDROOT
BRANCH   1   9
ATOM      6  C   UNL     1       5.593   6.356  16.989  0.00  0.00    +0.000 A 
ATOM      7  C   UNL     1       4.491   7.155  16.678  0.00  0.00    +0.000 A 
ATOM      8  C   UNL     1       3.466   7.320  17.605  0.00  0.00    +0.000 A 
ATOM      9  C   UNL     1       3.558   6.667  18.832  0.00  0.00    +0.000 A 
ATOM     10  C   UNL     1       4.606   5.803  19.129  0.00  0.00    +0.000 A 
ATOM     11  C   UNL     1       5.635   5.658  18.200  0.00  0.00    +0.000 A 
BRANCH   6  12
ATOM     12  O   UNL     1       6.678   6.179  16.180  0.00  0.00    +0.000 OA
BRANCH  12  13
ATOM     13  C   UNL     1       7.044   4.819  15.936  0.00  0.00    +0.000 C 
BRANCH  13  17
ATOM     14  C   UNL     1       6.479   3.968  11.758  0.00  0.00    +0.000 A 
ATOM     15  C   UNL     1       5.619   3.411  12.703  0.00  0.00    +0.000 A 
ATOM     16  C   UNL     1       5.800   3.687  14.056  0.00  0.00    +0.000 A 
ATOM     17  C   UNL     1       6.844   4.524  14.477  0.00  0.00    +0.000 A 
ATOM     18  C   UNL     1       7.704   5.076  13.518  0.00  0.00    +0.000 A 
ATOM     19  C   UNL     1       7.521   4.800  12.164  0.00  0.00    +0.000 A 
ENDBRANCH  13  17
ENDBRANCH  12  13
ENDBRANCH   6  12
ENDBRANCH   1   9
BRANCH   3  20
ATOM     20  C   UNL     1       0.318   9.112  21.412  0.00  0.00    +0.000 A 
ATOM     21  C   UNL     1      -0.013  10.229  20.630  0.00  0.00    +0.000 A 
ATOM     22  C   UNL     1      -0.711  11.310  21.182  0.00  0.00    +0.000 A 
ATOM     23  C   UNL     1      -1.118  11.315  22.526  0.00  0.00    +0.000 A 
ATOM     24  C   UNL     1      -0.784  10.188  23.297  0.00  0.00    +0.000 A 
ATOM     25  C   UNL     1      -0.074   9.109  22.756  0.00  0.00    +0.000 A 
BRANCH  23  26
ATOM     26  C   UNL     1      -1.860  12.459  23.102  0.00  0.00    +0.000 A 
ATOM     27  C   UNL     1      -1.245  13.710  23.294  0.00  0.00    +0.000 A 
ATOM     28  C   UNL     1      -1.937  14.786  23.860  0.00  0.00    +0.000 A 
ATOM     29  C   UNL     1      -3.269  14.641  24.228  0.00  0.00    +0.000 A 
ATOM     30  C   UNL     1      -3.908  13.421  24.037  0.00  0.00    +0.000 A 
ATOM     31  C   UNL     1      -3.209  12.341  23.487  0.00  0.00    +0.000 A 
ENDBRANCH  23  26
ENDBRANCH   3  20
BRANCH   5  32
ATOM     32  C   UNL     1       1.671   4.591  20.331  0.00  0.00    +0.000 A 
ATOM     33  C   UNL     1       1.253   3.876  19.209  0.00  0.00    +0.000 A 
ATOM     34  C   UNL     1       1.356   2.485  19.223  0.00  0.00    +0.000 A 
ATOM     35  C   UNL     1       1.860   1.830  20.349  0.00  0.00    +0.000 A 
ATOM     36  C   UNL     1       2.233   2.555  21.481  0.00  0.00    +0.000 A 
ATOM     37  C   UNL     1       2.116   3.944  21.483  0.00  0.00    +0.000 A 
ENDBRANCH   5  32
TORSDOF 7
ENDMDL
MODEL 2
REMARK VINA RESULT:      -9.8      0.066      1.120
REMARK  Name = 
REMARK  7 active torsions:
REMARK  status: ('A' for Active; 'I' for Inactive)
REMARK    1  A    between atoms: C_4  and  C_5
REMARK    2  A    between atoms: C_5  and  O_6
REMARK    3  A    between atoms: O_6  and  C_7
REMARK    4  A    between atoms: C_10  and  N_11
REMARK    5  A    between atoms: C_13  and  C_14
REMARK    6  A    between atoms: C_17  and  C_18
REMARK    7  A    between atoms: N_27  and  C_28
REMARK                            x       y       z     vdW  Elec       q    Type
REMARK                         _______ _______ _______ _____ _____    ______ ____
ROOT
ATOM      1  N   UNL     1       2.507   6.872  19.790  0.00  0.00    +0.000 N 
ATOM      2  N   UNL     1       2.212   8.146  20.200  0.00  0.00    +0.000 NA
ATOM      3  C   UNL     1       1.064   7.961  20.828  0.00  0.00    +0.000 A 
ATOM      4  N   UNL     1       0.615   6.717  20.906  0.00  0.00    +0.000 NA
ATOM      5  N   UNL     1       1.620   6.029  20.267  0.00  0.00    +0.000 N 
ENDROOT
BRANCH   1   9
ATOM      6  C   UNL     1       5.630   6.338  17.008  0.00  0.00    +0.000 A 
ATOM      7  C   UNL     1       4.518   7.118  16.681  0.00  0.00    +0.000 A 
ATOM      8  C   UNL     1       3.488   7.282  17.601  0.00  0.00    +0.000 A 
ATOM      9  C   UNL     1       3.582   6.648  18.837  0.00  0.00    +0.000 A 
ATOM     10  C   UNL     1       4.641   5.801  19.150  0.00  0.00    +0.000 A 
ATOM     11  C   UNL     1       5.676   5.657  18.228  0.00  0.00    +0.000 A 
BRANCH   6  12
ATOM     12  O   UNL     1       6.721   6.164  16.206  0.00  0.00    +0.000 OA
BRANCH  12  13
ATOM     13  C   UNL     1       7.082   4.805  15.950  0.00  0.00    +0.000 C 
BRANCH  13  17
ATOM     14  C   UNL     1       6.595   4.029  11.748  0.00  0.00    +0.000 A 
ATOM     15  C   UNL     1       7.583   4.912  12.182  0.00  0.00    +0.000 A 
ATOM     16  C   UNL     1       7.743   5.163  13.543  0.00  0.00    +0.000 A 
ATOM     17  C   UNL     1       6.915   4.532  14.483  0.00  0.00    +0.000 A 
ATOM     18  C   UNL     1       5.923   3.649  14.035  0.00  0.00    +0.000 A 
ATOM     19  C   UNL     1       5.766   3.397  12.673  0.00  0.00    +0.000 A 
ENDBRANCH  13  17
ENDBRANCH  12  13
ENDBRANCH   6  12
ENDBRANCH   1   9
BRANCH   3  20
ATOM     20  C   UNL     1       0.329   9.091  21.401  0.00  0.00    +0.000 A 
ATOM     21  C   UNL     1       0.015   9.128  22.768  0.00  0.00    +0.000 A 
ATOM     22  C   UNL     1      -0.691  10.207  23.314  0.00  0.00    +0.000 A 
ATOM     23  C   UNL     1      -1.098  11.295  22.524  0.00  0.00    +0.000 A 
ATOM     24  C   UNL     1      -0.773  11.248  21.158  0.00  0.00    +0.000 A 
ATOM     25  C   UNL     1      -0.079  10.165  20.602  0.00  0.00    +0.000 A 
BRANCH  23  26
ATOM     26  C   UNL     1      -1.839  12.436  23.108  0.00  0.00    +0.000 A 
ATOM     27  C   UNL     1      -1.223  13.685  23.310  0.00  0.00    +0.000 A 
ATOM     28  C   UNL     1      -1.914  14.757  23.884  0.00  0.00    +0.000 A 
ATOM     29  C   UNL     1      -3.247  14.611  24.248  0.00  0.00    +0.000 A 
ATOM     30  C   UNL     1      -3.887  13.393  24.047  0.00  0.00    +0.000 A 
ATOM     31  C   UNL     1      -3.189  12.317  23.489  0.00  0.00    +0.000 A 
ENDBRANCH  23  26
ENDBRANCH   3  20
BRANCH   5  32
ATOM     32  C   UNL     1       1.676   4.570  20.310  0.00  0.00    +0.000 A 
ATOM     33  C   UNL     1       1.259   3.862  19.184  0.00  0.00    +0.000 A 
ATOM     34  C   UNL     1       1.358   2.471  19.191  0.00  0.00    +0.000 A 
ATOM     35  C   UNL     1       1.856   1.809  20.316  0.00  0.00    +0.000 A 
ATOM     36  C   UNL     1       2.226   2.527  21.453  0.00  0.00    +0.000 A 
ATOM     37  C   UNL     1       2.114   3.916  21.461  0.00  0.00    +0.000 A 
ENDBRANCH   5  32
TORSDOF 7
ENDMDL
MODEL 3
REMARK VINA RESULT:      -9.7      0.067      1.374
REMARK  Name = 
REMARK  7 active torsions:
REMARK  status: ('A' for Active; 'I' for Inactive)
REMARK    1  A    between atoms: C_4  and  C_5
REMARK    2  A    between atoms: C_5  and  O_6
REMARK    3  A    between atoms: O_6  and  C_7
REMARK    4  A    between atoms: C_10  and  N_11
REMARK    5  A    between atoms: C_13  and  C_14
REMARK    6  A    between atoms: C_17  and  C_18
REMARK    7  A    between atoms: N_27  and  C_28
REMARK                            x       y       z     vdW  Elec       q    Type
REMARK                         _______ _______ _______ _____ _____    ______ ____
ROOT
ATOM      1  N   UNL     1       2.496   6.921  19.754  0.00  0.00    +0.000 N 
ATOM      2  N   UNL     1       2.202   8.193  20.171  0.00  0.00    +0.000 NA
ATOM      3  C   UNL     1       1.062   8.002  20.812  0.00  0.00    +0.000 A 
ATOM      4  N   UNL     1       0.619   6.756  20.893  0.00  0.00    +0.000 NA
ATOM      5  N   UNL     1       1.618   6.074  20.240  0.00  0.00    +0.000 N 
ENDROOT
BRANCH   1   9
ATOM      6  C   UNL     1       5.591   6.406  16.936  0.00  0.00    +0.000 A 
ATOM      7  C   UNL     1       4.503   7.235  16.648  0.00  0.00    +0.000 A 
ATOM      8  C   UNL     1       3.481   7.392  17.579  0.00  0.00    +0.000 A 
ATOM      9  C   UNL     1       3.560   6.704  18.787  0.00  0.00    +0.000 A 
ATOM     10  C   UNL     1       4.592   5.811  19.059  0.00  0.00    +0.000 A 
ATOM     11  C   UNL     1       5.619   5.674  18.126  0.00  0.00    +0.000 A 
BRANCH   6  12
ATOM     12  O   UNL     1       6.672   6.233  16.122  0.00  0.00    +0.000 OA
BRANCH  12  13
ATOM     13  C   UNL     1       7.064   4.875  15.908  0.00  0.00    +0.000 C 
BRANCH  13  17
ATOM     14  C   UNL     1       6.464   3.903  11.761  0.00  0.00    +0.000 A 
ATOM     15  C   UNL     1       5.616   3.370  12.730  0.00  0.00    +0.000 A 
ATOM     16  C   UNL     1       5.808   3.685  14.073  0.00  0.00    +0.000 A 
ATOM     17  C   UNL     1       6.852   4.537  14.460  0.00  0.00    +0.000 A 
ATOM     18  C   UNL     1       7.701   5.066  13.478  0.00  0.00    +0.000 A 
ATOM     19  C   UNL     1       7.505   4.751  12.133  0.00  0.00    +0.000 A 
ENDBRANCH  13  17
ENDBRANCH  12  13
ENDBRANCH   6  12
ENDBRANCH   1   9
BRANCH   3  20
ATOM     20  C   UNL     1       0.330   9.128  21.398  0.00  0.00    +0.000 A 
ATOM     21  C   UNL     1      -0.128   9.079  22.723  0.00  0.00    +0.000 A 
ATOM     22  C   UNL     1      -0.831  10.155  23.280  0.00  0.00    +0.000 A 
ATOM     23  C   UNL     1      -1.091  11.324  22.544  0.00  0.00    +0.000 A 
ATOM     24  C   UNL     1      -0.622  11.361  21.221  0.00  0.00    +0.000 A 
ATOM     25  C   UNL     1       0.069  10.284  20.653  0.00  0.00    +0.000 A 
BRANCH  23  26
ATOM     26  C   UNL     1      -1.830  12.460  23.141  0.00  0.00    +0.000 A 
ATOM     27  C   UNL     1      -3.174  12.332  23.540  0.00  0.00    +0.000 A 
ATOM     28  C   UNL     1      -3.882  13.410  24.081  0.00  0.00    +0.000 A 
ATOM     29  C   UNL     1      -3.254  14.637  24.256  0.00  0.00    +0.000 A 
ATOM     30  C   UNL     1      -1.923  14.790  23.884  0.00  0.00    +0.000 A 
ATOM     31  C   UNL     1      -1.222  13.715  23.327  0.00  0.00    +0.000 A 
ENDBRANCH  23  26
ENDBRANCH   3  20
BRANCH   5  32
ATOM     32  C   UNL     1       1.681   4.615  20.278  0.00  0.00    +0.000 A 
ATOM     33  C   UNL     1       2.133   4.006  21.447  0.00  0.00    +0.000 A 
ATOM     34  C   UNL     1       2.147   2.613  21.516  0.00  0.00    +0.000 A 
ATOM     35  C   UNL     1       1.723   1.852  20.423  0.00  0.00    +0.000 A 
ATOM     36  C   UNL     1       1.316   2.475  19.244  0.00  0.00    +0.000 A 
ATOM     37  C   UNL     1       1.316   3.866  19.160  0.00  0.00    +0.000 A 
ENDBRANCH   5  32
TORSDOF 7
ENDMDL
MODEL 4
REMARK VINA RESULT:      -9.6      0.240      1.141
REMARK  Name = 
REMARK  7 active torsions:
REMARK  status: ('A' for Active; 'I' for Inactive)
REMARK    1  A    between atoms: C_4  and  C_5
REMARK    2  A    between atoms: C_5  and  O_6
REMARK    3  A    between atoms: O_6  and  C_7
REMARK    4  A    between atoms: C_10  and  N_11
REMARK    5  A    between atoms: C_13  and  C_14
REMARK    6  A    between atoms: C_17  and  C_18
REMARK    7  A    between atoms: N_27  and  C_28
REMARK                            x       y       z     vdW  Elec       q    Type
REMARK                         _______ _______ _______ _____ _____    ______ ____
ROOT
ATOM      1  N   UNL     1       2.504   6.956  19.714  0.00  0.00    +0.000 N 
ATOM      2  N   UNL     1       2.194   8.228  20.121  0.00  0.00    +0.000 NA
ATOM      3  C   UNL     1       1.085   8.020  20.809  0.00  0.00    +0.000 A 
ATOM      4  N   UNL     1       0.677   6.765  20.927  0.00  0.00    +0.000 NA
ATOM      5  N   UNL     1       1.667   6.096  20.248  0.00  0.00    +0.000 N 
ENDROOT
BRANCH   1   9
ATOM      6  C   UNL     1       5.509   6.468  16.796  0.00  0.00    +0.000 A 
ATOM      7  C   UNL     1       4.455   7.360  16.583  0.00  0.00    +0.000 A 
ATOM      8  C   UNL     1       3.462   7.508  17.547  0.00  0.00    +0.000 A 
ATOM      9  C   UNL     1       3.535   6.748  18.710  0.00  0.00    +0.000 A 
ATOM     10  C   UNL     1       4.530   5.795  18.905  0.00  0.00    +0.000 A 
ATOM     11  C   UNL     1       5.529   5.666  17.942  0.00  0.00    +0.000 A 
BRANCH   6  12
ATOM     12  O   UNL     1       6.563   6.293  15.948  0.00  0.00    +0.000 OA
BRANCH  12  13
ATOM     13  C   UNL     1       7.003   4.942  15.788  0.00  0.00    +0.000 C 
BRANCH  13  17
ATOM     14  C   UNL     1       6.003   3.640  11.813  0.00  0.00    +0.000 A 
ATOM     15  C   UNL     1       7.226   4.265  12.053  0.00  0.00    +0.000 A 
ATOM     16  C   UNL     1       7.551   4.685  13.340  0.00  0.00    +0.000 A 
ATOM     17  C   UNL     1       6.655   4.485  14.400  0.00  0.00    +0.000 A 
ATOM     18  C   UNL     1       5.428   3.859  14.148  0.00  0.00    +0.000 A 
ATOM     19  C   UNL     1       5.104   3.437  12.858  0.00  0.00    +0.000 A 
ENDBRANCH  13  17
ENDBRANCH  12  13
ENDBRANCH   6  12
ENDBRANCH   1   9
BRANCH   3  20
ATOM     20  C   UNL     1       0.347   9.138  21.403  0.00  0.00    +0.000 A 
ATOM     21  C   UNL     1       0.077  10.298  20.663  0.00  0.00    +0.000 A 
ATOM     22  C   UNL     1      -0.624  11.368  21.234  0.00  0.00    +0.000 A 
ATOM     23  C   UNL     1      -1.095  11.316  22.557  0.00  0.00    +0.000 A 
ATOM     24  C   UNL     1      -0.823  10.146  23.285  0.00  0.00    +0.000 A 
ATOM     25  C   UNL     1      -0.110   9.078  22.725  0.00  0.00    +0.000 A 
BRANCH  23  26
ATOM     26  C   UNL     1      -1.841  12.448  23.153  0.00  0.00    +0.000 A 
ATOM     27  C   UNL     1      -1.249  13.715  23.308  0.00  0.00    +0.000 A 
ATOM     28  C   UNL     1      -1.943  14.780  23.892  0.00  0.00    +0.000 A 
ATOM     29  C   UNL     1      -3.255  14.606  24.316  0.00  0.00    +0.000 A 
ATOM     30  C   UNL     1      -3.871  13.369  24.163  0.00  0.00    +0.000 A 
ATOM     31  C   UNL     1      -3.170  12.301  23.594  0.00  0.00    +0.000 A 
ENDBRANCH  23  26
ENDBRANCH   3  20
BRANCH   5  32
ATOM     32  C   UNL     1       1.768   4.641  20.309  0.00  0.00    +0.000 A 
ATOM     33  C   UNL     1       2.278   4.063  21.470  0.00  0.00    +0.000 A 
ATOM     34  C   UNL     1       2.330   2.672  21.562  0.00  0.00    +0.000 A 
ATOM     35  C   UNL     1       1.886   1.882  20.498  0.00  0.00    +0.000 A 
ATOM     36  C   UNL     1       1.420   2.474  19.324  0.00  0.00    +0.000 A 
ATOM     37  C   UNL     1       1.381   3.863  19.217  0.00  0.00    +0.000 A 
ENDBRANCH   5  32
TORSDOF 7
ENDMDL
MODEL 5
REMARK VINA RESULT:      -9.5      0.269      1.388
REMARK  Name = 
REMARK  7 active torsions:
REMARK  status: ('A' for Active; 'I' for Inactive)
REMARK    1  A    between atoms: C_4  and  C_5
REMARK    2  A    between atoms: C_5  and  O_6
REMARK    3  A    between atoms: O_6  and  C_7
REMARK    4  A    between atoms: C_10  and  N_11
REMARK    5  A    between atoms: C_13  and  C_14
REMARK    6  A    between atoms: C_17  and  C_18
REMARK    7  A    between atoms: N_27  and  C_28
REMARK                            x       y       z     vdW  Elec       q    Type
REMARK                         _______ _______ _______ _____ _____    ______ ____
ROOT
ATOM      1  N   UNL     1       2.488   6.897  19.852  0.00  0.00    +0.000 N 
ATOM      2  N   UNL     1       2.201   8.174  20.261  0.00  0.00    +0.000 NA
ATOM      3  C   UNL     1       1.042   8.000  20.871  0.00  0.00    +0.000 A 
ATOM      4  N   UNL     1       0.577   6.761  20.938  0.00  0.00    +0.000 NA
ATOM      5  N   UNL     1       1.584   6.064  20.314  0.00  0.00    +0.000 N 
ENDROOT
BRANCH   1   9
ATOM      6  C   UNL     1       5.632   6.104  17.157  0.00  0.00    +0.000 A 
ATOM      7  C   UNL     1       5.660   5.575  18.450  0.00  0.00    +0.000 A 
ATOM      8  C   UNL     1       4.623   5.850  19.337  0.00  0.00    +0.000 A 
ATOM      9  C   UNL     1       3.575   6.663  18.915  0.00  0.00    +0.000 A 
ATOM     10  C   UNL     1       3.570   7.266  17.661  0.00  0.00    +0.000 A 
ATOM     11  C   UNL     1       4.604   6.971  16.775  0.00  0.00    +0.000 A 
BRANCH   6  12
ATOM     12  O   UNL     1       6.562   5.847  16.193  0.00  0.00    +0.000 OA
BRANCH  12  13
ATOM     13  C   UNL     1       6.675   4.476  15.802  0.00  0.00    +0.000 C 
BRANCH  13  17
ATOM     14  C   UNL     1       7.059   4.301  11.521  0.00  0.00    +0.000 A 
ATOM     15  C   UNL     1       7.785   5.244  12.246  0.00  0.00    +0.000 A 
ATOM     16  C   UNL     1       7.663   5.301  13.632  0.00  0.00    +0.000 A 
ATOM     17  C   UNL     1       6.812   4.414  14.307  0.00  0.00    +0.000 A 
ATOM     18  C   UNL     1       6.085   3.471  13.568  0.00  0.00    +0.000 A 
ATOM     19  C   UNL     1       6.210   3.414  12.181  0.00  0.00    +0.000 A 
ENDBRANCH  13  17
ENDBRANCH  12  13
ENDBRANCH   6  12
ENDBRANCH   1   9
BRANCH   3  20
ATOM     20  C   UNL     1       0.311   9.137  21.436  0.00  0.00    +0.000 A 
ATOM     21  C   UNL     1       0.048  10.280  20.666  0.00  0.00    +0.000 A 
ATOM     22  C   UNL     1      -0.647  11.368  21.209  0.00  0.00    +0.000 A 
ATOM     23  C   UNL     1      -1.119  11.353  22.532  0.00  0.00    +0.000 A 
ATOM     24  C   UNL     1      -0.853  10.201  23.291  0.00  0.00    +0.000 A 
ATOM     25  C   UNL     1      -0.147   9.115  22.759  0.00  0.00    +0.000 A 
BRANCH  23  26
ATOM     26  C   UNL     1      -1.858  12.505  23.099  0.00  0.00    +0.000 A 
ATOM     27  C   UNL     1      -3.206  12.391  23.486  0.00  0.00    +0.000 A 
ATOM     28  C   UNL     1      -3.914  13.483  24.000  0.00  0.00    +0.000 A 
ATOM     29  C   UNL     1      -3.281  14.710  24.157  0.00  0.00    +0.000 A 
ATOM     30  C   UNL     1      -1.946  14.849  23.796  0.00  0.00    +0.000 A 
ATOM     31  C   UNL     1      -1.245  13.760  23.268  0.00  0.00    +0.000 A 
ENDBRANCH  23  26
ENDBRANCH   3  20
BRANCH   5  32
ATOM     32  C   UNL     1       1.623   4.604  20.354  0.00  0.00    +0.000 A 
ATOM     33  C   UNL     1       1.135   3.903  19.253  0.00  0.00    +0.000 A 
ATOM     34  C   UNL     1       1.216   2.510  19.255  0.00  0.00    +0.000 A 
ATOM     35  C   UNL     1       1.766   1.841  20.351  0.00  0.00    +0.000 A 
ATOM     36  C   UNL     1       2.209   2.553  21.465  0.00  0.00    +0.000 A 
ATOM     37  C   UNL     1       2.116   3.944  21.479  0.00  0.00    +0.000 A 
ENDBRANCH   5  32
TORSDOF 7
ENDMDL
MODEL 6
REMARK VINA RESULT:      -9.4      0.239      1.154
REMARK  Name = 
REMARK  7 active torsions:
REMARK  status: ('A' for Active; 'I' for Inactive)
REMARK    1  A    between atoms: C_4  and  C_5
REMARK    2  A    between atoms: C_5  and  O_6
REMARK    3  A    between atoms: O_6  and  C_7
REMARK    4  A    between atoms: C_10  and  N_11
REMARK    5  A    between atoms: C_13  and  C_14
REMARK    6  A    between atoms: C_17  and  C_18
REMARK    7  A    between atoms: N_27  and  C_28
REMARK                            x       y       z     vdW  Elec       q    Type
REMARK                         _______ _______ _______ _____ _____    ______ ____
ROOT
ATOM      1  N   UNL     1       2.488   6.954  19.724  0.00  0.00    +0.000 N 
ATOM      2  N   UNL     1       2.183   8.216  20.164  0.00  0.00    +0.000 NA
ATOM      3  C   UNL     1       1.038   8.005  20.791  0.00  0.00    +0.000 A 
ATOM      4  N   UNL     1       0.602   6.756  20.843  0.00  0.00    +0.000 NA
ATOM      5  N   UNL     1       1.611   6.092  20.186  0.00  0.00    +0.000 N 
ENDROOT
BRANCH   1   9
ATOM      6  C   UNL     1       5.594   6.281  16.952  0.00  0.00    +0.000 A 
ATOM      7  C   UNL     1       5.634   5.687  18.217  0.00  0.00    +0.000 A 
ATOM      8  C   UNL     1       4.610   5.922  19.129  0.00  0.00    +0.000 A 
ATOM      9  C   UNL     1       3.562   6.762  18.763  0.00  0.00    +0.000 A 
ATOM     10  C   UNL     1       3.545   7.427  17.541  0.00  0.00    +0.000 A 
ATOM     11  C   UNL     1       4.566   7.172  16.628  0.00  0.00    +0.000 A 
BRANCH   6  12
ATOM     12  O   UNL     1       6.510   6.068  15.964  0.00  0.00    +0.000 OA
BRANCH  12  13
ATOM     13  C   UNL     1       6.872   4.701  15.750  0.00  0.00    +0.000 C 
BRANCH  13  17
ATOM     14  C   UNL     1       6.044   3.678  11.656  0.00  0.00    +0.000 A 
ATOM     15  C   UNL     1       5.103   3.400  12.646  0.00  0.00    +0.000 A 
ATOM     16  C   UNL     1       5.370   3.732  13.972  0.00  0.00    +0.000 A 
ATOM     17  C   UNL     1       6.581   4.346  14.320  0.00  0.00    +0.000 A 
ATOM     18  C   UNL     1       7.521   4.619  13.317  0.00  0.00    +0.000 A 
ATOM     19  C   UNL     1       7.252   4.288  11.990  0.00  0.00    +0.000 A 
ENDBRANCH  13  17
ENDBRANCH  12  13
ENDBRANCH   6  12
ENDBRANCH   1   9
BRANCH   3  20
ATOM     20  C   UNL     1       0.295   9.115  21.392  0.00  0.00    +0.000 A 
ATOM     21  C   UNL     1      -0.177  10.177  20.606  0.00  0.00    +0.000 A 
ATOM     22  C   UNL     1      -0.884  11.239  21.182  0.00  0.00    +0.000 A 
ATOM     23  C   UNL     1      -1.161  11.277  22.559  0.00  0.00    +0.000 A 
ATOM     24  C   UNL     1      -0.688  10.205  23.335  0.00  0.00    +0.000 A 
ATOM     25  C   UNL     1       0.032   9.147  22.767  0.00  0.00    +0.000 A 
BRANCH  23  26
ATOM     26  C   UNL     1      -1.914  12.401  23.162  0.00  0.00    +0.000 A 
ATOM     27  C   UNL     1      -1.315  13.657  23.370  0.00  0.00    +0.000 A 
ATOM     28  C   UNL     1      -2.017  14.713  23.961  0.00  0.00    +0.000 A 
ATOM     29  C   UNL     1      -3.343  14.542  24.339  0.00  0.00    +0.000 A 
ATOM     30  C   UNL     1      -3.966  13.316  24.134  0.00  0.00    +0.000 A 
ATOM     31  C   UNL     1      -3.257  12.257  23.558  0.00  0.00    +0.000 A 
ENDBRANCH  23  26
ENDBRANCH   3  20
BRANCH   5  32
ATOM     32  C   UNL     1       1.682   4.634  20.196  0.00  0.00    +0.000 A 
ATOM     33  C   UNL     1       2.127   4.004  21.356  0.00  0.00    +0.000 A 
ATOM     34  C   UNL     1       2.148   2.609  21.398  0.00  0.00    +0.000 A 
ATOM     35  C   UNL     1       1.740   1.868  20.286  0.00  0.00    +0.000 A 
ATOM     36  C   UNL     1       1.339   2.512  19.116  0.00  0.00    +0.000 A 
ATOM     37  C   UNL     1       1.331   3.905  19.059  0.00  0.00    +0.000 A 
ENDBRANCH   5  32
TORSDOF 7
ENDMDL
MODEL 7
REMARK VINA RESULT:      -8.7      1.749      2.865
REMARK  Name = 
REMARK  7 active torsions:
REMARK  status: ('A' for Active; 'I' for Inactive)
REMARK    1  A    between atoms: C_4  and  C_5
REMARK    2  A    between atoms: C_5  and  O_6
REMARK    3  A    between atoms: O_6  and  C_7
REMARK    4  A    between atoms: C_10  and  N_11
REMARK    5  A    between atoms: C_13  and  C_14
REMARK    6  A    between atoms: C_17  and  C_18
REMARK    7  A    between atoms: N_27  and  C_28
REMARK                            x       y       z     vdW  Elec       q    Type
REMARK                         _______ _______ _______ _____ _____    ______ ____
ROOT
ATOM      1  N   UNL     1       4.060   5.953  17.983  0.00  0.00    +0.000 N 
ATOM      2  N   UNL     1       3.679   7.238  18.272  0.00  0.00    +0.000 NA
ATOM      3  C   UNL     1       2.612   7.032  19.023  0.00  0.00    +0.000 A 
ATOM      4  N   UNL     1       2.293   5.772  19.284  0.00  0.00    +0.000 NA
ATOM      5  N   UNL     1       3.302   5.101  18.635  0.00  0.00    +0.000 N 
ENDROOT
BRANCH   1   9
ATOM      6  C   UNL     1       6.977   5.128  15.051  0.00  0.00    +0.000 A 
ATOM      7  C   UNL     1       7.120   4.631  16.349  0.00  0.00    +0.000 A 
ATOM      8  C   UNL     1       6.157   4.916  17.314  0.00  0.00    +0.000 A 
ATOM      9  C   UNL     1       5.068   5.708  16.963  0.00  0.00    +0.000 A 
ATOM     10  C   UNL     1       4.950   6.280  15.700  0.00  0.00    +0.000 A 
ATOM     11  C   UNL     1       5.910   5.975  14.737  0.00  0.00    +0.000 A 
BRANCH   6  12
ATOM     12  O   UNL     1       7.826   4.858  14.018  0.00  0.00    +0.000 OA
BRANCH  12  13
ATOM     13  C   UNL     1       7.298   5.103  12.712  0.00  0.00    +0.000 C 
BRANCH  13  17
ATOM     14  C   UNL     1       5.889   1.384  11.073  0.00  0.00    +0.000 A 
ATOM     15  C   UNL     1       7.257   1.649  11.122  0.00  0.00    +0.000 A 
ATOM     16  C   UNL     1       7.714   2.851  11.654  0.00  0.00    +0.000 A 
ATOM     17  C   UNL     1       6.807   3.803  12.142  0.00  0.00    +0.000 A 
ATOM     18  C   UNL     1       5.434   3.528  12.086  0.00  0.00    +0.000 A 
ATOM     19  C   UNL     1       4.978   2.322  11.554  0.00  0.00    +0.000 A 
ENDBRANCH  13  17
ENDBRANCH  12  13
ENDBRANCH   6  12
ENDBRANCH   1   9
BRANCH   3  20
ATOM     20  C   UNL     1       1.822   8.156  19.533  0.00  0.00    +0.000 A 
ATOM     21  C   UNL     1       1.433   9.205  18.687  0.00  0.00    +0.000 A 
ATOM     22  C   UNL     1       0.682  10.281  19.176  0.00  0.00    +0.000 A 
ATOM     23  C   UNL     1       0.277  10.345  20.521  0.00  0.00    +0.000 A 
ATOM     24  C   UNL     1       0.670   9.286  21.355  0.00  0.00    +0.000 A 
ATOM     25  C   UNL     1       1.433   8.214  20.876  0.00  0.00    +0.000 A 
BRANCH  23  26
ATOM     26  C   UNL     1      -0.521  11.483  21.031  0.00  0.00    +0.000 A 
ATOM     27  C   UNL     1      -1.087  12.431  20.158  0.00  0.00    +0.000 A 
ATOM     28  C   UNL     1      -1.822  13.520  20.639  0.00  0.00    +0.000 A 
ATOM     29  C   UNL     1      -2.027  13.673  22.004  0.00  0.00    +0.000 A 
ATOM     30  C   UNL     1      -1.492  12.744  22.890  0.00  0.00    +0.000 A 
ATOM     31  C   UNL     1      -0.743  11.666  22.409  0.00  0.00    +0.000 A 
ENDBRANCH  23  26
ENDBRANCH   3  20
BRANCH   5  32
ATOM     32  C   UNL     1       3.502   3.669  18.836  0.00  0.00    +0.000 A 
ATOM     33  C   UNL     1       2.989   2.792  17.883  0.00  0.00    +0.000 A 
ATOM     34  C   UNL     1       3.219   1.424  18.035  0.00  0.00    +0.000 A 
ATOM     35  C   UNL     1       3.942   0.953  19.134  0.00  0.00    +0.000 A 
ATOM     36  C   UNL     1       4.411   1.838  20.104  0.00  0.00    +0.000 A 
ATOM     37  C   UNL     1       4.170   3.204  19.969  0.00  0.00    +0.000 A 
ENDBRANCH   5  32
TORSDOF 7
ENDMDL
MODEL 8
REMARK VINA RESULT:      -8.6      1.874      3.077
REMARK  Name = 
REMARK  7 active torsions:
REMARK  status: ('A' for Active; 'I' for Inactive)
REMARK    1  A    between atoms: C_4  and  C_5
REMARK    2  A    between atoms: C_5  and  O_6
REMARK    3  A    between atoms: O_6  and  C_7
REMARK    4  A    between atoms: C_10  and  N_11
REMARK    5  A    between atoms: C_13  and  C_14
REMARK    6  A    between atoms: C_17  and  C_18
REMARK    7  A    between atoms: N_27  and  C_28
REMARK                            x       y       z     vdW  Elec       q    Type
REMARK                         _______ _______ _______ _____ _____    ______ ____
ROOT
ATOM      1  N   UNL     1       4.093   5.973  17.808  0.00  0.00    +0.000 N 
ATOM      2  N   UNL     1       3.699   7.260  18.068  0.00  0.00    +0.000 NA
ATOM      3  C   UNL     1       2.622   7.060  18.807  0.00  0.00    +0.000 A 
ATOM      4  N   UNL     1       2.308   5.804  19.086  0.00  0.00    +0.000 NA
ATOM      5  N   UNL     1       3.331   5.128  18.464  0.00  0.00    +0.000 N 
ENDROOT
BRANCH   1   9
ATOM      6  C   UNL     1       7.051   5.113  14.928  0.00  0.00    +0.000 A 
ATOM      7  C   UNL     1       7.123   4.550  16.205  0.00  0.00    +0.000 A 
ATOM      8  C   UNL     1       6.148   4.846  17.152  0.00  0.00    +0.000 A 
ATOM      9  C   UNL     1       5.117   5.716  16.808  0.00  0.00    +0.000 A 
ATOM     10  C   UNL     1       5.072   6.351  15.571  0.00  0.00    +0.000 A 
ATOM     11  C   UNL     1       6.044   6.035  14.623  0.00  0.00    +0.000 A 
BRANCH   6  12
ATOM     12  O   UNL     1       7.916   4.841  13.909  0.00  0.00    +0.000 OA
BRANCH  12  13
ATOM     13  C   UNL     1       7.399   5.059  12.593  0.00  0.00    +0.000 C 
BRANCH  13  17
ATOM     14  C   UNL     1       5.841   1.344  11.088  0.00  0.00    +0.000 A 
ATOM     15  C   UNL     1       7.216   1.573  11.086  0.00  0.00    +0.000 A 
ATOM     16  C   UNL     1       7.722   2.774  11.574  0.00  0.00    +0.000 A 
ATOM     17  C   UNL     1       6.856   3.760  12.070  0.00  0.00    +0.000 A 
ATOM     18  C   UNL     1       5.475   3.520  12.065  0.00  0.00    +0.000 A 
ATOM     19  C   UNL     1       4.971   2.316  11.577  0.00  0.00    +0.000 A 
ENDBRANCH  13  17
ENDBRANCH  12  13
ENDBRANCH   6  12
ENDBRANCH   1   9
BRANCH   3  20
ATOM     20  C   UNL     1       1.817   8.188  19.283  0.00  0.00    +0.000 A 
ATOM     21  C   UNL     1       1.455   9.232  18.418  0.00  0.00    +0.000 A 
ATOM     22  C   UNL     1       0.689  10.311  18.876  0.00  0.00    +0.000 A 
ATOM     23  C   UNL     1       0.243  10.385  20.207  0.00  0.00    +0.000 A 
ATOM     24  C   UNL     1       0.609   9.331  21.061  0.00  0.00    +0.000 A 
ATOM     25  C   UNL     1       1.386   8.256  20.613  0.00  0.00    +0.000 A 
BRANCH  23  26
ATOM     26  C   UNL     1      -0.571  11.526  20.684  0.00  0.00    +0.000 A 
ATOM     27  C   UNL     1      -0.311  12.147  21.920  0.00  0.00    +0.000 A 
ATOM     28  C   UNL     1      -1.093  13.209  22.384  0.00  0.00    +0.000 A 
ATOM     29  C   UNL     1      -2.142  13.691  21.610  0.00  0.00    +0.000 A 
ATOM     30  C   UNL     1      -2.414  13.108  20.378  0.00  0.00    +0.000 A 
ATOM     31  C   UNL     1      -1.641  12.034  19.923  0.00  0.00    +0.000 A 
ENDBRANCH  23  26
ENDBRANCH   3  20
BRANCH   5  32
ATOM     32  C   UNL     1       3.538   3.701  18.696  0.00  0.00    +0.000 A 
ATOM     33  C   UNL     1       4.274   3.316  19.814  0.00  0.00    +0.000 A 
ATOM     34  C   UNL     1       4.434   1.955  20.077  0.00  0.00    +0.000 A 
ATOM     35  C   UNL     1       3.871   1.004  19.221  0.00  0.00    +0.000 A 
ATOM     36  C   UNL     1       3.175   1.405  18.080  0.00  0.00    +0.000 A 
ATOM     37  C   UNL     1       3.026   2.762  17.801  0.00  0.00    +0.000 A 
ENDBRANCH   5  32
TORSDOF 7
ENDMDL
MODEL 9
REMARK VINA RESULT:      -8.3      4.335     12.079
REMARK  Name = 
REMARK  7 active torsions:
REMARK  status: ('A' for Active; 'I' for Inactive)
REMARK    1  A    between atoms: C_4  and  C_5
REMARK    2  A    between atoms: C_5  and  O_6
REMARK    3  A    between atoms: O_6  and  C_7
REMARK    4  A    between atoms: C_10  and  N_11
REMARK    5  A    between atoms: C_13  and  C_14
REMARK    6  A    between atoms: C_17  and  C_18
REMARK    7  A    between atoms: N_27  and  C_28
REMARK                            x       y       z     vdW  Elec       q    Type
REMARK                         _______ _______ _______ _____ _____    ______ ____
ROOT
ATOM      1  N   UNL     1      -0.905  12.255  21.092  0.00  0.00    +0.000 N 
ATOM      2  N   UNL     1      -0.658  10.935  20.820  0.00  0.00    +0.000 NA
ATOM      3  C   UNL     1       0.484  11.012  20.159  0.00  0.00    +0.000 A 
ATOM      4  N   UNL     1       1.016  12.216  20.016  0.00  0.00    +0.000 NA
ATOM      5  N   UNL     1       0.107  12.993  20.694  0.00  0.00    +0.000 N 
ENDROOT
BRANCH   1   9
ATOM      6  C   UNL     1      -4.721  13.405  22.468  0.00  0.00    +0.000 A 
ATOM      7  C   UNL     1      -4.214  13.926  21.275  0.00  0.00    +0.000 A 
ATOM      8  C   UNL     1      -2.950  13.548  20.832  0.00  0.00    +0.000 A 
ATOM      9  C   UNL     1      -2.205  12.660  21.603  0.00  0.00    +0.000 A 
ATOM     10  C   UNL     1      -2.657  12.194  22.833  0.00  0.00    +0.000 A 
ATOM     11  C   UNL     1      -3.931  12.565  23.259  0.00  0.00    +0.000 A 
BRANCH   6  12
ATOM     12  O   UNL     1      -5.969  13.659  22.959  0.00  0.00    +0.000 OA
BRANCH  12  13
ATOM     13  C   UNL     1      -6.951  12.659  22.677  0.00  0.00    +0.000 C 
BRANCH  13  17
ATOM     14  C   UNL     1      -7.544  12.487  18.421  0.00  0.00    +0.000 A 
ATOM     15  C   UNL     1      -7.003  11.392  19.092  0.00  0.00    +0.000 A 
ATOM     16  C   UNL     1      -6.812  11.446  20.470  0.00  0.00    +0.000 A 
ATOM     17  C   UNL     1      -7.161  12.597  21.191  0.00  0.00    +0.000 A 
ATOM     18  C   UNL     1      -7.702  13.693  20.506  0.00  0.00    +0.000 A 
ATOM     19  C   UNL     1      -7.894  13.637  19.126  0.00  0.00    +0.000 A 
ENDBRANCH  13  17
ENDBRANCH  12  13
ENDBRANCH   6  12
ENDBRANCH   1   9
BRANCH   3  20
ATOM     20  C   UNL     1       1.117   9.810  19.609  0.00  0.00    +0.000 A 
ATOM     21  C   UNL     1       1.339   8.681  20.411  0.00  0.00    +0.000 A 
ATOM     22  C   UNL     1       1.948   7.535  19.885  0.00  0.00    +0.000 A 
ATOM     23  C   UNL     1       2.345   7.465  18.539  0.00  0.00    +0.000 A 
ATOM     24  C   UNL     1       2.113   8.601  17.745  0.00  0.00    +0.000 A 
ATOM     25  C   UNL     1       1.517   9.755  18.268  0.00  0.00    +0.000 A 
BRANCH  23  26
ATOM     26  C   UNL     1       2.984   6.248  17.987  0.00  0.00    +0.000 A 
ATOM     27  C   UNL     1       4.253   6.297  17.381  0.00  0.00    +0.000 A 
ATOM     28  C   UNL     1       4.848   5.154  16.837  0.00  0.00    +0.000 A 
ATOM     29  C   UNL     1       4.196   3.929  16.908  0.00  0.00    +0.000 A 
ATOM     30  C   UNL     1       2.947   3.847  17.514  0.00  0.00    +0.000 A 
ATOM     31  C   UNL     1       2.346   4.994  18.042  0.00  0.00    +0.000 A 
ENDBRANCH  23  26
ENDBRANCH   3  20
BRANCH   5  32
ATOM     32  C   UNL     1       0.397  14.390  21.006  0.00  0.00    +0.000 A 
ATOM     33  C   UNL     1       0.378  14.783  22.343  0.00  0.00    +0.000 A 
ATOM     34  C   UNL     1       0.706  16.102  22.659  0.00  0.00    +0.000 A 
ATOM     35  C   UNL     1       1.035  17.006  21.646  0.00  0.00    +0.000 A 
ATOM     36  C   UNL     1       1.007  16.609  20.309  0.00  0.00    +0.000 A 
ATOM     37  C   UNL     1       0.662  15.299  19.982  0.00  0.00    +0.000 A 
ENDBRANCH   5  32
TORSDOF 7
ENDMDL
