MODEL 1
REMARK VINA RESULT:      -6.7      0.000      0.000
REMARK  Name = 
REMARK  2 active torsions:
REMARK  status: ('A' for Active; 'I' for Inactive)
REMARK    1  A    between atoms: N_3  and  C_4
REMARK    2  A    between atoms: C_4  and  C_5
REMARK                            x       y       z     vdW  Elec       q    Type
REMARK                         _______ _______ _______ _____ _____    ______ ____
ROOT
ATOM      1  C   UNL     1       1.593   8.525  20.922  0.00  0.00    +0.000 C 
ATOM      2  C   UNL     1       1.097   8.811  22.357  0.00  0.00    +0.000 C 
ATOM      3  C   UNL     1      -0.274   9.493  22.478  0.00  0.00    +0.000 C 
ATOM      4  N   UNL     1      -0.347  10.584  21.488  0.00  0.00    +0.000 N 
ATOM      5  C   UNL     1      -1.142  11.699  21.805  0.00  0.00    +0.000 A 
ATOM      6  N   UNL     1      -2.026  11.497  22.835  0.00  0.00    +0.000 NA
ATOM      7  C   UNL     1      -2.682  12.621  23.205  0.00  0.00    +0.000 A 
ATOM      8  N   UNL     1      -3.535  12.746  24.217  0.00  0.00    +0.000 NA
ATOM      9  O   UNL     1      -3.901  14.092  24.211  0.00  0.00    +0.000 OA
ATOM     10  N   UNL     1      -3.296  14.792  23.169  0.00  0.00    +0.000 NA
ATOM     11  C   UNL     1      -2.539  13.885  22.555  0.00  0.00    +0.000 A 
ATOM     12  N   UNL     1      -1.735  14.105  21.491  0.00  0.00    +0.000 NA
ATOM     13  C   UNL     1      -0.983  13.021  21.143  0.00  0.00    +0.000 A 
ATOM     14  N   UNL     1       0.000  13.356  20.220  0.00  0.00    +0.000 N 
ATOM     15  C   UNL     1      -0.329  14.290  19.127  0.00  0.00    +0.000 C 
ATOM     16  C   UNL     1       0.779  15.332  18.924  0.00  0.00    +0.000 C 
ATOM     17  S   UNL     1       2.386  14.583  18.491  0.00  0.00    +0.000 S 
ATOM     18  C   UNL     1       2.499  13.485  19.930  0.00  0.00    +0.000 C 
ATOM     19  C   UNL     1       1.250  12.633  20.094  0.00  0.00    +0.000 C 
ATOM     20  C   UNL     1      -0.326  10.054  20.128  0.00  0.00    +0.000 C 
ATOM     21  C   UNL     1       1.100   9.539  19.882  0.00  0.00    +0.000 C 
ENDROOT
BRANCH   1  22
ATOM     22  C   UNL     1       1.303   7.123  20.374  0.00  0.00    +0.000 C 
BRANCH  22  25
ATOM     23  C   UNL     1       1.865   5.043  18.095  0.00  0.00    +0.000 C 
ATOM     24  C   UNL     1       2.876   5.880  18.896  0.00  0.00    +0.000 C 
ATOM     25  N   UNL     1       2.438   6.194  20.285  0.00  0.00    +0.000 NA
ATOM     26  C   UNL     1       2.059   4.904  20.921  0.00  0.00    +0.000 C 
ATOM     27  C   UNL     1       1.082   4.051  20.086  0.00  0.00    +0.000 C 
ATOM     28  O   UNL     1       1.573   3.810  18.764  0.00  0.00    +0.000 OA
ENDBRANCH  22  25
ENDBRANCH   1  22
TORSDOF 2
ENDMDL
MODEL 2
REMARK VINA RESULT:      -6.5      8.350     10.118
REMARK  Name = 
REMARK  2 active torsions:
REMARK  status: ('A' for Active; 'I' for Inactive)
REMARK    1  A    between atoms: N_3  and  C_4
REMARK    2  A    between atoms: C_4  and  C_5
REMARK                            x       y       z     vdW  Elec       q    Type
REMARK                         _______ _______ _______ _____ _____    ______ ____
ROOT
ATOM      1  C   UNL     1       9.481  13.523  22.205  0.00  0.00    +0.000 C 
ATOM      2  C   UNL     1       9.090  12.049  22.453  0.00  0.00    +0.000 C 
ATOM      3  C   UNL     1       7.642  11.795  22.896  0.00  0.00    +0.000 C 
ATOM      4  N   UNL     1       7.282  12.791  23.923  0.00  0.00    +0.000 N 
ATOM      5  C   UNL     1       6.342  12.411  24.897  0.00  0.00    +0.000 A 
ATOM      6  N   UNL     1       5.615  11.291  24.584  0.00  0.00    +0.000 NA
ATOM      7  C   UNL     1       4.816  10.874  25.592  0.00  0.00    +0.000 A 
ATOM      8  N   UNL     1       4.060   9.779  25.607  0.00  0.00    +0.000 NA
ATOM      9  O   UNL     1       3.468   9.770  26.870  0.00  0.00    +0.000 OA
ATOM     10  N   UNL     1       3.835  10.882  27.626  0.00  0.00    +0.000 NA
ATOM     11  C   UNL     1       4.671  11.557  26.838  0.00  0.00    +0.000 A 
ATOM     12  N   UNL     1       5.314  12.703  27.154  0.00  0.00    +0.000 NA
ATOM     13  C   UNL     1       6.203  13.110  26.202  0.00  0.00    +0.000 A 
ATOM     14  N   UNL     1       7.015  14.137  26.667  0.00  0.00    +0.000 N 
ATOM     15  C   UNL     1       6.421  15.205  27.492  0.00  0.00    +0.000 C 
ATOM     16  C   UNL     1       7.306  15.542  28.700  0.00  0.00    +0.000 C 
ATOM     17  S   UNL     1       8.966  16.129  28.220  0.00  0.00    +0.000 S 
ATOM     18  C   UNL     1       9.412  14.691  27.209  0.00  0.00    +0.000 C 
ATOM     19  C   UNL     1       8.352  14.382  26.163  0.00  0.00    +0.000 C 
ATOM     20  C   UNL     1       7.257  14.136  23.357  0.00  0.00    +0.000 C 
ATOM     21  C   UNL     1       8.718  14.522  23.082  0.00  0.00    +0.000 C 
ENDROOT
BRANCH   1  22
ATOM     22  C   UNL     1       9.383  14.012  20.756  0.00  0.00    +0.000 C 
BRANCH  22  25
ATOM     23  C   UNL     1       9.919  14.304  17.680  0.00  0.00    +0.000 C 
ATOM     24  C   UNL     1      10.449  15.177  18.828  0.00  0.00    +0.000 C 
ATOM     25  N   UNL     1      10.632  14.443  20.112  0.00  0.00    +0.000 NA
ATOM     26  C   UNL     1      11.461  13.244  19.811  0.00  0.00    +0.000 C 
ATOM     27  C   UNL     1      10.946  12.403  18.625  0.00  0.00    +0.000 C 
ATOM     28  O   UNL     1      10.784  13.187  17.440  0.00  0.00    +0.000 OA
ENDBRANCH  22  25
ENDBRANCH   1  22
TORSDOF 2
ENDMDL
MODEL 3
REMARK VINA RESULT:      -6.3      8.505     10.159
REMARK  Name = 
REMARK  2 active torsions:
REMARK  status: ('A' for Active; 'I' for Inactive)
REMARK    1  A    between atoms: N_3  and  C_4
REMARK    2  A    between atoms: C_4  and  C_5
REMARK                            x       y       z     vdW  Elec       q    Type
REMARK                         _______ _______ _______ _____ _____    ______ ____
ROOT
ATOM      1  C   UNL     1       9.340  13.242  21.970  0.00  0.00    +0.000 C 
ATOM      2  C   UNL     1       8.898  11.837  22.437  0.00  0.00    +0.000 C 
ATOM      3  C   UNL     1       7.483  11.732  23.027  0.00  0.00    +0.000 C 
ATOM      4  N   UNL     1       7.270  12.868  23.944  0.00  0.00    +0.000 N 
ATOM      5  C   UNL     1       6.404  12.670  25.033  0.00  0.00    +0.000 A 
ATOM      6  N   UNL     1       5.594  11.568  24.929  0.00  0.00    +0.000 NA
ATOM      7  C   UNL     1       4.869  11.329  26.045  0.00  0.00    +0.000 A 
ATOM      8  N   UNL     1       4.062  10.294  26.262  0.00  0.00    +0.000 NA
ATOM      9  O   UNL     1       3.587  10.478  27.561  0.00  0.00    +0.000 OA
ATOM     10  N   UNL     1       4.078  11.650  28.135  0.00  0.00    +0.000 NA
ATOM     11  C   UNL     1       4.873  12.169  27.201  0.00  0.00    +0.000 A 
ATOM     12  N   UNL     1       5.601  13.303  27.313  0.00  0.00    +0.000 NA
ATOM     13  C   UNL     1       6.420  13.532  26.246  0.00  0.00    +0.000 A 
ATOM     14  N   UNL     1       7.323  14.556  26.506  0.00  0.00    +0.000 N 
ATOM     15  C   UNL     1       6.862  15.752  27.234  0.00  0.00    +0.000 C 
ATOM     16  C   UNL     1       7.869  16.179  28.310  0.00  0.00    +0.000 C 
ATOM     17  S   UNL     1       9.508  16.597  27.623  0.00  0.00    +0.000 S 
ATOM     18  C   UNL     1       9.784  15.020  26.771  0.00  0.00    +0.000 C 
ATOM     19  C   UNL     1       8.620  14.652  25.865  0.00  0.00    +0.000 C 
ATOM     20  C   UNL     1       7.264  14.131  23.214  0.00  0.00    +0.000 C 
ATOM     21  C   UNL     1       8.712  14.388  22.772  0.00  0.00    +0.000 C 
ENDROOT
BRANCH   1  22
ATOM     22  C   UNL     1       9.137  13.555  20.483  0.00  0.00    +0.000 C 
BRANCH  22  25
ATOM     23  C   UNL     1      12.057  13.989  19.423  0.00  0.00    +0.000 C 
ATOM     24  C   UNL     1      11.338  12.665  19.726  0.00  0.00    +0.000 C 
ATOM     25  N   UNL     1       9.863  12.715  19.520  0.00  0.00    +0.000 NA
ATOM     26  C   UNL     1       9.635  13.243  18.148  0.00  0.00    +0.000 C 
ATOM     27  C   UNL     1      10.401  14.547  17.839  0.00  0.00    +0.000 C 
ATOM     28  O   UNL     1      11.805  14.415  18.078  0.00  0.00    +0.000 OA
ENDBRANCH  22  25
ENDBRANCH   1  22
TORSDOF 2
ENDMDL
MODEL 4
REMARK VINA RESULT:      -6.2      4.849      7.326
REMARK  Name = 
REMARK  2 active torsions:
REMARK  status: ('A' for Active; 'I' for Inactive)
REMARK    1  A    between atoms: N_3  and  C_4
REMARK    2  A    between atoms: C_4  and  C_5
REMARK                            x       y       z     vdW  Elec       q    Type
REMARK                         _______ _______ _______ _____ _____    ______ ____
ROOT
ATOM      1  C   UNL     1       1.933  13.379  21.023  0.00  0.00    +0.000 C 
ATOM      2  C   UNL     1       1.865  12.251  19.969  0.00  0.00    +0.000 C 
ATOM      3  C   UNL     1       0.798  12.406  18.876  0.00  0.00    +0.000 C 
ATOM      4  N   UNL     1      -0.462  12.845  19.505  0.00  0.00    +0.000 N 
ATOM      5  C   UNL     1      -1.665  12.450  18.896  0.00  0.00    +0.000 A 
ATOM      6  N   UNL     1      -1.534  11.998  17.607  0.00  0.00    +0.000 NA
ATOM      7  C   UNL     1      -2.683  11.502  17.095  0.00  0.00    +0.000 A 
ATOM      8  N   UNL     1      -2.839  10.926  15.906  0.00  0.00    +0.000 NA
ATOM      9  O   UNL     1      -4.183  10.551  15.865  0.00  0.00    +0.000 OA
ATOM     10  N   UNL     1      -4.864  10.926  17.021  0.00  0.00    +0.000 NA
ATOM     11  C   UNL     1      -3.936  11.506  17.780  0.00  0.00    +0.000 A 
ATOM     12  N   UNL     1      -4.121  12.009  19.021  0.00  0.00    +0.000 NA
ATOM     13  C   UNL     1      -2.968  12.435  19.614  0.00  0.00    +0.000 A 
ATOM     14  N   UNL     1      -3.158  12.708  20.963  0.00  0.00    +0.000 N 
ATOM     15  C   UNL     1      -4.393  13.390  21.391  0.00  0.00    +0.000 C 
ATOM     16  C   UNL     1      -4.992  12.738  22.644  0.00  0.00    +0.000 C 
ATOM     17  S   UNL     1      -3.860  12.781  24.076  0.00  0.00    +0.000 S 
ATOM     18  C   UNL     1      -2.466  11.952  23.264  0.00  0.00    +0.000 C 
ATOM     19  C   UNL     1      -2.098  12.618  21.947  0.00  0.00    +0.000 C 
ATOM     20  C   UNL     1      -0.323  14.184  20.067  0.00  0.00    +0.000 C 
ATOM     21  C   UNL     1       0.582  14.049  21.301  0.00  0.00    +0.000 C 
ENDROOT
BRANCH   1  22
ATOM     22  C   UNL     1       2.953  14.492  20.756  0.00  0.00    +0.000 C 
BRANCH  22  25
ATOM     23  C   UNL     1       5.089  16.537  19.714  0.00  0.00    +0.000 C 
ATOM     24  C   UNL     1       4.989  15.031  19.424  0.00  0.00    +0.000 C 
ATOM     25  N   UNL     1       3.595  14.504  19.434  0.00  0.00    +0.000 NA
ATOM     26  C   UNL     1       2.800  15.366  18.517  0.00  0.00    +0.000 C 
ATOM     27  C   UNL     1       2.948  16.878  18.786  0.00  0.00    +0.000 C 
ATOM     28  O   UNL     1       4.316  17.295  18.775  0.00  0.00    +0.000 OA
ENDBRANCH  22  25
ENDBRANCH   1  22
TORSDOF 2
ENDMDL
MODEL 5
REMARK VINA RESULT:      -6.1      3.804      7.113
REMARK  Name = 
REMARK  2 active torsions:
REMARK  status: ('A' for Active; 'I' for Inactive)
REMARK    1  A    between atoms: N_3  and  C_4
REMARK    2  A    between atoms: C_4  and  C_5
REMARK                            x       y       z     vdW  Elec       q    Type
REMARK                         _______ _______ _______ _____ _____    ______ ____
ROOT
ATOM      1  C   UNL     1       1.465  14.919  19.256  0.00  0.00    +0.000 C 
ATOM      2  C   UNL     1      -0.008  15.371  19.131  0.00  0.00    +0.000 C 
ATOM      3  C   UNL     1      -0.823  15.396  20.432  0.00  0.00    +0.000 C 
ATOM      4  N   UNL     1      -0.537  14.164  21.191  0.00  0.00    +0.000 N 
ATOM      5  C   UNL     1      -1.557  13.655  22.014  0.00  0.00    +0.000 A 
ATOM      6  N   UNL     1      -2.571  14.539  22.283  0.00  0.00    +0.000 NA
ATOM      7  C   UNL     1      -3.599  13.983  22.963  0.00  0.00    +0.000 A 
ATOM      8  N   UNL     1      -4.745  14.572  23.292  0.00  0.00    +0.000 NA
ATOM      9  O   UNL     1      -5.483  13.581  23.940  0.00  0.00    +0.000 OA
ATOM     10  N   UNL     1      -4.775  12.385  24.039  0.00  0.00    +0.000 NA
ATOM     11  C   UNL     1      -3.617  12.633  23.430  0.00  0.00    +0.000 A 
ATOM     12  N   UNL     1      -2.606  11.754  23.249  0.00  0.00    +0.000 NA
ATOM     13  C   UNL     1      -1.587  12.245  22.485  0.00  0.00    +0.000 A 
ATOM     14  N   UNL     1      -0.697  11.243  22.117  0.00  0.00    +0.000 N 
ATOM     15  C   UNL     1      -0.324  10.214  23.105  0.00  0.00    +0.000 C 
ATOM     16  C   UNL     1      -0.334   8.810  22.486  0.00  0.00    +0.000 C 
ATOM     17  S   UNL     1       0.841   8.638  21.099  0.00  0.00    +0.000 S 
ATOM     18  C   UNL     1       0.195  10.013  20.108  0.00  0.00    +0.000 C 
ATOM     19  C   UNL     1       0.107  11.300  20.912  0.00  0.00    +0.000 C 
ATOM     20  C   UNL     1       0.853  14.139  21.636  0.00  0.00    +0.000 C 
ATOM     21  C   UNL     1       1.709  13.908  20.382  0.00  0.00    +0.000 C 
ENDROOT
BRANCH   1  22
ATOM     22  C   UNL     1       2.503  16.036  19.406  0.00  0.00    +0.000 C 
BRANCH  22  25
ATOM     23  C   UNL     1       4.524  18.081  20.661  0.00  0.00    +0.000 C 
ATOM     24  C   UNL     1       4.059  16.729  21.225  0.00  0.00    +0.000 C 
ATOM     25  N   UNL     1       3.712  15.724  20.182  0.00  0.00    +0.000 NA
ATOM     26  C   UNL     1       4.874  15.642  19.256  0.00  0.00    +0.000 C 
ATOM     27  C   UNL     1       5.363  17.009  18.735  0.00  0.00    +0.000 C 
ATOM     28  O   UNL     1       5.658  17.917  19.800  0.00  0.00    +0.000 OA
ENDBRANCH  22  25
ENDBRANCH   1  22
TORSDOF 2
ENDMDL
MODEL 6
REMARK VINA RESULT:      -6.0      2.905      4.580
REMARK  Name = 
REMARK  2 active torsions:
REMARK  status: ('A' for Active; 'I' for Inactive)
REMARK    1  A    between atoms: N_3  and  C_4
REMARK    2  A    between atoms: C_4  and  C_5
REMARK                            x       y       z     vdW  Elec       q    Type
REMARK                         _______ _______ _______ _____ _____    ______ ____
ROOT
ATOM      1  C   UNL     1       0.071  12.466  21.438  0.00  0.00    +0.000 C 
ATOM      2  C   UNL     1      -0.670  11.810  22.625  0.00  0.00    +0.000 C 
ATOM      3  C   UNL     1      -2.195  11.690  22.490  0.00  0.00    +0.000 C 
ATOM      4  N   UNL     1      -2.723  12.961  21.960  0.00  0.00    +0.000 N 
ATOM      5  C   UNL     1      -4.024  13.333  22.339  0.00  0.00    +0.000 A 
ATOM      6  N   UNL     1      -4.778  12.319  22.874  0.00  0.00    +0.000 NA
ATOM      7  C   UNL     1      -5.973  12.735  23.350  0.00  0.00    +0.000 A 
ATOM      8  N   UNL     1      -6.874  11.995  23.990  0.00  0.00    +0.000 NA
ATOM      9  O   UNL     1      -7.903  12.882  24.309  0.00  0.00    +0.000 OA
ATOM     10  N   UNL     1      -7.649  14.168  23.835  0.00  0.00    +0.000 NA
ATOM     11  C   UNL     1      -6.456  14.076  23.250  0.00  0.00    +0.000 A 
ATOM     12  N   UNL     1      -5.774  15.086  22.664  0.00  0.00    +0.000 NA
ATOM     13  C   UNL     1      -4.522  14.732  22.254  0.00  0.00    +0.000 A 
ATOM     14  N   UNL     1      -3.771  15.844  21.891  0.00  0.00    +0.000 N 
ATOM     15  C   UNL     1      -4.416  16.930  21.131  0.00  0.00    +0.000 C 
ATOM     16  C   UNL     1      -4.027  18.309  21.679  0.00  0.00    +0.000 C 
ATOM     17  S   UNL     1      -2.231  18.624  21.597  0.00  0.00    +0.000 S 
ATOM     18  C   UNL     1      -1.720  17.157  22.533  0.00  0.00    +0.000 C 
ATOM     19  C   UNL     1      -2.324  15.882  21.966  0.00  0.00    +0.000 C 
ATOM     20  C   UNL     1      -2.257  13.188  20.596  0.00  0.00    +0.000 C 
ATOM     21  C   UNL     1      -0.760  13.519  20.695  0.00  0.00    +0.000 C 
ENDROOT
BRANCH   1  22
ATOM     22  C   UNL     1       0.647  11.509  20.389  0.00  0.00    +0.000 C 
BRANCH  22  25
ATOM     23  C   UNL     1       1.755   8.579  20.227  0.00  0.00    +0.000 C 
ATOM     24  C   UNL     1       0.400   9.059  20.773  0.00  0.00    +0.000 C 
ATOM     25  N   UNL     1      -0.120  10.287  20.108  0.00  0.00    +0.000 NA
ATOM     26  C   UNL     1      -0.099  10.028  18.643  0.00  0.00    +0.000 C 
ATOM     27  C   UNL     1       1.251   9.499  18.115  0.00  0.00    +0.000 C 
ATOM     28  O   UNL     1       1.683   8.331  18.818  0.00  0.00    +0.000 OA
ENDBRANCH  22  25
ENDBRANCH   1  22
TORSDOF 2
ENDMDL
MODEL 7
REMARK VINA RESULT:      -5.9      3.605      6.738
REMARK  Name = 
REMARK  2 active torsions:
REMARK  status: ('A' for Active; 'I' for Inactive)
REMARK    1  A    between atoms: N_3  and  C_4
REMARK    2  A    between atoms: C_4  and  C_5
REMARK                            x       y       z     vdW  Elec       q    Type
REMARK                         _______ _______ _______ _____ _____    ______ ____
ROOT
ATOM      1  C   UNL     1       1.594  15.524  19.573  0.00  0.00    +0.000 C 
ATOM      2  C   UNL     1       0.121  15.990  19.553  0.00  0.00    +0.000 C 
ATOM      3  C   UNL     1      -0.665  15.809  20.861  0.00  0.00    +0.000 C 
ATOM      4  N   UNL     1      -0.367  14.474  21.410  0.00  0.00    +0.000 N 
ATOM      5  C   UNL     1      -1.370  13.841  22.164  0.00  0.00    +0.000 A 
ATOM      6  N   UNL     1      -2.374  14.672  22.592  0.00  0.00    +0.000 NA
ATOM      7  C   UNL     1      -3.389  14.015  23.200  0.00  0.00    +0.000 A 
ATOM      8  N   UNL     1      -4.525  14.545  23.643  0.00  0.00    +0.000 NA
ATOM      9  O   UNL     1      -5.252  13.464  24.143  0.00  0.00    +0.000 OA
ATOM     10  N   UNL     1      -4.546  12.267  24.036  0.00  0.00    +0.000 NA
ATOM     11  C   UNL     1      -3.401  12.609  23.448  0.00  0.00    +0.000 A 
ATOM     12  N   UNL     1      -2.397  11.769  23.109  0.00  0.00    +0.000 NA
ATOM     13  C   UNL     1      -1.394  12.374  22.408  0.00  0.00    +0.000 A 
ATOM     14  N   UNL     1      -0.516  11.443  21.867  0.00  0.00    +0.000 N 
ATOM     15  C   UNL     1      -0.125  10.271  22.672  0.00  0.00    +0.000 C 
ATOM     16  C   UNL     1      -0.152   8.983  21.840  0.00  0.00    +0.000 C 
ATOM     17  S   UNL     1       0.990   9.031  20.418  0.00  0.00    +0.000 S 
ATOM     18  C   UNL     1       0.328  10.545  19.670  0.00  0.00    +0.000 C 
ATOM     19  C   UNL     1       0.262  11.690  20.669  0.00  0.00    +0.000 C 
ATOM     20  C   UNL     1       1.033  14.379  21.814  0.00  0.00    +0.000 C 
ATOM     21  C   UNL     1       1.860  14.348  20.520  0.00  0.00    +0.000 C 
ENDROOT
BRANCH   1  22
ATOM     22  C   UNL     1       2.639  16.604  19.873  0.00  0.00    +0.000 C 
BRANCH  22  25
ATOM     23  C   UNL     1       3.764  14.899  17.493  0.00  0.00    +0.000 C 
ATOM     24  C   UNL     1       3.234  16.342  17.467  0.00  0.00    +0.000 C 
ATOM     25  N   UNL     1       3.443  17.087  18.741  0.00  0.00    +0.000 NA
ATOM     26  C   UNL     1       4.886  16.961  19.084  0.00  0.00    +0.000 C 
ATOM     27  C   UNL     1       5.417  15.513  19.058  0.00  0.00    +0.000 C 
ATOM     28  O   UNL     1       5.161  14.869  17.807  0.00  0.00    +0.000 OA
ENDBRANCH  22  25
ENDBRANCH   1  22
TORSDOF 2
ENDMDL
MODEL 8
REMARK VINA RESULT:      -5.9      3.362      7.116
REMARK  Name = 
REMARK  2 active torsions:
REMARK  status: ('A' for Active; 'I' for Inactive)
REMARK    1  A    between atoms: N_3  and  C_4
REMARK    2  A    between atoms: C_4  and  C_5
REMARK                            x       y       z     vdW  Elec       q    Type
REMARK                         _______ _______ _______ _____ _____    ______ ____
ROOT
ATOM      1  C   UNL     1       2.284  14.851  18.719  0.00  0.00    +0.000 C 
ATOM      2  C   UNL     1       0.828  15.359  18.813  0.00  0.00    +0.000 C 
ATOM      3  C   UNL     1       0.160  15.254  20.192  0.00  0.00    +0.000 C 
ATOM      4  N   UNL     1       0.473  13.933  20.768  0.00  0.00    +0.000 N 
ATOM      5  C   UNL     1      -0.473  13.361  21.636  0.00  0.00    +0.000 A 
ATOM      6  N   UNL     1      -1.412  14.238  22.118  0.00  0.00    +0.000 NA
ATOM      7  C   UNL     1      -2.384  13.637  22.841  0.00  0.00    +0.000 A 
ATOM      8  N   UNL     1      -3.461  14.217  23.363  0.00  0.00    +0.000 NA
ATOM      9  O   UNL     1      -4.167  13.179  23.971  0.00  0.00    +0.000 OA
ATOM     10  N   UNL     1      -3.505  11.958  23.852  0.00  0.00    +0.000 NA
ATOM     11  C   UNL     1      -2.410  12.242  23.149  0.00  0.00    +0.000 A 
ATOM     12  N   UNL     1      -1.464  11.360  22.756  0.00  0.00    +0.000 NA
ATOM     13  C   UNL     1      -0.514  11.907  21.943  0.00  0.00    +0.000 A 
ATOM     14  N   UNL     1       0.286  10.929  21.364  0.00  0.00    +0.000 N 
ATOM     15  C   UNL     1       0.719   9.779  22.178  0.00  0.00    +0.000 C 
ATOM     16  C   UNL     1       0.581   8.459  21.407  0.00  0.00    +0.000 C 
ATOM     17  S   UNL     1       1.590   8.418  19.887  0.00  0.00    +0.000 S 
ATOM     18  C   UNL     1       0.901   9.920  19.139  0.00  0.00    +0.000 C 
ATOM     19  C   UNL     1       0.957  11.104  20.091  0.00  0.00    +0.000 C 
ATOM     20  C   UNL     1       1.900  13.813  21.047  0.00  0.00    +0.000 C 
ATOM     21  C   UNL     1       2.605  13.706  19.687  0.00  0.00    +0.000 C 
ENDROOT
BRANCH   1  22
ATOM     22  C   UNL     1       3.380  15.910  18.877  0.00  0.00    +0.000 C 
BRANCH  22  25
ATOM     23  C   UNL     1       5.003  17.979  20.587  0.00  0.00    +0.000 C 
ATOM     24  C   UNL     1       4.547  16.565  20.980  0.00  0.00    +0.000 C 
ATOM     25  N   UNL     1       4.457  15.617  19.834  0.00  0.00    +0.000 NA
ATOM     26  C   UNL     1       5.764  15.671  19.124  0.00  0.00    +0.000 C 
ATOM     27  C   UNL     1       6.235  17.099  18.779  0.00  0.00    +0.000 C 
ATOM     28  O   UNL     1       6.277  17.945  19.931  0.00  0.00    +0.000 OA
ENDBRANCH  22  25
ENDBRANCH   1  22
TORSDOF 2
ENDMDL
MODEL 9
REMARK VINA RESULT:      -5.8      8.228      9.782
REMARK  Name = 
REMARK  2 active torsions:
REMARK  status: ('A' for Active; 'I' for Inactive)
REMARK    1  A    between atoms: N_3  and  C_4
REMARK    2  A    between atoms: C_4  and  C_5
REMARK                            x       y       z     vdW  Elec       q    Type
REMARK                         _______ _______ _______ _____ _____    ______ ____
ROOT
ATOM      1  C   UNL     1       8.150  12.268  25.018  0.00  0.00    +0.000 C 
ATOM      2  C   UNL     1       8.121  13.806  25.167  0.00  0.00    +0.000 C 
ATOM      3  C   UNL     1       7.243  14.569  24.163  0.00  0.00    +0.000 C 
ATOM      4  N   UNL     1       7.468  14.006  22.819  0.00  0.00    +0.000 N 
ATOM      5  C   UNL     1       7.323  14.869  21.719  0.00  0.00    +0.000 A 
ATOM      6  N   UNL     1       6.660  16.039  21.992  0.00  0.00    +0.000 NA
ATOM      7  C   UNL     1       6.652  16.905  20.954  0.00  0.00    +0.000 A 
ATOM      8  N   UNL     1       6.157  18.139  20.952  0.00  0.00    +0.000 NA
ATOM      9  O   UNL     1       6.428  18.631  19.675  0.00  0.00    +0.000 OA
ATOM     10  N   UNL     1       7.064  17.683  18.875  0.00  0.00    +0.000 NA
ATOM     11  C   UNL     1       7.207  16.622  19.668  0.00  0.00    +0.000 A 
ATOM     12  N   UNL     1       7.803  15.454  19.338  0.00  0.00    +0.000 NA
ATOM     13  C   UNL     1       7.917  14.586  20.385  0.00  0.00    +0.000 A 
ATOM     14  N   UNL     1       8.746  13.516  20.073  0.00  0.00    +0.000 N 
ATOM     15  C   UNL     1       8.657  12.904  18.734  0.00  0.00    +0.000 C 
ATOM     16  C   UNL     1      10.047  12.635  18.144  0.00  0.00    +0.000 C 
ATOM     17  S   UNL     1      11.042  11.493  19.164  0.00  0.00    +0.000 S 
ATOM     18  C   UNL     1      10.937  12.445  20.704  0.00  0.00    +0.000 C 
ATOM     19  C   UNL     1       9.499  12.779  21.068  0.00  0.00    +0.000 C 
ATOM     20  C   UNL     1       6.988  12.629  22.745  0.00  0.00    +0.000 C 
ATOM     21  C   UNL     1       7.963  11.782  23.576  0.00  0.00    +0.000 C 
ENDROOT
BRANCH   1  22
ATOM     22  C   UNL     1       7.172  11.486  25.901  0.00  0.00    +0.000 C 
BRANCH  22  25
ATOM     23  C   UNL     1       5.142  12.311  28.145  0.00  0.00    +0.000 C 
ATOM     24  C   UNL     1       5.202  12.794  26.687  0.00  0.00    +0.000 C 
ATOM     25  N   UNL     1       5.742  11.782  25.735  0.00  0.00    +0.000 NA
ATOM     26  C   UNL     1       4.961  10.533  25.943  0.00  0.00    +0.000 C 
ATOM     27  C   UNL     1       4.867  10.085  27.417  0.00  0.00    +0.000 C 
ATOM     28  O   UNL     1       4.355  11.120  28.261  0.00  0.00    +0.000 OA
ENDBRANCH  22  25
ENDBRANCH   1  22
TORSDOF 2
ENDMDL
