MODEL 1
REMARK VINA RESULT:      -7.2      0.000      0.000
REMARK  Name = 
REMARK  5 active torsions:
REMARK  status: ('A' for Active; 'I' for Inactive)
REMARK    1  A    between atoms: C_1  and  C_2
REMARK    2  A    between atoms: N_6  and  C_7
REMARK    3  A    between atoms: C_14  and  C_15
REMARK    4  A    between atoms: C_19  and  S_20
REMARK    5  A    between atoms: S_20  and  C_21
REMARK                            x       y       z     vdW  Elec       q    Type
REMARK                         _______ _______ _______ _____ _____    ______ ____
ROOT
ATOM      1  C   UNL     1       1.806   6.862  20.741  0.00  0.00    +0.000 A 
ATOM      2  N   UNL     1       0.946   7.359  21.665  0.00  0.00    +0.000 NA
ATOM      3  C   UNL     1       0.295   8.501  21.435  0.00  0.00    +0.000 A 
ATOM      4  N   UNL     1       0.387   9.260  20.352  0.00  0.00    +0.000 NA
ATOM      5  C   UNL     1       1.246   8.768  19.444  0.00  0.00    +0.000 A 
ATOM      6  S   UNL     1       1.503   9.632  18.005  0.00  0.00    +0.000 S 
ATOM      7  C   UNL     1       2.630   8.485  17.455  0.00  0.00    +0.000 A 
ATOM      8  C   UNL     1       2.806   7.423  18.329  0.00  0.00    +0.000 A 
ATOM      9  C   UNL     1       1.988   7.590  19.533  0.00  0.00    +0.000 A 
ENDROOT
BRANCH   1  15
ATOM     10  C   UNL     1       3.733   1.360  19.304  0.00  0.00    +0.000 C 
ATOM     11  C   UNL     1       2.785   2.471  19.561  0.00  0.00    +0.000 A 
ATOM     12  C   UNL     1       1.473   2.542  19.135  0.00  0.00    +0.000 A 
ATOM     13  S   UNL     1       0.772   4.005  19.654  0.00  0.00    +0.000 S 
ATOM     14  C   UNL     1       2.281   4.491  20.358  0.00  0.00    +0.000 A 
ATOM     15  N   UNL     1       2.455   5.657  21.027  0.00  0.00    +0.000 N 
ATOM     16  N   UNL     1       3.217   3.567  20.294  0.00  0.00    +0.000 NA
ATOM     17  H   UNL     1       3.324   5.768  21.531  0.00  0.00    +0.000 HD
ENDBRANCH   1  15
BRANCH   8  18
ATOM     18  C   UNL     1       3.728   6.339  17.954  0.00  0.00    +0.000 A 
ATOM     19  C   UNL     1       3.320   5.279  17.135  0.00  0.00    +0.000 A 
ATOM     20  C   UNL     1       4.225   4.300  16.708  0.00  0.00    +0.000 A 
ATOM     21  C   UNL     1       5.542   4.321  17.158  0.00  0.00    +0.000 A 
ATOM     22  C   UNL     1       5.942   5.332  18.030  0.00  0.00    +0.000 A 
ATOM     23  C   UNL     1       5.052   6.338  18.424  0.00  0.00    +0.000 A 
BRANCH  22  24
ATOM     24  S   UNL     1       7.589   5.320  18.697  0.00  0.00    +0.000 S 
ATOM     25  C   UNL     1       8.165   6.963  18.370  0.00  0.00    +0.000 C 
ATOM     26  O   UNL     1       7.471   5.155  20.133  0.00  0.00    +0.000 OA
ATOM     27  O   UNL     1       8.376   4.398  17.903  0.00  0.00    +0.000 OA
ENDBRANCH  22  24
ENDBRANCH   8  18
TORSDOF 3
ENDMDL
MODEL 2
REMARK VINA RESULT:      -6.1      7.144     11.375
REMARK  Name = 
REMARK  5 active torsions:
REMARK  status: ('A' for Active; 'I' for Inactive)
REMARK    1  A    between atoms: C_1  and  C_2
REMARK    2  A    between atoms: N_6  and  C_7
REMARK    3  A    between atoms: C_14  and  C_15
REMARK    4  A    between atoms: C_19  and  S_20
REMARK    5  A    between atoms: S_20  and  C_21
REMARK                            x       y       z     vdW  Elec       q    Type
REMARK                         _______ _______ _______ _____ _____    ______ ____
ROOT
ATOM      1  C   UNL     1      -0.185  11.896  19.788  0.00  0.00    +0.000 A 
ATOM      2  N   UNL     1       0.498  11.377  18.737  0.00  0.00    +0.000 NA
ATOM      3  C   UNL     1       1.040  10.161  18.820  0.00  0.00    +0.000 A 
ATOM      4  N   UNL     1       0.996   9.344  19.864  0.00  0.00    +0.000 NA
ATOM      5  C   UNL     1       0.327   9.866  20.905  0.00  0.00    +0.000 A 
ATOM      6  S   UNL     1       0.197   8.959  22.334  0.00  0.00    +0.000 S 
ATOM      7  C   UNL     1      -0.680  10.196  23.102  0.00  0.00    +0.000 A 
ATOM      8  C   UNL     1      -0.913  11.294  22.287  0.00  0.00    +0.000 A 
ATOM      9  C   UNL     1      -0.302  11.109  20.968  0.00  0.00    +0.000 A 
ENDROOT
BRANCH   1  15
ATOM     10  C   UNL     1       0.062  17.699  18.268  0.00  0.00    +0.000 C 
ATOM     11  C   UNL     1       0.381  16.442  18.989  0.00  0.00    +0.000 A 
ATOM     12  C   UNL     1       1.515  16.193  19.735  0.00  0.00    +0.000 A 
ATOM     13  S   UNL     1       1.457  14.612  20.369  0.00  0.00    +0.000 S 
ATOM     14  C   UNL     1      -0.048  14.329  19.553  0.00  0.00    +0.000 A 
ATOM     15  N   UNL     1      -0.743  13.170  19.646  0.00  0.00    +0.000 N 
ATOM     16  N   UNL     1      -0.521  15.389  18.931  0.00  0.00    +0.000 NA
ATOM     17  H   UNL     1      -1.679  13.168  19.263  0.00  0.00    +0.000 HD
ENDBRANCH   1  15
BRANCH   8  18
ATOM     18  C   UNL     1      -1.696  12.421  22.818  0.00  0.00    +0.000 A 
ATOM     19  C   UNL     1      -1.081  13.603  23.249  0.00  0.00    +0.000 A 
ATOM     20  C   UNL     1      -1.837  14.705  23.668  0.00  0.00    +0.000 A 
ATOM     21  C   UNL     1      -3.224  14.616  23.737  0.00  0.00    +0.000 A 
ATOM     22  C   UNL     1      -3.843  13.420  23.378  0.00  0.00    +0.000 A 
ATOM     23  C   UNL     1      -3.094  12.331  22.916  0.00  0.00    +0.000 A 
BRANCH  22  24
ATOM     24  S   UNL     1      -5.602  13.250  23.557  0.00  0.00    +0.000 S 
ATOM     25  C   UNL     1      -6.131  12.815  21.923  0.00  0.00    +0.000 C 
ATOM     26  O   UNL     1      -5.840  12.116  24.429  0.00  0.00    +0.000 OA
ATOM     27  O   UNL     1      -6.139  14.559  23.873  0.00  0.00    +0.000 OA
ENDBRANCH  22  24
ENDBRANCH   8  18
TORSDOF 3
ENDMDL
MODEL 3
REMARK VINA RESULT:      -6.0      3.564      6.315
REMARK  Name = 
REMARK  5 active torsions:
REMARK  status: ('A' for Active; 'I' for Inactive)
REMARK    1  A    between atoms: C_1  and  C_2
REMARK    2  A    between atoms: N_6  and  C_7
REMARK    3  A    between atoms: C_14  and  C_15
REMARK    4  A    between atoms: C_19  and  S_20
REMARK    5  A    between atoms: S_20  and  C_21
REMARK                            x       y       z     vdW  Elec       q    Type
REMARK                         _______ _______ _______ _____ _____    ______ ____
ROOT
ATOM      1  C   UNL     1       3.484   3.448  17.949  0.00  0.00    +0.000 A 
ATOM      2  N   UNL     1       3.743   2.122  17.827  0.00  0.00    +0.000 NA
ATOM      3  C   UNL     1       3.411   1.278  18.807  0.00  0.00    +0.000 A 
ATOM      4  N   UNL     1       2.826   1.589  19.955  0.00  0.00    +0.000 NA
ATOM      5  C   UNL     1       2.581   2.904  20.074  0.00  0.00    +0.000 A 
ATOM      6  S   UNL     1       1.857   3.478  21.499  0.00  0.00    +0.000 S 
ATOM      7  C   UNL     1       1.903   5.082  20.939  0.00  0.00    +0.000 A 
ATOM      8  C   UNL     1       2.435   5.206  19.665  0.00  0.00    +0.000 A 
ATOM      9  C   UNL     1       2.856   3.904  19.141  0.00  0.00    +0.000 A 
ENDROOT
BRANCH   1  15
ATOM     10  C   UNL     1       7.184   5.261  13.581  0.00  0.00    +0.000 C 
ATOM     11  C   UNL     1       6.707   4.952  14.951  0.00  0.00    +0.000 A 
ATOM     12  C   UNL     1       7.495   4.768  16.070  0.00  0.00    +0.000 A 
ATOM     13  S   UNL     1       6.515   4.422  17.420  0.00  0.00    +0.000 S 
ATOM     14  C   UNL     1       5.099   4.470  16.418  0.00  0.00    +0.000 A 
ATOM     15  N   UNL     1       3.842   4.288  16.890  0.00  0.00    +0.000 N 
ATOM     16  N   UNL     1       5.343   4.823  15.174  0.00  0.00    +0.000 NA
ATOM     17  H   UNL     1       3.083   4.493  16.255  0.00  0.00    +0.000 HD
ENDBRANCH   1  15
BRANCH   8  18
ATOM     18  C   UNL     1       2.497   6.540  19.046  0.00  0.00    +0.000 A 
ATOM     19  C   UNL     1       3.359   6.813  17.976  0.00  0.00    +0.000 A 
ATOM     20  C   UNL     1       3.348   8.058  17.334  0.00  0.00    +0.000 A 
ATOM     21  C   UNL     1       2.527   9.079  17.802  0.00  0.00    +0.000 A 
ATOM     22  C   UNL     1       1.716   8.841  18.911  0.00  0.00    +0.000 A 
ATOM     23  C   UNL     1       1.691   7.585  19.528  0.00  0.00    +0.000 A 
BRANCH  22  24
ATOM     24  S   UNL     1       0.738  10.160  19.587  0.00  0.00    +0.000 S 
ATOM     25  C   UNL     1       0.796   9.849  21.330  0.00  0.00    +0.000 C 
ATOM     26  O   UNL     1       1.442  11.400  19.321  0.00  0.00    +0.000 OA
ATOM     27  O   UNL     1      -0.627   9.968  19.138  0.00  0.00    +0.000 OA
ENDBRANCH  22  24
ENDBRANCH   8  18
TORSDOF 3
ENDMDL
MODEL 4
REMARK VINA RESULT:      -5.9      6.058      9.274
REMARK  Name = 
REMARK  5 active torsions:
REMARK  status: ('A' for Active; 'I' for Inactive)
REMARK    1  A    between atoms: C_1  and  C_2
REMARK    2  A    between atoms: N_6  and  C_7
REMARK    3  A    between atoms: C_14  and  C_15
REMARK    4  A    between atoms: C_19  and  S_20
REMARK    5  A    between atoms: S_20  and  C_21
REMARK                            x       y       z     vdW  Elec       q    Type
REMARK                         _______ _______ _______ _____ _____    ______ ____
ROOT
ATOM      1  C   UNL     1      -4.333  12.350  19.009  0.00  0.00    +0.000 A 
ATOM      2  N   UNL     1      -5.637  12.624  18.755  0.00  0.00    +0.000 NA
ATOM      3  C   UNL     1      -6.197  12.235  17.608  0.00  0.00    +0.000 A 
ATOM      4  N   UNL     1      -5.605  11.574  16.623  0.00  0.00    +0.000 NA
ATOM      5  C   UNL     1      -4.312  11.313  16.875  0.00  0.00    +0.000 A 
ATOM      6  S   UNL     1      -3.397  10.494  15.703  0.00  0.00    +0.000 S 
ATOM      7  C   UNL     1      -1.999  10.566  16.667  0.00  0.00    +0.000 A 
ATOM      8  C   UNL     1      -2.207  11.179  17.894  0.00  0.00    +0.000 A 
ATOM      9  C   UNL     1      -3.592  11.642  18.023  0.00  0.00    +0.000 A 
ENDROOT
BRANCH   1  15
ATOM     10  C   UNL     1      -4.263  12.609  25.007  0.00  0.00    +0.000 C 
ATOM     11  C   UNL     1      -4.755  12.791  23.620  0.00  0.00    +0.000 A 
ATOM     12  C   UNL     1      -6.059  13.039  23.240  0.00  0.00    +0.000 A 
ATOM     13  S   UNL     1      -6.156  13.165  21.544  0.00  0.00    +0.000 S 
ATOM     14  C   UNL     1      -4.463  12.812  21.410  0.00  0.00    +0.000 A 
ATOM     15  N   UNL     1      -3.798  12.770  20.230  0.00  0.00    +0.000 N 
ATOM     16  N   UNL     1      -3.850  12.708  22.571  0.00  0.00    +0.000 NA
ATOM     17  H   UNL     1      -2.789  12.714  20.277  0.00  0.00    +0.000 HD
ENDBRANCH   1  15
BRANCH   8  18
ATOM     18  C   UNL     1      -1.085  11.273  18.842  0.00  0.00    +0.000 A 
ATOM     19  C   UNL     1      -0.245  12.393  18.876  0.00  0.00    +0.000 A 
ATOM     20  C   UNL     1       0.763  12.515  19.840  0.00  0.00    +0.000 A 
ATOM     21  C   UNL     1       1.000  11.481  20.740  0.00  0.00    +0.000 A 
ATOM     22  C   UNL     1       0.216  10.331  20.670  0.00  0.00    +0.000 A 
ATOM     23  C   UNL     1      -0.822  10.223  19.737  0.00  0.00    +0.000 A 
BRANCH  22  24
ATOM     24  S   UNL     1       0.567   8.958  21.741  0.00  0.00    +0.000 S 
ATOM     25  C   UNL     1       1.538   7.888  20.715  0.00  0.00    +0.000 C 
ATOM     26  O   UNL     1       1.410   9.451  22.813  0.00  0.00    +0.000 OA
ATOM     27  O   UNL     1      -0.689   8.293  22.027  0.00  0.00    +0.000 OA
ENDBRANCH  22  24
ENDBRANCH   8  18
TORSDOF 3
ENDMDL
MODEL 5
REMARK VINA RESULT:      -5.9      7.132     10.427
REMARK  Name = 
REMARK  5 active torsions:
REMARK  status: ('A' for Active; 'I' for Inactive)
REMARK    1  A    between atoms: C_1  and  C_2
REMARK    2  A    between atoms: N_6  and  C_7
REMARK    3  A    between atoms: C_14  and  C_15
REMARK    4  A    between atoms: C_19  and  S_20
REMARK    5  A    between atoms: S_20  and  C_21
REMARK                            x       y       z     vdW  Elec       q    Type
REMARK                         _______ _______ _______ _____ _____    ______ ____
ROOT
ATOM      1  C   UNL     1      -5.792  13.006  21.969  0.00  0.00    +0.000 A 
ATOM      2  N   UNL     1      -7.084  13.276  22.280  0.00  0.00    +0.000 NA
ATOM      3  C   UNL     1      -7.378  14.214  23.183  0.00  0.00    +0.000 A 
ATOM      4  N   UNL     1      -6.515  14.962  23.857  0.00  0.00    +0.000 NA
ATOM      5  C   UNL     1      -5.237  14.685  23.552  0.00  0.00    +0.000 A 
ATOM      6  S   UNL     1      -4.001  15.535  24.346  0.00  0.00    +0.000 S 
ATOM      7  C   UNL     1      -2.798  14.673  23.510  0.00  0.00    +0.000 A 
ATOM      8  C   UNL     1      -3.307  13.756  22.603  0.00  0.00    +0.000 A 
ATOM      9  C   UNL     1      -4.773  13.748  22.629  0.00  0.00    +0.000 A 
ENDROOT
BRANCH   1  15
ATOM     10  C   UNL     1      -4.376  11.187  16.425  0.00  0.00    +0.000 C 
ATOM     11  C   UNL     1      -5.145  11.838  17.514  0.00  0.00    +0.000 A 
ATOM     12  C   UNL     1      -6.115  12.808  17.364  0.00  0.00    +0.000 A 
ATOM     13  S   UNL     1      -6.718  13.269  18.889  0.00  0.00    +0.000 S 
ATOM     14  C   UNL     1      -5.599  12.195  19.667  0.00  0.00    +0.000 A 
ATOM     15  N   UNL     1      -5.537  12.021  21.010  0.00  0.00    +0.000 N 
ATOM     16  N   UNL     1      -4.892  11.467  18.827  0.00  0.00    +0.000 NA
ATOM     17  H   UNL     1      -4.963  11.260  21.345  0.00  0.00    +0.000 HD
ENDBRANCH   1  15
BRANCH   8  18
ATOM     18  C   UNL     1      -2.370  12.969  21.785  0.00  0.00    +0.000 A 
ATOM     19  C   UNL     1      -2.232  13.192  20.409  0.00  0.00    +0.000 A 
ATOM     20  C   UNL     1      -1.274  12.503  19.655  0.00  0.00    +0.000 A 
ATOM     21  C   UNL     1      -0.489  11.520  20.250  0.00  0.00    +0.000 A 
ATOM     22  C   UNL     1      -0.668  11.240  21.603  0.00  0.00    +0.000 A 
ATOM     23  C   UNL     1      -1.592  11.958  22.372  0.00  0.00    +0.000 A 
BRANCH  22  24
ATOM     24  S   UNL     1       0.250   9.920  22.359  0.00  0.00    +0.000 S 
ATOM     25  C   UNL     1      -0.453   8.471  21.622  0.00  0.00    +0.000 C 
ATOM     26  O   UNL     1       1.624  10.038  21.910  0.00  0.00    +0.000 OA
ATOM     27  O   UNL     1      -0.075   9.913  23.771  0.00  0.00    +0.000 OA
ENDBRANCH  22  24
ENDBRANCH   8  18
TORSDOF 3
ENDMDL
MODEL 6
REMARK VINA RESULT:      -5.9      7.645     11.418
REMARK  Name = 
REMARK  5 active torsions:
REMARK  status: ('A' for Active; 'I' for Inactive)
REMARK    1  A    between atoms: C_1  and  C_2
REMARK    2  A    between atoms: N_6  and  C_7
REMARK    3  A    between atoms: C_14  and  C_15
REMARK    4  A    between atoms: C_19  and  S_20
REMARK    5  A    between atoms: S_20  and  C_21
REMARK                            x       y       z     vdW  Elec       q    Type
REMARK                         _______ _______ _______ _____ _____    ______ ____
ROOT
ATOM      1  C   UNL     1      -1.529  12.360  19.863  0.00  0.00    +0.000 A 
ATOM      2  N   UNL     1      -1.179  11.965  18.614  0.00  0.00    +0.000 NA
ATOM      3  C   UNL     1      -0.534  10.812  18.428  0.00  0.00    +0.000 A 
ATOM      4  N   UNL     1      -0.167   9.949  19.366  0.00  0.00    +0.000 NA
ATOM      5  C   UNL     1      -0.507  10.349  20.602  0.00  0.00    +0.000 A 
ATOM      6  S   UNL     1      -0.089   9.372  21.925  0.00  0.00    +0.000 S 
ATOM      7  C   UNL     1      -0.776  10.472  23.023  0.00  0.00    +0.000 A 
ATOM      8  C   UNL     1      -1.355  11.573  22.410  0.00  0.00    +0.000 A 
ATOM      9  C   UNL     1      -1.189  11.514  20.956  0.00  0.00    +0.000 A 
ENDROOT
BRANCH   1  15
ATOM     10  C   UNL     1      -5.920  15.790  22.100  0.00  0.00    +0.000 C 
ATOM     11  C   UNL     1      -5.271  14.690  21.345  0.00  0.00    +0.000 A 
ATOM     12  C   UNL     1      -5.875  13.526  20.914  0.00  0.00    +0.000 A 
ATOM     13  S   UNL     1      -4.741  12.551  20.097  0.00  0.00    +0.000 S 
ATOM     14  C   UNL     1      -3.492  13.709  20.427  0.00  0.00    +0.000 A 
ATOM     15  N   UNL     1      -2.213  13.571  20.003  0.00  0.00    +0.000 N 
ATOM     16  N   UNL     1      -3.926  14.801  21.022  0.00  0.00    +0.000 NA
ATOM     17  H   UNL     1      -1.608  14.374  20.112  0.00  0.00    +0.000 HD
ENDBRANCH   1  15
BRANCH   8  18
ATOM     18  C   UNL     1      -2.020  12.585  23.247  0.00  0.00    +0.000 A 
ATOM     19  C   UNL     1      -3.324  12.402  23.722  0.00  0.00    +0.000 A 
ATOM     20  C   UNL     1      -3.917  13.326  24.591  0.00  0.00    +0.000 A 
ATOM     21  C   UNL     1      -3.243  14.492  24.939  0.00  0.00    +0.000 A 
ATOM     22  C   UNL     1      -1.971  14.719  24.416  0.00  0.00    +0.000 A 
ATOM     23  C   UNL     1      -1.357  13.777  23.582  0.00  0.00    +0.000 A 
BRANCH  22  24
ATOM     24  S   UNL     1      -1.134  16.246  24.764  0.00  0.00    +0.000 S 
ATOM     25  C   UNL     1      -0.403  16.667  23.206  0.00  0.00    +0.000 C 
ATOM     26  O   UNL     1      -2.150  17.235  25.072  0.00  0.00    +0.000 OA
ATOM     27  O   UNL     1      -0.067  15.958  25.701  0.00  0.00    +0.000 OA
ENDBRANCH  22  24
ENDBRANCH   8  18
TORSDOF 3
ENDMDL
MODEL 7
REMARK VINA RESULT:      -5.9      7.851     11.443
REMARK  Name = 
REMARK  5 active torsions:
REMARK  status: ('A' for Active; 'I' for Inactive)
REMARK    1  A    between atoms: C_1  and  C_2
REMARK    2  A    between atoms: N_6  and  C_7
REMARK    3  A    between atoms: C_14  and  C_15
REMARK    4  A    between atoms: C_19  and  S_20
REMARK    5  A    between atoms: S_20  and  C_21
REMARK                            x       y       z     vdW  Elec       q    Type
REMARK                         _______ _______ _______ _____ _____    ______ ____
ROOT
ATOM      1  C   UNL     1      -2.248  12.339  19.632  0.00  0.00    +0.000 A 
ATOM      2  N   UNL     1      -2.128  11.946  18.340  0.00  0.00    +0.000 NA
ATOM      3  C   UNL     1      -1.355  10.906  18.021  0.00  0.00    +0.000 A 
ATOM      4  N   UNL     1      -0.646  10.161  18.858  0.00  0.00    +0.000 NA
ATOM      5  C   UNL     1      -0.761  10.560  20.135  0.00  0.00    +0.000 A 
ATOM      6  S   UNL     1       0.105   9.729  21.336  0.00  0.00    +0.000 S 
ATOM      7  C   UNL     1      -0.494  10.755  22.552  0.00  0.00    +0.000 A 
ATOM      8  C   UNL     1      -1.374  11.715  22.078  0.00  0.00    +0.000 A 
ATOM      9  C   UNL     1      -1.533  11.614  20.625  0.00  0.00    +0.000 A 
ENDROOT
BRANCH   1  15
ATOM     10  C   UNL     1      -7.078  14.866  22.151  0.00  0.00    +0.000 C 
ATOM     11  C   UNL     1      -6.282  13.972  21.275  0.00  0.00    +0.000 A 
ATOM     12  C   UNL     1      -6.728  12.820  20.659  0.00  0.00    +0.000 A 
ATOM     13  S   UNL     1      -5.465  12.115  19.759  0.00  0.00    +0.000 S 
ATOM     14  C   UNL     1      -4.375  13.351  20.300  0.00  0.00    +0.000 A 
ATOM     15  N   UNL     1      -3.079  13.428  19.914  0.00  0.00    +0.000 N 
ATOM     16  N   UNL     1      -4.953  14.286  21.026  0.00  0.00    +0.000 NA
ATOM     17  H   UNL     1      -2.579  14.272  20.159  0.00  0.00    +0.000 HD
ENDBRANCH   1  15
BRANCH   8  18
ATOM     18  C   UNL     1      -1.996  12.645  23.035  0.00  0.00    +0.000 A 
ATOM     19  C   UNL     1      -3.288  12.433  23.531  0.00  0.00    +0.000 A 
ATOM     20  C   UNL     1      -3.838  13.270  24.509  0.00  0.00    +0.000 A 
ATOM     21  C   UNL     1      -3.132  14.384  24.954  0.00  0.00    +0.000 A 
ATOM     22  C   UNL     1      -1.873  14.645  24.416  0.00  0.00    +0.000 A 
ATOM     23  C   UNL     1      -1.301  13.785  23.471  0.00  0.00    +0.000 A 
BRANCH  22  24
ATOM     24  S   UNL     1      -0.999  16.116  24.893  0.00  0.00    +0.000 S 
ATOM     25  C   UNL     1      -2.300  17.217  25.376  0.00  0.00    +0.000 C 
ATOM     26  O   UNL     1      -0.217  15.790  26.071  0.00  0.00    +0.000 OA
ATOM     27  O   UNL     1      -0.367  16.655  23.705  0.00  0.00    +0.000 OA
ENDBRANCH  22  24
ENDBRANCH   8  18
TORSDOF 3
ENDMDL
MODEL 8
REMARK VINA RESULT:      -5.9      6.299      9.787
REMARK  Name = 
REMARK  5 active torsions:
REMARK  status: ('A' for Active; 'I' for Inactive)
REMARK    1  A    between atoms: C_1  and  C_2
REMARK    2  A    between atoms: N_6  and  C_7
REMARK    3  A    between atoms: C_14  and  C_15
REMARK    4  A    between atoms: C_19  and  S_20
REMARK    5  A    between atoms: S_20  and  C_21
REMARK                            x       y       z     vdW  Elec       q    Type
REMARK                         _______ _______ _______ _____ _____    ______ ____
ROOT
ATOM      1  C   UNL     1      -4.622  12.360  19.922  0.00  0.00    +0.000 A 
ATOM      2  N   UNL     1      -5.964  12.557  19.900  0.00  0.00    +0.000 NA
ATOM      3  C   UNL     1      -6.662  12.309  18.791  0.00  0.00    +0.000 A 
ATOM      4  N   UNL     1      -6.183  11.870  17.635  0.00  0.00    +0.000 NA
ATOM      5  C   UNL     1      -4.853  11.685  17.660  0.00  0.00    +0.000 A 
ATOM      6  S   UNL     1      -4.073  11.149  16.251  0.00  0.00    +0.000 S 
ATOM      7  C   UNL     1      -2.554  11.187  17.013  0.00  0.00    +0.000 A 
ATOM      8  C   UNL     1      -2.616  11.574  18.343  0.00  0.00    +0.000 A 
ATOM      9  C   UNL     1      -3.992  11.887  18.738  0.00  0.00    +0.000 A 
ENDROOT
BRANCH   1  15
ATOM     10  C   UNL     1      -3.560  15.589  24.872  0.00  0.00    +0.000 C 
ATOM     11  C   UNL     1      -3.674  15.265  23.429  0.00  0.00    +0.000 A 
ATOM     12  C   UNL     1      -3.764  16.171  22.392  0.00  0.00    +0.000 A 
ATOM     13  S   UNL     1      -3.889  15.344  20.907  0.00  0.00    +0.000 S 
ATOM     14  C   UNL     1      -3.884  13.824  21.742  0.00  0.00    +0.000 A 
ATOM     15  N   UNL     1      -3.938  12.624  21.113  0.00  0.00    +0.000 N 
ATOM     16  N   UNL     1      -3.698  13.933  23.041  0.00  0.00    +0.000 NA
ATOM     17  H   UNL     1      -3.769  11.805  21.680  0.00  0.00    +0.000 HD
ENDBRANCH   1  15
BRANCH   8  18
ATOM     18  C   UNL     1      -1.373  11.613  19.131  0.00  0.00    +0.000 A 
ATOM     19  C   UNL     1      -0.534  12.734  19.124  0.00  0.00    +0.000 A 
ATOM     20  C   UNL     1       0.598  12.799  19.945  0.00  0.00    +0.000 A 
ATOM     21  C   UNL     1       0.955  11.708  20.733  0.00  0.00    +0.000 A 
ATOM     22  C   UNL     1       0.166  10.560  20.695  0.00  0.00    +0.000 A 
ATOM     23  C   UNL     1      -0.991  10.507  19.909  0.00  0.00    +0.000 A 
BRANCH  22  24
ATOM     24  S   UNL     1       0.659   9.121  21.612  0.00  0.00    +0.000 S 
ATOM     25  C   UNL     1       1.595   8.193  20.429  0.00  0.00    +0.000 C 
ATOM     26  O   UNL     1       1.560   9.565  22.659  0.00  0.00    +0.000 OA
ATOM     27  O   UNL     1      -0.540   8.372  21.929  0.00  0.00    +0.000 OA
ENDBRANCH  22  24
ENDBRANCH   8  18
TORSDOF 3
ENDMDL
MODEL 9
REMARK VINA RESULT:      -5.8      6.256      9.606
REMARK  Name = 
REMARK  5 active torsions:
REMARK  status: ('A' for Active; 'I' for Inactive)
REMARK    1  A    between atoms: C_1  and  C_2
REMARK    2  A    between atoms: N_6  and  C_7
REMARK    3  A    between atoms: C_14  and  C_15
REMARK    4  A    between atoms: C_19  and  S_20
REMARK    5  A    between atoms: S_20  and  C_21
REMARK                            x       y       z     vdW  Elec       q    Type
REMARK                         _______ _______ _______ _____ _____    ______ ____
ROOT
ATOM      1  C   UNL     1      -0.111  11.578  22.075  0.00  0.00    +0.000 A 
ATOM      2  N   UNL     1      -0.347  10.613  22.998  0.00  0.00    +0.000 NA
ATOM      3  C   UNL     1      -0.093   9.334  22.715  0.00  0.00    +0.000 A 
ATOM      4  N   UNL     1       0.389   8.856  21.576  0.00  0.00    +0.000 NA
ATOM      5  C   UNL     1       0.612   9.814  20.663  0.00  0.00    +0.000 A 
ATOM      6  S   UNL     1       1.207   9.371  19.136  0.00  0.00    +0.000 S 
ATOM      7  C   UNL     1       1.195  10.985  18.603  0.00  0.00    +0.000 A 
ATOM      8  C   UNL     1       0.773  11.882  19.573  0.00  0.00    +0.000 A 
ATOM      9  C   UNL     1       0.410  11.186  20.810  0.00  0.00    +0.000 A 
ENDROOT
BRANCH   1  15
ATOM     10  C   UNL     1      -2.819  15.777  25.405  0.00  0.00    +0.000 C 
ATOM     11  C   UNL     1      -2.671  14.635  24.470  0.00  0.00    +0.000 A 
ATOM     12  C   UNL     1      -3.652  13.727  24.126  0.00  0.00    +0.000 A 
ATOM     13  S   UNL     1      -3.025  12.583  23.029  0.00  0.00    +0.000 S 
ATOM     14  C   UNL     1      -1.462  13.327  23.130  0.00  0.00    +0.000 A 
ATOM     15  N   UNL     1      -0.384  12.904  22.425  0.00  0.00    +0.000 N 
ATOM     16  N   UNL     1      -1.442  14.422  23.861  0.00  0.00    +0.000 NA
ATOM     17  H   UNL     1       0.431  13.502  22.436  0.00  0.00    +0.000 HD
ENDBRANCH   1  15
BRANCH   8  18
ATOM     18  C   UNL     1       0.753  13.318  19.252  0.00  0.00    +0.000 A 
ATOM     19  C   UNL     1      -0.437  14.056  19.267  0.00  0.00    +0.000 A 
ATOM     20  C   UNL     1      -0.437  15.439  19.051  0.00  0.00    +0.000 A 
ATOM     21  C   UNL     1       0.749  16.098  18.738  0.00  0.00    +0.000 A 
ATOM     22  C   UNL     1       1.928  15.362  18.651  0.00  0.00    +0.000 A 
ATOM     23  C   UNL     1       1.940  13.986  18.910  0.00  0.00    +0.000 A 
BRANCH  22  24
ATOM     24  S   UNL     1       3.433  16.164  18.152  0.00  0.00    +0.000 S 
ATOM     25  C   UNL     1       4.089  16.770  19.682  0.00  0.00    +0.000 C 
ATOM     26  O   UNL     1       4.324  15.136  17.650  0.00  0.00    +0.000 OA
ATOM     27  O   UNL     1       3.071  17.303  17.332  0.00  0.00    +0.000 OA
ENDBRANCH  22  24
ENDBRANCH   8  18
TORSDOF 3
ENDMDL
