MODEL 1
REMARK VINA RESULT:      -6.9      0.000      0.000
REMARK  Name = 
REMARK  2 active torsions:
REMARK  status: ('A' for Active; 'I' for Inactive)
REMARK    1  A    between atoms: O_1  and  C_2
REMARK    2  A    between atoms: C_5  and  N_6
REMARK                            x       y       z     vdW  Elec       q    Type
REMARK                         _______ _______ _______ _____ _____    ______ ____
ROOT
ATOM      1  C   UNL     1       2.884   3.063  21.044  0.00  0.00    +0.000 A 
ATOM      2  N   UNL     1       3.814   2.191  20.621  0.00  0.00    +0.000 NA
ATOM      3  N   UNL     1       4.701   2.587  19.679  0.00  0.00    +0.000 NA
ATOM      4  C   UNL     1       4.672   3.865  19.204  0.00  0.00    +0.000 A 
ATOM      5  C   UNL     1       3.674   4.802  19.586  0.00  0.00    +0.000 A 
ATOM      6  C   UNL     1       3.480   6.104  19.050  0.00  0.00    +0.000 A 
ATOM      7  C   UNL     1       2.427   6.928  19.454  0.00  0.00    +0.000 A 
ATOM      8  C   UNL     1       1.536   6.483  20.418  0.00  0.00    +0.000 A 
ATOM      9  C   UNL     1       1.695   5.214  20.969  0.00  0.00    +0.000 A 
ATOM     10  C   UNL     1       2.745   4.362  20.553  0.00  0.00    +0.000 A 
ENDROOT
BRANCH   4  11
ATOM     11  N   UNL     1       5.708   4.192  18.291  0.00  0.00    +0.000 N 
ATOM     12  C   UNL     1       5.628   4.149  16.919  0.00  0.00    +0.000 A 
ATOM     13  N   UNL     1       6.783   4.466  16.379  0.00  0.00    +0.000 NA
ATOM     14  C   UNL     1       7.573   4.674  17.466  0.00  0.00    +0.000 A 
ATOM     15  N   UNL     1       6.971   4.542  18.648  0.00  0.00    +0.000 NA
ENDBRANCH   4  11
BRANCH   1  16
ATOM     16  O   UNL     1       2.036   2.563  21.988  0.00  0.00    +0.000 OA
ATOM     17  H   UNL     1       2.021   1.615  21.750  0.00  0.00    +0.000 HD
ENDBRANCH   1  16
TORSDOF 2
ENDMDL
MODEL 2
REMARK VINA RESULT:      -6.8      2.978      5.231
REMARK  Name = 
REMARK  2 active torsions:
REMARK  status: ('A' for Active; 'I' for Inactive)
REMARK    1  A    between atoms: O_1  and  C_2
REMARK    2  A    between atoms: C_5  and  N_6
REMARK                            x       y       z     vdW  Elec       q    Type
REMARK                         _______ _______ _______ _____ _____    ______ ____
ROOT
ATOM      1  C   UNL     1       6.887   5.296  18.584  0.00  0.00    +0.000 A 
ATOM      2  N   UNL     1       6.084   5.191  19.656  0.00  0.00    +0.000 NA
ATOM      3  N   UNL     1       4.851   4.656  19.498  0.00  0.00    +0.000 NA
ATOM      4  C   UNL     1       4.455   4.193  18.278  0.00  0.00    +0.000 A 
ATOM      5  C   UNL     1       5.253   4.333  17.110  0.00  0.00    +0.000 A 
ATOM      6  C   UNL     1       4.876   4.006  15.779  0.00  0.00    +0.000 A 
ATOM      7  C   UNL     1       5.718   4.238  14.687  0.00  0.00    +0.000 A 
ATOM      8  C   UNL     1       6.971   4.794  14.891  0.00  0.00    +0.000 A 
ATOM      9  C   UNL     1       7.377   5.123  16.182  0.00  0.00    +0.000 A 
ATOM     10  C   UNL     1       6.527   4.914  17.292  0.00  0.00    +0.000 A 
ENDROOT
BRANCH   4  11
ATOM     11  N   UNL     1       3.182   3.568  18.254  0.00  0.00    +0.000 N 
ATOM     12  C   UNL     1       1.986   4.167  17.931  0.00  0.00    +0.000 A 
ATOM     13  N   UNL     1       0.994   3.316  18.058  0.00  0.00    +0.000 NA
ATOM     14  C   UNL     1       1.620   2.191  18.497  0.00  0.00    +0.000 A 
ATOM     15  N   UNL     1       2.945   2.280  18.615  0.00  0.00    +0.000 NA
ENDBRANCH   4  11
BRANCH   1  16
ATOM     16  O   UNL     1       8.103   5.854  18.850  0.00  0.00    +0.000 OA
ATOM     17  H   UNL     1       8.399   6.107  17.953  0.00  0.00    +0.000 HD
ENDBRANCH   1  16
TORSDOF 2
ENDMDL
MODEL 3
REMARK VINA RESULT:      -6.8      1.300      1.834
REMARK  Name = 
REMARK  2 active torsions:
REMARK  status: ('A' for Active; 'I' for Inactive)
REMARK    1  A    between atoms: O_1  and  C_2
REMARK    2  A    between atoms: C_5  and  N_6
REMARK                            x       y       z     vdW  Elec       q    Type
REMARK                         _______ _______ _______ _____ _____    ______ ____
ROOT
ATOM      1  C   UNL     1       3.009   4.498  20.201  0.00  0.00    +0.000 A 
ATOM      2  N   UNL     1       3.738   3.396  19.961  0.00  0.00    +0.000 NA
ATOM      3  N   UNL     1       4.605   3.400  18.922  0.00  0.00    +0.000 NA
ATOM      4  C   UNL     1       4.763   4.523  18.165  0.00  0.00    +0.000 A 
ATOM      5  C   UNL     1       3.976   5.692  18.354  0.00  0.00    +0.000 A 
ATOM      6  C   UNL     1       3.973   6.855  17.538  0.00  0.00    +0.000 A 
ATOM      7  C   UNL     1       3.113   7.931  17.776  0.00  0.00    +0.000 A 
ATOM      8  C   UNL     1       2.235   7.885  18.848  0.00  0.00    +0.000 A 
ATOM      9  C   UNL     1       2.212   6.763  19.672  0.00  0.00    +0.000 A 
ATOM     10  C   UNL     1       3.062   5.659  19.428  0.00  0.00    +0.000 A 
ENDROOT
BRANCH   4  11
ATOM     11  N   UNL     1       5.767   4.440  17.166  0.00  0.00    +0.000 N 
ATOM     12  C   UNL     1       7.105   4.714  17.330  0.00  0.00    +0.000 A 
ATOM     13  N   UNL     1       7.746   4.584  16.191  0.00  0.00    +0.000 NA
ATOM     14  C   UNL     1       6.752   4.253  15.325  0.00  0.00    +0.000 A 
ATOM     15  N   UNL     1       5.538   4.132  15.863  0.00  0.00    +0.000 NA
ENDBRANCH   4  11
BRANCH   1  16
ATOM     16  O   UNL     1       2.163   4.388  21.265  0.00  0.00    +0.000 OA
ATOM     17  H   UNL     1       1.808   3.486  21.136  0.00  0.00    +0.000 HD
ENDBRANCH   1  16
TORSDOF 2
ENDMDL
MODEL 4
REMARK VINA RESULT:      -6.8      1.633      1.684
REMARK  Name = 
REMARK  2 active torsions:
REMARK  status: ('A' for Active; 'I' for Inactive)
REMARK    1  A    between atoms: O_1  and  C_2
REMARK    2  A    between atoms: C_5  and  N_6
REMARK                            x       y       z     vdW  Elec       q    Type
REMARK                         _______ _______ _______ _____ _____    ______ ____
ROOT
ATOM      1  C   UNL     1       2.076   2.398  18.591  0.00  0.00    +0.000 A 
ATOM      2  N   UNL     1       2.982   1.859  17.758  0.00  0.00    +0.000 NA
ATOM      3  N   UNL     1       4.114   2.549  17.489  0.00  0.00    +0.000 NA
ATOM      4  C   UNL     1       4.345   3.751  18.092  0.00  0.00    +0.000 A 
ATOM      5  C   UNL     1       3.391   4.379  18.939  0.00  0.00    +0.000 A 
ATOM      6  C   UNL     1       3.482   5.680  19.503  0.00  0.00    +0.000 A 
ATOM      7  C   UNL     1       2.457   6.230  20.278  0.00  0.00    +0.000 A 
ATOM      8  C   UNL     1       1.310   5.492  20.525  0.00  0.00    +0.000 A 
ATOM      9  C   UNL     1       1.187   4.212  19.992  0.00  0.00    +0.000 A 
ATOM     10  C   UNL     1       2.207   3.652  19.189  0.00  0.00    +0.000 A 
ENDROOT
BRANCH   4  11
ATOM     11  N   UNL     1       5.606   4.336  17.807  0.00  0.00    +0.000 N 
ATOM     12  C   UNL     1       6.024   4.814  16.587  0.00  0.00    +0.000 A 
ATOM     13  N   UNL     1       7.263   5.244  16.661  0.00  0.00    +0.000 NA
ATOM     14  C   UNL     1       7.594   4.984  17.954  0.00  0.00    +0.000 A 
ATOM     15  N   UNL     1       6.623   4.453  18.699  0.00  0.00    +0.000 NA
ENDBRANCH   4  11
BRANCH   1  16
ATOM     16  O   UNL     1       0.970   1.625  18.790  0.00  0.00    +0.000 OA
ATOM     17  H   UNL     1       0.256   2.288  18.710  0.00  0.00    +0.000 HD
ENDBRANCH   1  16
TORSDOF 2
ENDMDL
MODEL 5
REMARK VINA RESULT:      -6.8      0.726      1.027
REMARK  Name = 
REMARK  2 active torsions:
REMARK  status: ('A' for Active; 'I' for Inactive)
REMARK    1  A    between atoms: O_1  and  C_2
REMARK    2  A    between atoms: C_5  and  N_6
REMARK                            x       y       z     vdW  Elec       q    Type
REMARK                         _______ _______ _______ _____ _____    ______ ____
ROOT
ATOM      1  C   UNL     1       3.018   3.409  20.876  0.00  0.00    +0.000 A 
ATOM      2  N   UNL     1       3.888   2.470  20.468  0.00  0.00    +0.000 NA
ATOM      3  N   UNL     1       4.715   2.751  19.434  0.00  0.00    +0.000 NA
ATOM      4  C   UNL     1       4.689   3.983  18.851  0.00  0.00    +0.000 A 
ATOM      5  C   UNL     1       3.750   4.986  19.218  0.00  0.00    +0.000 A 
ATOM      6  C   UNL     1       3.558   6.243  18.584  0.00  0.00    +0.000 A 
ATOM      7  C   UNL     1       2.562   7.137  18.987  0.00  0.00    +0.000 A 
ATOM      8  C   UNL     1       1.732   6.809  20.047  0.00  0.00    +0.000 A 
ATOM      9  C   UNL     1       1.893   5.587  20.695  0.00  0.00    +0.000 A 
ATOM     10  C   UNL     1       2.882   4.664  20.283  0.00  0.00    +0.000 A 
ENDROOT
BRANCH   4  11
ATOM     11  N   UNL     1       5.665   4.192  17.842  0.00  0.00    +0.000 N 
ATOM     12  C   UNL     1       6.930   4.701  18.025  0.00  0.00    +0.000 A 
ATOM     13  N   UNL     1       7.554   4.808  16.874  0.00  0.00    +0.000 NA
ATOM     14  C   UNL     1       6.619   4.380  15.985  0.00  0.00    +0.000 A 
ATOM     15  N   UNL     1       5.464   3.975  16.516  0.00  0.00    +0.000 NA
ENDBRANCH   4  11
BRANCH   1  16
ATOM     16  O   UNL     1       2.228   3.023  21.919  0.00  0.00    +0.000 OA
ATOM     17  H   UNL     1       1.537   2.509  21.457  0.00  0.00    +0.000 HD
ENDBRANCH   1  16
TORSDOF 2
ENDMDL
MODEL 6
REMARK VINA RESULT:      -6.7      2.941      4.023
REMARK  Name = 
REMARK  2 active torsions:
REMARK  status: ('A' for Active; 'I' for Inactive)
REMARK    1  A    between atoms: O_1  and  C_2
REMARK    2  A    between atoms: C_5  and  N_6
REMARK                            x       y       z     vdW  Elec       q    Type
REMARK                         _______ _______ _______ _____ _____    ______ ____
ROOT
ATOM      1  C   UNL     1       7.174   5.067  19.097  0.00  0.00    +0.000 A 
ATOM      2  N   UNL     1       8.229   4.717  18.342  0.00  0.00    +0.000 NA
ATOM      3  N   UNL     1       8.047   4.518  17.017  0.00  0.00    +0.000 NA
ATOM      4  C   UNL     1       6.819   4.714  16.456  0.00  0.00    +0.000 A 
ATOM      5  C   UNL     1       5.667   5.033  17.226  0.00  0.00    +0.000 A 
ATOM      6  C   UNL     1       4.329   5.124  16.756  0.00  0.00    +0.000 A 
ATOM      7  C   UNL     1       3.255   5.387  17.611  0.00  0.00    +0.000 A 
ATOM      8  C   UNL     1       3.483   5.579  18.964  0.00  0.00    +0.000 A 
ATOM      9  C   UNL     1       4.782   5.501  19.461  0.00  0.00    +0.000 A 
ATOM     10  C   UNL     1       5.875   5.214  18.610  0.00  0.00    +0.000 A 
ENDROOT
BRANCH   4  11
ATOM     11  N   UNL     1       6.770   4.567  15.046  0.00  0.00    +0.000 N 
ATOM     12  C   UNL     1       6.048   3.625  14.350  0.00  0.00    +0.000 A 
ATOM     13  N   UNL     1       6.266   3.739  13.059  0.00  0.00    +0.000 NA
ATOM     14  C   UNL     1       7.165   4.757  12.996  0.00  0.00    +0.000 A 
ATOM     15  N   UNL     1       7.490   5.309  14.166  0.00  0.00    +0.000 NA
ENDBRANCH   4  11
BRANCH   1  16
ATOM     16  O   UNL     1       7.464   5.237  20.419  0.00  0.00    +0.000 OA
ATOM     17  H   UNL     1       7.529   4.310  20.722  0.00  0.00    +0.000 HD
ENDBRANCH   1  16
TORSDOF 2
ENDMDL
MODEL 7
REMARK VINA RESULT:      -6.5      1.680      2.353
REMARK  Name = 
REMARK  2 active torsions:
REMARK  status: ('A' for Active; 'I' for Inactive)
REMARK    1  A    between atoms: O_1  and  C_2
REMARK    2  A    between atoms: C_5  and  N_6
REMARK                            x       y       z     vdW  Elec       q    Type
REMARK                         _______ _______ _______ _____ _____    ______ ____
ROOT
ATOM      1  C   UNL     1       3.074   3.827  19.119  0.00  0.00    +0.000 A 
ATOM      2  N   UNL     1       3.750   2.824  18.533  0.00  0.00    +0.000 NA
ATOM      3  N   UNL     1       4.574   3.109  17.499  0.00  0.00    +0.000 NA
ATOM      4  C   UNL     1       4.744   4.399  17.092  0.00  0.00    +0.000 A 
ATOM      5  C   UNL     1       4.010   5.481  17.650  0.00  0.00    +0.000 A 
ATOM      6  C   UNL     1       4.018   6.832  17.206  0.00  0.00    +0.000 A 
ATOM      7  C   UNL     1       3.210   7.813  17.789  0.00  0.00    +0.000 A 
ATOM      8  C   UNL     1       2.375   7.479  18.843  0.00  0.00    +0.000 A 
ATOM      9  C   UNL     1       2.343   6.166  19.307  0.00  0.00    +0.000 A 
ATOM     10  C   UNL     1       3.139   5.160  18.713  0.00  0.00    +0.000 A 
ENDROOT
BRANCH   4  11
ATOM     11  N   UNL     1       5.703   4.585  16.063  0.00  0.00    +0.000 N 
ATOM     12  C   UNL     1       6.977   5.080  16.216  0.00  0.00    +0.000 A 
ATOM     13  N   UNL     1       7.581   5.168  15.053  0.00  0.00    +0.000 NA
ATOM     14  C   UNL     1       6.625   4.741  14.187  0.00  0.00    +0.000 A 
ATOM     15  N   UNL     1       5.475   4.357  14.743  0.00  0.00    +0.000 NA
ENDBRANCH   4  11
BRANCH   1  16
ATOM     16  O   UNL     1       2.268   3.432  20.146  0.00  0.00    +0.000 OA
ATOM     17  H   UNL     1       1.582   4.129  20.130  0.00  0.00    +0.000 HD
ENDBRANCH   1  16
TORSDOF 2
ENDMDL
MODEL 8
REMARK VINA RESULT:      -6.5      3.538      5.176
REMARK  Name = 
REMARK  2 active torsions:
REMARK  status: ('A' for Active; 'I' for Inactive)
REMARK    1  A    between atoms: O_1  and  C_2
REMARK    2  A    between atoms: C_5  and  N_6
REMARK                            x       y       z     vdW  Elec       q    Type
REMARK                         _______ _______ _______ _____ _____    ______ ____
ROOT
ATOM      1  C   UNL     1       5.256   4.636  16.996  0.00  0.00    +0.000 A 
ATOM      2  N   UNL     1       5.621   5.926  16.901  0.00  0.00    +0.000 NA
ATOM      3  N   UNL     1       4.738   6.883  17.268  0.00  0.00    +0.000 NA
ATOM      4  C   UNL     1       3.518   6.536  17.767  0.00  0.00    +0.000 A 
ATOM      5  C   UNL     1       3.073   5.187  17.835  0.00  0.00    +0.000 A 
ATOM      6  C   UNL     1       1.779   4.736  18.211  0.00  0.00    +0.000 A 
ATOM      7  C   UNL     1       1.424   3.385  18.188  0.00  0.00    +0.000 A 
ATOM      8  C   UNL     1       2.356   2.435  17.800  0.00  0.00    +0.000 A 
ATOM      9  C   UNL     1       3.636   2.839  17.429  0.00  0.00    +0.000 A 
ATOM     10  C   UNL     1       4.001   4.205  17.427  0.00  0.00    +0.000 A 
ENDROOT
BRANCH   4  11
ATOM     11  N   UNL     1       2.715   7.620  18.206  0.00  0.00    +0.000 N 
ATOM     12  C   UNL     1       2.152   7.765  19.452  0.00  0.00    +0.000 A 
ATOM     13  N   UNL     1       1.429   8.860  19.508  0.00  0.00    +0.000 NA
ATOM     14  C   UNL     1       1.545   9.359  18.249  0.00  0.00    +0.000 A 
ATOM     15  N   UNL     1       2.327   8.661  17.424  0.00  0.00    +0.000 NA
ENDBRANCH   4  11
BRANCH   1  16
ATOM     16  O   UNL     1       6.215   3.753  16.596  0.00  0.00    +0.000 OA
ATOM     17  H   UNL     1       5.782   2.899  16.790  0.00  0.00    +0.000 HD
ENDBRANCH   1  16
TORSDOF 2
ENDMDL
MODEL 9
REMARK VINA RESULT:      -6.5      3.637      5.456
REMARK  Name = 
REMARK  2 active torsions:
REMARK  status: ('A' for Active; 'I' for Inactive)
REMARK    1  A    between atoms: O_1  and  C_2
REMARK    2  A    between atoms: C_5  and  N_6
REMARK                            x       y       z     vdW  Elec       q    Type
REMARK                         _______ _______ _______ _____ _____    ______ ____
ROOT
ATOM      1  C   UNL     1       6.756   5.035  15.396  0.00  0.00    +0.000 A 
ATOM      2  N   UNL     1       5.872   4.297  14.705  0.00  0.00    +0.000 NA
ATOM      3  N   UNL     1       4.840   3.725  15.367  0.00  0.00    +0.000 NA
ATOM      4  C   UNL     1       4.682   3.935  16.705  0.00  0.00    +0.000 A 
ATOM      5  C   UNL     1       5.622   4.666  17.482  0.00  0.00    +0.000 A 
ATOM      6  C   UNL     1       5.616   4.825  18.894  0.00  0.00    +0.000 A 
ATOM      7  C   UNL     1       6.625   5.517  19.571  0.00  0.00    +0.000 A 
ATOM      8  C   UNL     1       7.668   6.084  18.856  0.00  0.00    +0.000 A 
ATOM      9  C   UNL     1       7.706   5.952  17.470  0.00  0.00    +0.000 A 
ATOM     10  C   UNL     1       6.703   5.236  16.776  0.00  0.00    +0.000 A 
ENDROOT
BRANCH   4  11
ATOM     11  N   UNL     1       3.513   3.364  17.271  0.00  0.00    +0.000 N 
ATOM     12  C   UNL     1       2.290   3.977  17.406  0.00  0.00    +0.000 A 
ATOM     13  N   UNL     1       1.440   3.183  18.016  0.00  0.00    +0.000 NA
ATOM     14  C   UNL     1       2.194   2.081  18.275  0.00  0.00    +0.000 A 
ATOM     15  N   UNL     1       3.450   2.127  17.829  0.00  0.00    +0.000 NA
ENDBRANCH   4  11
BRANCH   1  16
ATOM     16  O   UNL     1       7.760   5.561  14.637  0.00  0.00    +0.000 OA
ATOM     17  H   UNL     1       8.540   5.381  15.199  0.00  0.00    +0.000 HD
ENDBRANCH   1  16
TORSDOF 2
ENDMDL
