MODEL 1
REMARK VINA RESULT:      -8.2      0.000      0.000
REMARK  Name = 
REMARK  8 active torsions:
REMARK  status: ('A' for Active; 'I' for Inactive)
REMARK    1  A    between atoms: C_1  and  N_2
REMARK    2  A    between atoms: C_5  and  C_6
REMARK    3  A    between atoms: C_6  and  C_7
REMARK    4  A    between atoms: C_9  and  C_10
REMARK    5  A    between atoms: C_10  and  C_11
REMARK    6  A    between atoms: N_21  and  C_22
REMARK    7  A    between atoms: C_22  and  C_23
REMARK    8  A    between atoms: C_23  and  O_24
REMARK                            x       y       z     vdW  Elec       q    Type
REMARK                         _______ _______ _______ _____ _____    ______ ____
ROOT
ATOM      1  C   UNL     1       2.490   7.629  18.358  0.00  0.00    +0.000 A 
ATOM      2  N   UNL     1       3.208   6.676  17.685  0.00  0.00    +0.000 NA
ATOM      3  C   UNL     1       3.112   5.589  18.443  0.00  0.00    +0.000 A 
ATOM      4  N   UNL     1       2.403   5.928  19.573  0.00  0.00    +0.000 N 
ATOM      5  N   UNL     1       1.961   7.200  19.505  0.00  0.00    +0.000 NA
ENDROOT
BRANCH   3   6
ATOM      6  C   UNL     1       3.727   4.214  18.132  0.00  0.00    +0.000 C 
ATOM      7  C   UNL     1       4.121   3.476  19.441  0.00  0.00    +0.000 C 
ATOM      8  C   UNL     1       4.150   1.996  19.066  0.00  0.00    +0.000 C 
ATOM      9  C   UNL     1       3.095   1.835  17.975  0.00  0.00    +0.000 C 
ATOM     10  C   UNL     1       2.611   3.252  17.640  0.00  0.00    +0.000 C 
BRANCH   6  11
ATOM     11  C   UNL     1       4.965   4.295  17.203  0.00  0.00    +0.000 A 
ATOM     12  C   UNL     1       6.230   4.605  17.745  0.00  0.00    +0.000 A 
ATOM     13  C   UNL     1       7.341   4.789  16.920  0.00  0.00    +0.000 A 
ATOM     14  C   UNL     1       7.225   4.662  15.540  0.00  0.00    +0.000 A 
ATOM     15  C   UNL     1       5.998   4.324  14.983  0.00  0.00    +0.000 A 
ATOM     16  C   UNL     1       4.884   4.136  15.806  0.00  0.00    +0.000 A 
ENDBRANCH   6  11
ENDBRANCH   3   6
BRANCH   1  17
ATOM     17  C   UNL     1       2.327   9.052  17.934  0.00  0.00    +0.000 C 
BRANCH  17  22
ATOM     18  C   UNL     1      -1.820  12.747  19.500  0.00  0.00    +0.000 C 
ATOM     19  N   UNL     1      -0.790  11.982  18.793  0.00  0.00    +0.000 NA
ATOM     20  C   UNL     1       0.511  12.153  19.457  0.00  0.00    +0.000 C 
ATOM     21  C   UNL     1       1.618  11.368  18.749  0.00  0.00    +0.000 C 
ATOM     22  C   UNL     1       1.270   9.875  18.681  0.00  0.00    +0.000 C 
ATOM     23  C   UNL     1      -0.103   9.735  17.995  0.00  0.00    +0.000 C 
ATOM     24  C   UNL     1      -1.171  10.566  18.710  0.00  0.00    +0.000 C 
ENDBRANCH  17  22
ENDBRANCH   1  17
BRANCH   4  25
ATOM     25  C   UNL     1       2.037   5.152  20.731  0.00  0.00    +0.000 C 
BRANCH  25  26
ATOM     26  C   UNL     1       0.829   4.253  20.512  0.00  0.00    +0.000 C 
BRANCH  26  27
ATOM     27  O   UNL     1       1.004   3.023  21.216  0.00  0.00    +0.000 OA
ATOM     28  H   UNL     1       0.188   2.861  21.722  0.00  0.00    +0.000 HD
ENDBRANCH  26  27
ENDBRANCH  25  26
ENDBRANCH   4  25
TORSDOF 7
ENDMDL
MODEL 2
REMARK VINA RESULT:      -8.0      0.884      2.839
REMARK  Name = 
REMARK  8 active torsions:
REMARK  status: ('A' for Active; 'I' for Inactive)
REMARK    1  A    between atoms: C_1  and  N_2
REMARK    2  A    between atoms: C_5  and  C_6
REMARK    3  A    between atoms: C_6  and  C_7
REMARK    4  A    between atoms: C_9  and  C_10
REMARK    5  A    between atoms: C_10  and  C_11
REMARK    6  A    between atoms: N_21  and  C_22
REMARK    7  A    between atoms: C_22  and  C_23
REMARK    8  A    between atoms: C_23  and  O_24
REMARK                            x       y       z     vdW  Elec       q    Type
REMARK                         _______ _______ _______ _____ _____    ______ ____
ROOT
ATOM      1  C   UNL     1       2.459   8.313  18.162  0.00  0.00    +0.000 A 
ATOM      2  N   UNL     1       3.435   7.661  17.456  0.00  0.00    +0.000 NA
ATOM      3  C   UNL     1       3.657   6.547  18.145  0.00  0.00    +0.000 A 
ATOM      4  N   UNL     1       2.866   6.587  19.271  0.00  0.00    +0.000 N 
ATOM      5  N   UNL     1       2.068   7.673  19.265  0.00  0.00    +0.000 NA
ENDROOT
BRANCH   3   6
ATOM      6  C   UNL     1       4.656   5.439  17.772  0.00  0.00    +0.000 C 
ATOM      7  C   UNL     1       5.078   5.553  16.281  0.00  0.00    +0.000 C 
ATOM      8  C   UNL     1       6.425   4.837  16.197  0.00  0.00    +0.000 C 
ATOM      9  C   UNL     1       7.082   5.053  17.556  0.00  0.00    +0.000 C 
ATOM     10  C   UNL     1       6.028   5.741  18.434  0.00  0.00    +0.000 C 
BRANCH   6  11
ATOM     11  C   UNL     1       4.111   4.012  18.037  0.00  0.00    +0.000 A 
ATOM     12  C   UNL     1       3.025   3.524  17.281  0.00  0.00    +0.000 A 
ATOM     13  C   UNL     1       2.446   2.286  17.569  0.00  0.00    +0.000 A 
ATOM     14  C   UNL     1       2.937   1.502  18.608  0.00  0.00    +0.000 A 
ATOM     15  C   UNL     1       4.027   1.944  19.345  0.00  0.00    +0.000 A 
ATOM     16  C   UNL     1       4.611   3.181  19.058  0.00  0.00    +0.000 A 
ENDBRANCH   6  11
ENDBRANCH   3   6
BRANCH   1  17
ATOM     17  C   UNL     1       1.886   9.649  17.817  0.00  0.00    +0.000 C 
BRANCH  17  22
ATOM     18  C   UNL     1      -2.673  12.409  20.032  0.00  0.00    +0.000 C 
ATOM     19  N   UNL     1      -1.538  11.961  19.221  0.00  0.00    +0.000 NA
ATOM     20  C   UNL     1      -0.297  12.031  20.007  0.00  0.00    +0.000 C 
ATOM     21  C   UNL     1       0.916  11.571  19.195  0.00  0.00    +0.000 C 
ATOM     22  C   UNL     1       0.716  10.139  18.681  0.00  0.00    +0.000 C 
ATOM     23  C   UNL     1      -0.598  10.099  17.877  0.00  0.00    +0.000 C 
ATOM     24  C   UNL     1      -1.777  10.605  18.711  0.00  0.00    +0.000 C 
ENDBRANCH  17  22
ENDBRANCH   1  17
BRANCH   4  25
ATOM     25  C   UNL     1       2.734   5.664  20.370  0.00  0.00    +0.000 C 
BRANCH  25  26
ATOM     26  C   UNL     1       1.344   5.059  20.500  0.00  0.00    +0.000 C 
BRANCH  26  27
ATOM     27  O   UNL     1       1.443   3.698  20.919  0.00  0.00    +0.000 OA
ATOM     28  H   UNL     1       1.834   3.697  21.811  0.00  0.00    +0.000 HD
ENDBRANCH  26  27
ENDBRANCH  25  26
ENDBRANCH   4  25
TORSDOF 7
ENDMDL
MODEL 3
REMARK VINA RESULT:      -7.6      1.008      2.695
REMARK  Name = 
REMARK  8 active torsions:
REMARK  status: ('A' for Active; 'I' for Inactive)
REMARK    1  A    between atoms: C_1  and  N_2
REMARK    2  A    between atoms: C_5  and  C_6
REMARK    3  A    between atoms: C_6  and  C_7
REMARK    4  A    between atoms: C_9  and  C_10
REMARK    5  A    between atoms: C_10  and  C_11
REMARK    6  A    between atoms: N_21  and  C_22
REMARK    7  A    between atoms: C_22  and  C_23
REMARK    8  A    between atoms: C_23  and  O_24
REMARK                            x       y       z     vdW  Elec       q    Type
REMARK                         _______ _______ _______ _____ _____    ______ ____
ROOT
ATOM      1  C   UNL     1       2.179   8.331  18.305  0.00  0.00    +0.000 A 
ATOM      2  N   UNL     1       3.183   7.730  17.593  0.00  0.00    +0.000 NA
ATOM      3  C   UNL     1       3.455   6.621  18.272  0.00  0.00    +0.000 A 
ATOM      4  N   UNL     1       2.663   6.615  19.398  0.00  0.00    +0.000 N 
ATOM      5  N   UNL     1       1.817   7.664  19.402  0.00  0.00    +0.000 NA
ENDROOT
BRANCH   3   6
ATOM      6  C   UNL     1       4.503   5.562  17.889  0.00  0.00    +0.000 C 
ATOM      7  C   UNL     1       4.896   5.689  16.391  0.00  0.00    +0.000 C 
ATOM      8  C   UNL     1       6.275   5.041  16.290  0.00  0.00    +0.000 C 
ATOM      9  C   UNL     1       6.942   5.298  17.638  0.00  0.00    +0.000 C 
ATOM     10  C   UNL     1       5.868   5.936  18.528  0.00  0.00    +0.000 C 
BRANCH   6  11
ATOM     11  C   UNL     1       4.035   4.111  18.169  0.00  0.00    +0.000 A 
ATOM     12  C   UNL     1       4.626   3.372  19.215  0.00  0.00    +0.000 A 
ATOM     13  C   UNL     1       4.300   2.030  19.421  0.00  0.00    +0.000 A 
ATOM     14  C   UNL     1       3.374   1.394  18.601  0.00  0.00    +0.000 A 
ATOM     15  C   UNL     1       2.752   2.108  17.585  0.00  0.00    +0.000 A 
ATOM     16  C   UNL     1       3.074   3.452  17.377  0.00  0.00    +0.000 A 
ENDBRANCH   6  11
ENDBRANCH   3   6
BRANCH   1  17
ATOM     17  C   UNL     1       1.546   9.643  17.972  0.00  0.00    +0.000 C 
BRANCH  17  22
ATOM     18  C   UNL     1      -2.538  12.623  20.754  0.00  0.00    +0.000 C 
ATOM     19  N   UNL     1      -1.447  12.177  19.883  0.00  0.00    +0.000 NA
ATOM     20  C   UNL     1      -0.300  11.745  20.694  0.00  0.00    +0.000 C 
ATOM     21  C   UNL     1       0.865  11.269  19.822  0.00  0.00    +0.000 C 
ATOM     22  C   UNL     1       0.425  10.121  18.904  0.00  0.00    +0.000 C 
ATOM     23  C   UNL     1      -0.786  10.603  18.082  0.00  0.00    +0.000 C 
ATOM     24  C   UNL     1      -1.911  11.107  18.990  0.00  0.00    +0.000 C 
ENDBRANCH  17  22
ENDBRANCH   1  17
BRANCH   4  25
ATOM     25  C   UNL     1       2.573   5.676  20.488  0.00  0.00    +0.000 C 
BRANCH  25  26
ATOM     26  C   UNL     1       1.332   4.797  20.440  0.00  0.00    +0.000 C 
BRANCH  26  27
ATOM     27  O   UNL     1       1.575   3.574  21.135  0.00  0.00    +0.000 OA
ATOM     28  H   UNL     1       2.063   3.794  21.948  0.00  0.00    +0.000 HD
ENDBRANCH  26  27
ENDBRANCH  25  26
ENDBRANCH   4  25
TORSDOF 7
ENDMDL
MODEL 4
REMARK VINA RESULT:      -7.6      2.247      8.108
REMARK  Name = 
REMARK  8 active torsions:
REMARK  status: ('A' for Active; 'I' for Inactive)
REMARK    1  A    between atoms: C_1  and  N_2
REMARK    2  A    between atoms: C_5  and  C_6
REMARK    3  A    between atoms: C_6  and  C_7
REMARK    4  A    between atoms: C_9  and  C_10
REMARK    5  A    between atoms: C_10  and  C_11
REMARK    6  A    between atoms: N_21  and  C_22
REMARK    7  A    between atoms: C_22  and  C_23
REMARK    8  A    between atoms: C_23  and  O_24
REMARK                            x       y       z     vdW  Elec       q    Type
REMARK                         _______ _______ _______ _____ _____    ______ ____
ROOT
ATOM      1  C   UNL     1       2.020   7.109  19.977  0.00  0.00    +0.000 A 
ATOM      2  N   UNL     1       2.030   8.182  19.126  0.00  0.00    +0.000 NA
ATOM      3  C   UNL     1       1.239   9.078  19.708  0.00  0.00    +0.000 A 
ATOM      4  N   UNL     1       0.725   8.503  20.849  0.00  0.00    +0.000 N 
ATOM      5  N   UNL     1       1.253   7.279  21.055  0.00  0.00    +0.000 NA
ENDROOT
BRANCH   3   6
ATOM      6  C   UNL     1       0.919  10.483  19.173  0.00  0.00    +0.000 C 
ATOM      7  C   UNL     1       1.198  11.563  20.255  0.00  0.00    +0.000 C 
ATOM      8  C   UNL     1       1.412  12.858  19.474  0.00  0.00    +0.000 C 
ATOM      9  C   UNL     1       2.031  12.431  18.147  0.00  0.00    +0.000 C 
ATOM     10  C   UNL     1       2.000  10.897  18.137  0.00  0.00    +0.000 C 
BRANCH   6  11
ATOM     11  C   UNL     1      -0.542  10.629  18.675  0.00  0.00    +0.000 A 
ATOM     12  C   UNL     1      -0.965   9.931  17.526  0.00  0.00    +0.000 A 
ATOM     13  C   UNL     1      -2.242  10.126  16.994  0.00  0.00    +0.000 A 
ATOM     14  C   UNL     1      -3.129  11.011  17.597  0.00  0.00    +0.000 A 
ATOM     15  C   UNL     1      -2.749  11.686  18.749  0.00  0.00    +0.000 A 
ATOM     16  C   UNL     1      -1.473  11.492  19.285  0.00  0.00    +0.000 A 
ENDBRANCH   6  11
ENDBRANCH   3   6
BRANCH   1  17
ATOM     17  C   UNL     1       2.731   5.815  19.749  0.00  0.00    +0.000 C 
BRANCH  17  22
ATOM     18  C   UNL     1       7.090   4.549  16.185  0.00  0.00    +0.000 C 
ATOM     19  N   UNL     1       5.971   4.517  17.132  0.00  0.00    +0.000 NA
ATOM     20  C   UNL     1       6.333   5.232  18.364  0.00  0.00    +0.000 C 
ATOM     21  C   UNL     1       5.190   5.224  19.382  0.00  0.00    +0.000 C 
ATOM     22  C   UNL     1       3.922   5.846  18.783  0.00  0.00    +0.000 C 
ATOM     23  C   UNL     1       3.582   5.085  17.487  0.00  0.00    +0.000 C 
ATOM     24  C   UNL     1       4.764   5.082  16.515  0.00  0.00    +0.000 C 
ENDBRANCH  17  22
ENDBRANCH   1  17
BRANCH   4  25
ATOM     25  C   UNL     1      -0.201   9.008  21.830  0.00  0.00    +0.000 C 
BRANCH  25  26
ATOM     26  C   UNL     1       0.454   9.415  23.141  0.00  0.00    +0.000 C 
BRANCH  26  27
ATOM     27  O   UNL     1       1.875   9.353  23.014  0.00  0.00    +0.000 OA
ATOM     28  H   UNL     1       2.098   9.648  22.114  0.00  0.00    +0.000 HD
ENDBRANCH  26  27
ENDBRANCH  25  26
ENDBRANCH   4  25
TORSDOF 7
ENDMDL
MODEL 5
REMARK VINA RESULT:      -7.4      1.785      2.721
REMARK  Name = 
REMARK  8 active torsions:
REMARK  status: ('A' for Active; 'I' for Inactive)
REMARK    1  A    between atoms: C_1  and  N_2
REMARK    2  A    between atoms: C_5  and  C_6
REMARK    3  A    between atoms: C_6  and  C_7
REMARK    4  A    between atoms: C_9  and  C_10
REMARK    5  A    between atoms: C_10  and  C_11
REMARK    6  A    between atoms: N_21  and  C_22
REMARK    7  A    between atoms: C_22  and  C_23
REMARK    8  A    between atoms: C_23  and  O_24
REMARK                            x       y       z     vdW  Elec       q    Type
REMARK                         _______ _______ _______ _____ _____    ______ ____
ROOT
ATOM      1  C   UNL     1       2.126   8.334  18.028  0.00  0.00    +0.000 A 
ATOM      2  N   UNL     1       3.131   8.036  17.147  0.00  0.00    +0.000 NA
ATOM      3  C   UNL     1       3.667   6.915  17.617  0.00  0.00    +0.000 A 
ATOM      4  N   UNL     1       3.021   6.605  18.794  0.00  0.00    +0.000 N 
ATOM      5  N   UNL     1       2.012   7.465  19.034  0.00  0.00    +0.000 NA
ENDROOT
BRANCH   3   6
ATOM      6  C   UNL     1       4.832   6.135  16.985  0.00  0.00    +0.000 C 
ATOM      7  C   UNL     1       4.507   4.617  16.916  0.00  0.00    +0.000 C 
ATOM      8  C   UNL     1       5.402   4.073  15.804  0.00  0.00    +0.000 C 
ATOM      9  C   UNL     1       5.557   5.222  14.812  0.00  0.00    +0.000 C 
ATOM     10  C   UNL     1       4.886   6.439  15.463  0.00  0.00    +0.000 C 
BRANCH   6  11
ATOM     11  C   UNL     1       6.176   6.333  17.732  0.00  0.00    +0.000 A 
ATOM     12  C   UNL     1       6.552   5.432  18.750  0.00  0.00    +0.000 A 
ATOM     13  C   UNL     1       7.703   5.646  19.511  0.00  0.00    +0.000 A 
ATOM     14  C   UNL     1       8.511   6.753  19.273  0.00  0.00    +0.000 A 
ATOM     15  C   UNL     1       8.181   7.636  18.254  0.00  0.00    +0.000 A 
ATOM     16  C   UNL     1       7.031   7.424  17.489  0.00  0.00    +0.000 A 
ENDBRANCH   6  11
ENDBRANCH   3   6
BRANCH   1  17
ATOM     17  C   UNL     1       1.242   9.536  17.960  0.00  0.00    +0.000 C 
BRANCH  17  22
ATOM     18  C   UNL     1      -0.529  13.077  22.158  0.00  0.00    +0.000 C 
ATOM     19  N   UNL     1      -0.328  12.349  20.903  0.00  0.00    +0.000 NA
ATOM     20  C   UNL     1       1.037  12.573  20.403  0.00  0.00    +0.000 C 
ATOM     21  C   UNL     1       1.290  11.828  19.091  0.00  0.00    +0.000 C 
ATOM     22  C   UNL     1       1.049  10.322  19.264  0.00  0.00    +0.000 C 
ATOM     23  C   UNL     1      -0.381  10.125  19.802  0.00  0.00    +0.000 C 
ATOM     24  C   UNL     1      -0.604  10.919  21.092  0.00  0.00    +0.000 C 
ENDBRANCH  17  22
ENDBRANCH   1  17
BRANCH   4  25
ATOM     25  C   UNL     1       3.219   5.525  19.727  0.00  0.00    +0.000 C 
BRANCH  25  26
ATOM     26  C   UNL     1       1.944   5.076  20.426  0.00  0.00    +0.000 C 
BRANCH  26  27
ATOM     27  O   UNL     1       2.262   4.167  21.480  0.00  0.00    +0.000 OA
ATOM     28  H   UNL     1       1.778   4.460  22.272  0.00  0.00    +0.000 HD
ENDBRANCH  26  27
ENDBRANCH  25  26
ENDBRANCH   4  25
TORSDOF 7
ENDMDL
MODEL 6
REMARK VINA RESULT:      -7.4      2.041      3.212
REMARK  Name = 
REMARK  8 active torsions:
REMARK  status: ('A' for Active; 'I' for Inactive)
REMARK    1  A    between atoms: C_1  and  N_2
REMARK    2  A    between atoms: C_5  and  C_6
REMARK    3  A    between atoms: C_6  and  C_7
REMARK    4  A    between atoms: C_9  and  C_10
REMARK    5  A    between atoms: C_10  and  C_11
REMARK    6  A    between atoms: N_21  and  C_22
REMARK    7  A    between atoms: C_22  and  C_23
REMARK    8  A    between atoms: C_23  and  O_24
REMARK                            x       y       z     vdW  Elec       q    Type
REMARK                         _______ _______ _______ _____ _____    ______ ____
ROOT
ATOM      1  C   UNL     1       2.526   5.917  19.561  0.00  0.00    +0.000 A 
ATOM      2  N   UNL     1       3.756   6.218  19.037  0.00  0.00    +0.000 NA
ATOM      3  C   UNL     1       3.914   5.356  18.039  0.00  0.00    +0.000 A 
ATOM      4  N   UNL     1       2.817   4.523  18.029  0.00  0.00    +0.000 N 
ATOM      5  N   UNL     1       1.911   4.902  18.952  0.00  0.00    +0.000 NA
ENDROOT
BRANCH   3   6
ATOM      6  C   UNL     1       5.128   5.274  17.099  0.00  0.00    +0.000 C 
ATOM      7  C   UNL     1       5.549   3.796  16.866  0.00  0.00    +0.000 C 
ATOM      8  C   UNL     1       6.312   3.808  15.543  0.00  0.00    +0.000 C 
ATOM      9  C   UNL     1       5.677   4.924  14.720  0.00  0.00    +0.000 C 
ATOM     10  C   UNL     1       4.683   5.628  15.654  0.00  0.00    +0.000 C 
BRANCH   6  11
ATOM     11  C   UNL     1       6.352   6.074  17.612  0.00  0.00    +0.000 A 
ATOM     12  C   UNL     1       7.140   5.556  18.661  0.00  0.00    +0.000 A 
ATOM     13  C   UNL     1       8.183   6.302  19.214  0.00  0.00    +0.000 A 
ATOM     14  C   UNL     1       8.473   7.575  18.734  0.00  0.00    +0.000 A 
ATOM     15  C   UNL     1       7.734   8.095  17.680  0.00  0.00    +0.000 A 
ATOM     16  C   UNL     1       6.691   7.350  17.122  0.00  0.00    +0.000 A 
ENDBRANCH   6  11
ENDBRANCH   3   6
BRANCH   1  17
ATOM     17  C   UNL     1       1.900   6.585  20.742  0.00  0.00    +0.000 C 
BRANCH  17  22
ATOM     18  C   UNL     1       0.252  12.034  19.795  0.00  0.00    +0.000 C 
ATOM     19  N   UNL     1       0.988  10.801  20.086  0.00  0.00    +0.000 NA
ATOM     20  C   UNL     1       0.449  10.166  21.297  0.00  0.00    +0.000 C 
ATOM     21  C   UNL     1       1.191   8.871  21.638  0.00  0.00    +0.000 C 
ATOM     22  C   UNL     1       1.126   7.881  20.468  0.00  0.00    +0.000 C 
ATOM     23  C   UNL     1       1.683   8.584  19.215  0.00  0.00    +0.000 C 
ATOM     24  C   UNL     1       0.940   9.892  18.933  0.00  0.00    +0.000 C 
ENDBRANCH  17  22
ENDBRANCH   1  17
BRANCH   4  25
ATOM     25  C   UNL     1       2.488   3.399  17.188  0.00  0.00    +0.000 C 
BRANCH  25  26
ATOM     26  C   UNL     1       2.119   2.141  17.961  0.00  0.00    +0.000 C 
BRANCH  26  27
ATOM     27  O   UNL     1       3.297   1.391  18.258  0.00  0.00    +0.000 OA
ATOM     28  H   UNL     1       3.164   0.492  17.910  0.00  0.00    +0.000 HD
ENDBRANCH  26  27
ENDBRANCH  25  26
ENDBRANCH   4  25
TORSDOF 7
ENDMDL
MODEL 7
REMARK VINA RESULT:      -7.4      2.973      9.177
REMARK  Name = 
REMARK  8 active torsions:
REMARK  status: ('A' for Active; 'I' for Inactive)
REMARK    1  A    between atoms: C_1  and  N_2
REMARK    2  A    between atoms: C_5  and  C_6
REMARK    3  A    between atoms: C_6  and  C_7
REMARK    4  A    between atoms: C_9  and  C_10
REMARK    5  A    between atoms: C_10  and  C_11
REMARK    6  A    between atoms: N_21  and  C_22
REMARK    7  A    between atoms: C_22  and  C_23
REMARK    8  A    between atoms: C_23  and  O_24
REMARK                            x       y       z     vdW  Elec       q    Type
REMARK                         _______ _______ _______ _____ _____    ______ ____
ROOT
ATOM      1  C   UNL     1       1.467   9.552  18.147  0.00  0.00    +0.000 A 
ATOM      2  N   UNL     1       1.657  10.762  18.759  0.00  0.00    +0.000 NA
ATOM      3  C   UNL     1       0.436  11.271  18.880  0.00  0.00    +0.000 A 
ATOM      4  N   UNL     1      -0.443  10.395  18.283  0.00  0.00    +0.000 N 
ATOM      5  N   UNL     1       0.192   9.282  17.864  0.00  0.00    +0.000 NA
ENDROOT
BRANCH   3   6
ATOM      6  C   UNL     1       0.079  12.621  19.525  0.00  0.00    +0.000 C 
ATOM      7  C   UNL     1       1.363  13.398  19.928  0.00  0.00    +0.000 C 
ATOM      8  C   UNL     1       0.933  14.862  19.991  0.00  0.00    +0.000 C 
ATOM      9  C   UNL     1      -0.169  15.005  18.946  0.00  0.00    +0.000 C 
ATOM     10  C   UNL     1      -0.454  13.587  18.433  0.00  0.00    +0.000 C 
BRANCH   6  11
ATOM     11  C   UNL     1      -0.839  12.479  20.767  0.00  0.00    +0.000 A 
ATOM     12  C   UNL     1      -0.376  11.789  21.906  0.00  0.00    +0.000 A 
ATOM     13  C   UNL     1      -1.217  11.554  22.997  0.00  0.00    +0.000 A 
ATOM     14  C   UNL     1      -2.532  12.007  22.984  0.00  0.00    +0.000 A 
ATOM     15  C   UNL     1      -3.002  12.718  21.888  0.00  0.00    +0.000 A 
ATOM     16  C   UNL     1      -2.163  12.957  20.796  0.00  0.00    +0.000 A 
ENDBRANCH   6  11
ENDBRANCH   3   6
BRANCH   1  17
ATOM     17  C   UNL     1       2.550   8.602  17.749  0.00  0.00    +0.000 C 
BRANCH  17  22
ATOM     18  C   UNL     1       3.075   3.402  20.195  0.00  0.00    +0.000 C 
ATOM     19  N   UNL     1       3.250   4.784  19.741  0.00  0.00    +0.000 NA
ATOM     20  C   UNL     1       3.368   4.822  18.276  0.00  0.00    +0.000 C 
ATOM     21  C   UNL     1       3.552   6.251  17.758  0.00  0.00    +0.000 C 
ATOM     22  C   UNL     1       2.386   7.145  18.201  0.00  0.00    +0.000 C 
ATOM     23  C   UNL     1       2.281   7.069  19.737  0.00  0.00    +0.000 C 
ATOM     24  C   UNL     1       2.140   5.622  20.214  0.00  0.00    +0.000 C 
ENDBRANCH  17  22
ENDBRANCH   1  17
BRANCH   4  25
ATOM     25  C   UNL     1      -1.871  10.462  18.098  0.00  0.00    +0.000 C 
BRANCH  25  26
ATOM     26  C   UNL     1      -2.312  10.280  16.654  0.00  0.00    +0.000 C 
BRANCH  26  27
ATOM     27  O   UNL     1      -2.342  11.545  15.992  0.00  0.00    +0.000 OA
ATOM     28  H   UNL     1      -2.710  12.192  16.619  0.00  0.00    +0.000 HD
ENDBRANCH  26  27
ENDBRANCH  25  26
ENDBRANCH   4  25
TORSDOF 7
ENDMDL
MODEL 8
REMARK VINA RESULT:      -7.4      1.603      1.921
REMARK  Name = 
REMARK  8 active torsions:
REMARK  status: ('A' for Active; 'I' for Inactive)
REMARK    1  A    between atoms: C_1  and  N_2
REMARK    2  A    between atoms: C_5  and  C_6
REMARK    3  A    between atoms: C_6  and  C_7
REMARK    4  A    between atoms: C_9  and  C_10
REMARK    5  A    between atoms: C_10  and  C_11
REMARK    6  A    between atoms: N_21  and  C_22
REMARK    7  A    between atoms: C_22  and  C_23
REMARK    8  A    between atoms: C_23  and  O_24
REMARK                            x       y       z     vdW  Elec       q    Type
REMARK                         _______ _______ _______ _____ _____    ______ ____
ROOT
ATOM      1  C   UNL     1       2.268   7.177  19.394  0.00  0.00    +0.000 A 
ATOM      2  N   UNL     1       3.013   6.423  18.527  0.00  0.00    +0.000 NA
ATOM      3  C   UNL     1       3.080   5.226  19.098  0.00  0.00    +0.000 A 
ATOM      4  N   UNL     1       2.435   5.306  20.313  0.00  0.00    +0.000 N 
ATOM      5  N   UNL     1       1.874   6.519  20.485  0.00  0.00    +0.000 NA
ENDROOT
BRANCH   3   6
ATOM      6  C   UNL     1       3.791   3.989  18.525  0.00  0.00    +0.000 C 
ATOM      7  C   UNL     1       4.360   3.100  19.666  0.00  0.00    +0.000 C 
ATOM      8  C   UNL     1       4.495   1.709  19.050  0.00  0.00    +0.000 C 
ATOM      9  C   UNL     1       3.373   1.612  18.021  0.00  0.00    +0.000 C 
ATOM     10  C   UNL     1       2.733   3.005  17.957  0.00  0.00    +0.000 C 
BRANCH   6  11
ATOM     11  C   UNL     1       4.936   4.345  17.541  0.00  0.00    +0.000 A 
ATOM     12  C   UNL     1       4.706   4.301  16.151  0.00  0.00    +0.000 A 
ATOM     13  C   UNL     1       5.745   4.512  15.242  0.00  0.00    +0.000 A 
ATOM     14  C   UNL     1       7.033   4.780  15.693  0.00  0.00    +0.000 A 
ATOM     15  C   UNL     1       7.280   4.862  17.057  0.00  0.00    +0.000 A 
ATOM     16  C   UNL     1       6.241   4.654  17.969  0.00  0.00    +0.000 A 
ENDBRANCH   6  11
ENDBRANCH   3   6
BRANCH   1  17
ATOM     17  C   UNL     1       1.940   8.625  19.222  0.00  0.00    +0.000 C 
BRANCH  17  22
ATOM     18  C   UNL     1      -1.180  11.763  22.926  0.00  0.00    +0.000 C 
ATOM     19  N   UNL     1      -0.133  11.200  22.069  0.00  0.00    +0.000 NA
ATOM     20  C   UNL     1       0.181   9.828  22.493  0.00  0.00    +0.000 C 
ATOM     21  C   UNL     1       1.272   9.200  21.621  0.00  0.00    +0.000 C 
ATOM     22  C   UNL     1       0.856   9.198  20.144  0.00  0.00    +0.000 C 
ATOM     23  C   UNL     1       0.519  10.647  19.740  0.00  0.00    +0.000 C 
ATOM     24  C   UNL     1      -0.545  11.249  20.660  0.00  0.00    +0.000 C 
ENDBRANCH  17  22
ENDBRANCH   1  17
BRANCH   4  25
ATOM     25  C   UNL     1       2.237   4.322  21.347  0.00  0.00    +0.000 C 
BRANCH  25  26
ATOM     26  C   UNL     1       1.093   3.358  21.068  0.00  0.00    +0.000 C 
BRANCH  26  27
ATOM     27  O   UNL     1       1.559   2.012  21.159  0.00  0.00    +0.000 OA
ATOM     28  H   UNL     1       0.796   1.457  21.397  0.00  0.00    +0.000 HD
ENDBRANCH  26  27
ENDBRANCH  25  26
ENDBRANCH   4  25
TORSDOF 7
ENDMDL
MODEL 9
REMARK VINA RESULT:      -7.3      1.433      1.895
REMARK  Name = 
REMARK  8 active torsions:
REMARK  status: ('A' for Active; 'I' for Inactive)
REMARK    1  A    between atoms: C_1  and  N_2
REMARK    2  A    between atoms: C_5  and  C_6
REMARK    3  A    between atoms: C_6  and  C_7
REMARK    4  A    between atoms: C_9  and  C_10
REMARK    5  A    between atoms: C_10  and  C_11
REMARK    6  A    between atoms: N_21  and  C_22
REMARK    7  A    between atoms: C_22  and  C_23
REMARK    8  A    between atoms: C_23  and  O_24
REMARK                            x       y       z     vdW  Elec       q    Type
REMARK                         _______ _______ _______ _____ _____    ______ ____
ROOT
ATOM      1  C   UNL     1       1.941   6.769  20.466  0.00  0.00    +0.000 A 
ATOM      2  N   UNL     1       2.871   6.365  19.544  0.00  0.00    +0.000 NA
ATOM      3  C   UNL     1       2.634   5.069  19.377  0.00  0.00    +0.000 A 
ATOM      4  N   UNL     1       1.623   4.713  20.241  0.00  0.00    +0.000 N 
ATOM      5  N   UNL     1       1.143   5.790  20.895  0.00  0.00    +0.000 NA
ENDROOT
BRANCH   3   6
ATOM      6  C   UNL     1       3.390   4.128  18.424  0.00  0.00    +0.000 C 
ATOM      7  C   UNL     1       3.743   2.790  19.132  0.00  0.00    +0.000 C 
ATOM      8  C   UNL     1       3.932   1.783  17.999  0.00  0.00    +0.000 C 
ATOM      9  C   UNL     1       2.985   2.237  16.893  0.00  0.00    +0.000 C 
ATOM     10  C   UNL     1       2.406   3.581  17.354  0.00  0.00    +0.000 C 
BRANCH   6  11
ATOM     11  C   UNL     1       4.687   4.754  17.849  0.00  0.00    +0.000 A 
ATOM     12  C   UNL     1       4.665   5.375  16.583  0.00  0.00    +0.000 A 
ATOM     13  C   UNL     1       5.838   5.852  15.994  0.00  0.00    +0.000 A 
ATOM     14  C   UNL     1       7.057   5.732  16.653  0.00  0.00    +0.000 A 
ATOM     15  C   UNL     1       7.101   5.156  17.916  0.00  0.00    +0.000 A 
ATOM     16  C   UNL     1       5.929   4.679  18.508  0.00  0.00    +0.000 A 
ENDBRANCH   6  11
ENDBRANCH   3   6
BRANCH   1  17
ATOM     17  C   UNL     1       1.818   8.148  21.025  0.00  0.00    +0.000 C 
BRANCH  17  22
ATOM     18  C   UNL     1      -1.320  12.379  18.667  0.00  0.00    +0.000 C 
ATOM     19  N   UNL     1      -0.264  11.548  19.253  0.00  0.00    +0.000 NA
ATOM     20  C   UNL     1      -0.629  11.163  20.624  0.00  0.00    +0.000 C 
ATOM     21  C   UNL     1       0.449  10.292  21.275  0.00  0.00    +0.000 C 
ATOM     22  C   UNL     1       0.707   9.031  20.440  0.00  0.00    +0.000 C 
ATOM     23  C   UNL     1       1.070   9.470  19.009  0.00  0.00    +0.000 C 
ATOM     24  C   UNL     1      -0.013  10.371  18.411  0.00  0.00    +0.000 C 
ENDBRANCH  17  22
ENDBRANCH   1  17
BRANCH   4  25
ATOM     25  C   UNL     1       0.999   3.439  20.498  0.00  0.00    +0.000 C 
BRANCH  25  26
ATOM     26  C   UNL     1       1.284   2.885  21.886  0.00  0.00    +0.000 C 
BRANCH  26  27
ATOM     27  O   UNL     1       2.687   2.681  22.050  0.00  0.00    +0.000 OA
ATOM     28  H   UNL     1       2.911   1.841  21.612  0.00  0.00    +0.000 HD
ENDBRANCH  26  27
ENDBRANCH  25  26
ENDBRANCH   4  25
TORSDOF 7
ENDMDL
