MODEL 1
REMARK VINA RESULT:      -7.5      0.000      0.000
REMARK  Name = 
REMARK  7 active torsions:
REMARK  status: ('A' for Active; 'I' for Inactive)
REMARK    1  A    between atoms: C_1  and  O_2
REMARK    2  A    between atoms: O_2  and  C_3
REMARK    3  A    between atoms: C_6  and  C_7
REMARK    4  A    between atoms: C_7  and  O_8
REMARK    5  A    between atoms: O_8  and  C_9
REMARK    6  A    between atoms: C_19  and  O_20
REMARK    7  A    between atoms: C_19  and  O_21
REMARK                            x       y       z     vdW  Elec       q    Type
REMARK                         _______ _______ _______ _____ _____    ______ ____
ROOT
ATOM      1  C   UNL     1       4.869   4.422  17.960  0.00  0.00    +0.000 C 
ATOM      2  O   UNL     1       4.295   5.752  17.983  0.00  0.00    +0.000 OA
ATOM      3  C   UNL     1       3.341   5.981  18.945  0.00  0.00    +0.000 A 
ATOM      4  C   UNL     1       2.626   7.163  18.831  0.00  0.00    +0.000 A 
ATOM      5  C   UNL     1       1.652   7.474  19.782  0.00  0.00    +0.000 A 
ATOM      6  C   UNL     1       1.462   6.638  20.890  0.00  0.00    +0.000 A 
ATOM      7  C   UNL     1       2.149   5.433  20.981  0.00  0.00    +0.000 A 
ATOM      8  C   UNL     1       3.017   5.071  19.949  0.00  0.00    +0.000 A 
ATOM      9  C   UNL     1       3.349   3.647  19.705  0.00  0.00    +0.000 C 
ATOM     10  O   UNL     1       3.212   2.804  20.577  0.00  0.00    +0.000 OA
ATOM     11  C   UNL     1       3.679   3.369  18.209  0.00  0.00    +0.000 C 
ENDROOT
BRANCH   1  15
ATOM     12  C   UNL     1       6.973   4.833  14.189  0.00  0.00    +0.000 A 
ATOM     13  C   UNL     1       7.655   4.988  15.392  0.00  0.00    +0.000 A 
ATOM     14  C   UNL     1       7.029   4.711  16.615  0.00  0.00    +0.000 A 
ATOM     15  C   UNL     1       5.686   4.265  16.663  0.00  0.00    +0.000 A 
ATOM     16  C   UNL     1       5.052   4.026  15.432  0.00  0.00    +0.000 A 
ATOM     17  C   UNL     1       5.676   4.328  14.207  0.00  0.00    +0.000 A 
BRANCH  12  19
ATOM     18  C   UNL     1       7.379   4.594  11.863  0.00  0.00    +0.000 C 
ATOM     19  O   UNL     1       7.640   5.277  13.083  0.00  0.00    +0.000 OA
ENDBRANCH  12  19
ENDBRANCH   1  15
BRANCH   1  20
ATOM     20  O   UNL     1       5.842   4.225  19.032  0.00  0.00    +0.000 OA
ATOM     21  C   UNL     1       6.614   5.345  19.430  0.00  0.00    +0.000 C 
ENDBRANCH   1  20
BRANCH  11  22
ATOM     22  O   UNL     1       2.472   3.624  17.486  0.00  0.00    +0.000 OA
ATOM     23  H   UNL     1       1.760   3.299  18.058  0.00  0.00    +0.000 HD
ENDBRANCH  11  22
BRANCH  11  24
ATOM     24  O   UNL     1       3.970   2.047  17.834  0.00  0.00    +0.000 OA
ATOM     25  H   UNL     1       3.321   1.898  17.122  0.00  0.00    +0.000 HD
ENDBRANCH  11  24
TORSDOF 5
ENDMDL
MODEL 2
REMARK VINA RESULT:      -7.3      2.381      4.113
REMARK  Name = 
REMARK  7 active torsions:
REMARK  status: ('A' for Active; 'I' for Inactive)
REMARK    1  A    between atoms: C_1  and  O_2
REMARK    2  A    between atoms: O_2  and  C_3
REMARK    3  A    between atoms: C_6  and  C_7
REMARK    4  A    between atoms: C_7  and  O_8
REMARK    5  A    between atoms: O_8  and  C_9
REMARK    6  A    between atoms: C_19  and  O_20
REMARK    7  A    between atoms: C_19  and  O_21
REMARK                            x       y       z     vdW  Elec       q    Type
REMARK                         _______ _______ _______ _____ _____    ______ ____
ROOT
ATOM      1  C   UNL     1       4.514   5.079  18.155  0.00  0.00    +0.000 C 
ATOM      2  O   UNL     1       4.596   4.183  19.290  0.00  0.00    +0.000 OA
ATOM      3  C   UNL     1       3.406   3.658  19.733  0.00  0.00    +0.000 A 
ATOM      4  C   UNL     1       3.443   2.991  20.947  0.00  0.00    +0.000 A 
ATOM      5  C   UNL     1       2.276   2.415  21.453  0.00  0.00    +0.000 A 
ATOM      6  C   UNL     1       1.098   2.435  20.694  0.00  0.00    +0.000 A 
ATOM      7  C   UNL     1       1.051   3.141  19.497  0.00  0.00    +0.000 A 
ATOM      8  C   UNL     1       2.190   3.830  19.074  0.00  0.00    +0.000 A 
ATOM      9  C   UNL     1       2.075   4.987  18.155  0.00  0.00    +0.000 C 
ATOM     10  O   UNL     1       1.092   5.143  17.449  0.00  0.00    +0.000 OA
ATOM     11  C   UNL     1       3.224   6.018  18.361  0.00  0.00    +0.000 C 
ENDROOT
BRANCH   1  15
ATOM     12  C   UNL     1       8.025   7.624  18.287  0.00  0.00    +0.000 A 
ATOM     13  C   UNL     1       7.958   6.480  19.078  0.00  0.00    +0.000 A 
ATOM     14  C   UNL     1       6.902   5.569  18.938  0.00  0.00    +0.000 A 
ATOM     15  C   UNL     1       5.874   5.783  17.988  0.00  0.00    +0.000 A 
ATOM     16  C   UNL     1       6.016   6.893  17.139  0.00  0.00    +0.000 A 
ATOM     17  C   UNL     1       7.065   7.819  17.298  0.00  0.00    +0.000 A 
BRANCH  12  19
ATOM     18  C   UNL     1       8.740   9.883  18.414  0.00  0.00    +0.000 C 
ATOM     19  O   UNL     1       9.014   8.503  18.622  0.00  0.00    +0.000 OA
ENDBRANCH  12  19
ENDBRANCH   1  15
BRANCH   1  20
ATOM     20  O   UNL     1       4.318   4.359  16.900  0.00  0.00    +0.000 OA
ATOM     21  C   UNL     1       5.434   3.674  16.356  0.00  0.00    +0.000 C 
ENDBRANCH   1  20
BRANCH  11  22
ATOM     22  O   UNL     1       3.050   6.541  19.680  0.00  0.00    +0.000 OA
ATOM     23  H   UNL     1       2.225   7.049  19.646  0.00  0.00    +0.000 HD
ENDBRANCH  11  22
BRANCH  11  24
ATOM     24  O   UNL     1       3.209   7.185  17.580  0.00  0.00    +0.000 OA
ATOM     25  H   UNL     1       2.466   7.676  17.975  0.00  0.00    +0.000 HD
ENDBRANCH  11  24
TORSDOF 5
ENDMDL
MODEL 3
REMARK VINA RESULT:      -7.2      1.422      1.822
REMARK  Name = 
REMARK  7 active torsions:
REMARK  status: ('A' for Active; 'I' for Inactive)
REMARK    1  A    between atoms: C_1  and  O_2
REMARK    2  A    between atoms: O_2  and  C_3
REMARK    3  A    between atoms: C_6  and  C_7
REMARK    4  A    between atoms: C_7  and  O_8
REMARK    5  A    between atoms: O_8  and  C_9
REMARK    6  A    between atoms: C_19  and  O_20
REMARK    7  A    between atoms: C_19  and  O_21
REMARK                            x       y       z     vdW  Elec       q    Type
REMARK                         _______ _______ _______ _____ _____    ______ ____
ROOT
ATOM      1  C   UNL     1       4.228   5.643  18.161  0.00  0.00    +0.000 C 
ATOM      2  O   UNL     1       3.839   6.987  17.785  0.00  0.00    +0.000 OA
ATOM      3  C   UNL     1       2.858   7.568  18.552  0.00  0.00    +0.000 A 
ATOM      4  C   UNL     1       2.320   8.750  18.067  0.00  0.00    +0.000 A 
ATOM      5  C   UNL     1       1.330   9.408  18.801  0.00  0.00    +0.000 A 
ATOM      6  C   UNL     1       0.951   8.923  20.059  0.00  0.00    +0.000 A 
ATOM      7  C   UNL     1       1.460   7.716  20.524  0.00  0.00    +0.000 A 
ATOM      8  C   UNL     1       2.344   6.998  19.715  0.00  0.00    +0.000 A 
ATOM      9  C   UNL     1       2.497   5.533  19.877  0.00  0.00    +0.000 C 
ATOM     10  O   UNL     1       2.185   4.972  20.914  0.00  0.00    +0.000 OA
ATOM     11  C   UNL     1       2.892   4.833  18.543  0.00  0.00    +0.000 C 
ENDROOT
BRANCH   1  15
ATOM     12  C   UNL     1       5.982   4.107  14.502  0.00  0.00    +0.000 A 
ATOM     13  C   UNL     1       6.150   5.443  14.852  0.00  0.00    +0.000 A 
ATOM     14  C   UNL     1       5.722   5.920  16.099  0.00  0.00    +0.000 A 
ATOM     15  C   UNL     1       5.107   5.057  17.038  0.00  0.00    +0.000 A 
ATOM     16  C   UNL     1       5.036   3.696  16.698  0.00  0.00    +0.000 A 
ATOM     17  C   UNL     1       5.445   3.225  15.436  0.00  0.00    +0.000 A 
BRANCH  12  19
ATOM     18  C   UNL     1       5.242   3.339  12.382  0.00  0.00    +0.000 C 
ATOM     19  O   UNL     1       6.302   3.801  13.211  0.00  0.00    +0.000 OA
ENDBRANCH  12  19
ENDBRANCH   1  15
BRANCH   1  20
ATOM     20  O   UNL     1       5.086   5.629  19.342  0.00  0.00    +0.000 OA
ATOM     21  C   UNL     1       6.489   5.600  19.134  0.00  0.00    +0.000 C 
ENDBRANCH   1  20
BRANCH  11  22
ATOM     22  O   UNL     1       1.786   5.021  17.657  0.00  0.00    +0.000 OA
ATOM     23  H   UNL     1       1.038   4.578  18.087  0.00  0.00    +0.000 HD
ENDBRANCH  11  22
BRANCH  11  24
ATOM     24  O   UNL     1       3.028   3.435  18.548  0.00  0.00    +0.000 OA
ATOM     25  H   UNL     1       3.964   3.330  18.799  0.00  0.00    +0.000 HD
ENDBRANCH  11  24
TORSDOF 5
ENDMDL
MODEL 4
REMARK VINA RESULT:      -7.1      1.805      6.544
REMARK  Name = 
REMARK  7 active torsions:
REMARK  status: ('A' for Active; 'I' for Inactive)
REMARK    1  A    between atoms: C_1  and  O_2
REMARK    2  A    between atoms: O_2  and  C_3
REMARK    3  A    between atoms: C_6  and  C_7
REMARK    4  A    between atoms: C_7  and  O_8
REMARK    5  A    between atoms: O_8  and  C_9
REMARK    6  A    between atoms: C_19  and  O_20
REMARK    7  A    between atoms: C_19  and  O_21
REMARK                            x       y       z     vdW  Elec       q    Type
REMARK                         _______ _______ _______ _____ _____    ______ ____
ROOT
ATOM      1  C   UNL     1       4.809   4.717  16.610  0.00  0.00    +0.000 C 
ATOM      2  O   UNL     1       4.663   4.043  15.335  0.00  0.00    +0.000 OA
ATOM      3  C   UNL     1       5.661   4.265  14.418  0.00  0.00    +0.000 A 
ATOM      4  C   UNL     1       5.420   3.818  13.128  0.00  0.00    +0.000 A 
ATOM      5  C   UNL     1       6.396   3.992  12.144  0.00  0.00    +0.000 A 
ATOM      6  C   UNL     1       7.643   4.534  12.482  0.00  0.00    +0.000 A 
ATOM      7  C   UNL     1       7.868   5.020  13.765  0.00  0.00    +0.000 A 
ATOM      8  C   UNL     1       6.832   4.967  14.699  0.00  0.00    +0.000 A 
ATOM      9  C   UNL     1       6.801   5.903  15.848  0.00  0.00    +0.000 C 
ATOM     10  O   UNL     1       7.812   6.464  16.238  0.00  0.00    +0.000 OA
ATOM     11  C   UNL     1       5.349   6.204  16.321  0.00  0.00    +0.000 C 
ENDROOT
BRANCH   1  15
ATOM     12  C   UNL     1       1.585   4.008  19.425  0.00  0.00    +0.000 A 
ATOM     13  C   UNL     1       2.212   5.250  19.375  0.00  0.00    +0.000 A 
ATOM     14  C   UNL     1       3.148   5.545  18.375  0.00  0.00    +0.000 A 
ATOM     15  C   UNL     1       3.483   4.589  17.385  0.00  0.00    +0.000 A 
ATOM     16  C   UNL     1       2.768   3.380  17.401  0.00  0.00    +0.000 A 
ATOM     17  C   UNL     1       1.846   3.078  18.422  0.00  0.00    +0.000 A 
BRANCH  12  19
ATOM     18  C   UNL     1       1.308   2.868  21.488  0.00  0.00    +0.000 C 
ATOM     19  O   UNL     1       0.811   3.793  20.529  0.00  0.00    +0.000 OA
ENDBRANCH  12  19
ENDBRANCH   1  15
BRANCH   1  20
ATOM     20  O   UNL     1       5.797   4.065  17.465  0.00  0.00    +0.000 OA
ATOM     21  C   UNL     1       5.806   4.414  18.840  0.00  0.00    +0.000 C 
ENDBRANCH   1  20
BRANCH  11  22
ATOM     22  O   UNL     1       4.715   6.887  15.236  0.00  0.00    +0.000 OA
ATOM     23  H   UNL     1       4.126   6.231  14.832  0.00  0.00    +0.000 HD
ENDBRANCH  11  22
BRANCH  11  24
ATOM     24  O   UNL     1       5.176   7.112  17.378  0.00  0.00    +0.000 OA
ATOM     25  H   UNL     1       5.131   6.514  18.146  0.00  0.00    +0.000 HD
ENDBRANCH  11  24
TORSDOF 5
ENDMDL
MODEL 5
REMARK VINA RESULT:      -6.9      1.127      1.251
REMARK  Name = 
REMARK  7 active torsions:
REMARK  status: ('A' for Active; 'I' for Inactive)
REMARK    1  A    between atoms: C_1  and  O_2
REMARK    2  A    between atoms: O_2  and  C_3
REMARK    3  A    between atoms: C_6  and  C_7
REMARK    4  A    between atoms: C_7  and  O_8
REMARK    5  A    between atoms: O_8  and  C_9
REMARK    6  A    between atoms: C_19  and  O_20
REMARK    7  A    between atoms: C_19  and  O_21
REMARK                            x       y       z     vdW  Elec       q    Type
REMARK                         _______ _______ _______ _____ _____    ______ ____
ROOT
ATOM      1  C   UNL     1       3.957   5.044  17.924  0.00  0.00    +0.000 C 
ATOM      2  O   UNL     1       3.629   6.435  18.160  0.00  0.00    +0.000 OA
ATOM      3  C   UNL     1       2.728   6.680  19.168  0.00  0.00    +0.000 A 
ATOM      4  C   UNL     1       2.235   7.973  19.250  0.00  0.00    +0.000 A 
ATOM      5  C   UNL     1       1.328   8.302  20.260  0.00  0.00    +0.000 A 
ATOM      6  C   UNL     1       0.991   7.355  21.235  0.00  0.00    +0.000 A 
ATOM      7  C   UNL     1       1.452   6.048  21.128  0.00  0.00    +0.000 A 
ATOM      8  C   UNL     1       2.245   5.699  20.033  0.00  0.00    +0.000 A 
ATOM      9  C   UNL     1       2.320   4.293  19.570  0.00  0.00    +0.000 C 
ATOM     10  O   UNL     1       2.033   3.365  20.309  0.00  0.00    +0.000 OA
ATOM     11  C   UNL     1       2.599   4.191  18.042  0.00  0.00    +0.000 C 
ENDROOT
BRANCH   1  15
ATOM     12  C   UNL     1       6.830   5.063  14.674  0.00  0.00    +0.000 A 
ATOM     13  C   UNL     1       6.611   3.901  15.408  0.00  0.00    +0.000 A 
ATOM     14  C   UNL     1       5.583   3.834  16.359  0.00  0.00    +0.000 A 
ATOM     15  C   UNL     1       4.737   4.944  16.599  0.00  0.00    +0.000 A 
ATOM     16  C   UNL     1       4.918   6.070  15.778  0.00  0.00    +0.000 A 
ATOM     17  C   UNL     1       5.967   6.143  14.842  0.00  0.00    +0.000 A 
BRANCH  12  19
ATOM     18  C   UNL     1       7.752   5.196  12.491  0.00  0.00    +0.000 C 
ATOM     19  O   UNL     1       7.950   5.053  13.893  0.00  0.00    +0.000 OA
ENDBRANCH  12  19
ENDBRANCH   1  15
BRANCH   1  20
ATOM     20  O   UNL     1       4.877   4.518  18.930  0.00  0.00    +0.000 OA
ATOM     21  C   UNL     1       6.008   5.308  19.261  0.00  0.00    +0.000 C 
ENDBRANCH   1  20
BRANCH  11  22
ATOM     22  O   UNL     1       1.459   4.761  17.395  0.00  0.00    +0.000 OA
ATOM     23  H   UNL     1       1.052   5.339  18.059  0.00  0.00    +0.000 HD
ENDBRANCH  11  22
BRANCH  11  24
ATOM     24  O   UNL     1       2.651   2.911  17.466  0.00  0.00    +0.000 OA
ATOM     25  H   UNL     1       2.263   3.075  16.588  0.00  0.00    +0.000 HD
ENDBRANCH  11  24
TORSDOF 5
ENDMDL
MODEL 6
REMARK VINA RESULT:      -6.8      0.807      1.046
REMARK  Name = 
REMARK  7 active torsions:
REMARK  status: ('A' for Active; 'I' for Inactive)
REMARK    1  A    between atoms: C_1  and  O_2
REMARK    2  A    between atoms: O_2  and  C_3
REMARK    3  A    between atoms: C_6  and  C_7
REMARK    4  A    between atoms: C_7  and  O_8
REMARK    5  A    between atoms: O_8  and  C_9
REMARK    6  A    between atoms: C_19  and  O_20
REMARK    7  A    between atoms: C_19  and  O_21
REMARK                            x       y       z     vdW  Elec       q    Type
REMARK                         _______ _______ _______ _____ _____    ______ ____
ROOT
ATOM      1  C   UNL     1       4.823   4.937  18.043  0.00  0.00    +0.000 C 
ATOM      2  O   UNL     1       4.178   6.214  18.273  0.00  0.00    +0.000 OA
ATOM      3  C   UNL     1       3.191   6.229  19.229  0.00  0.00    +0.000 A 
ATOM      4  C   UNL     1       2.417   7.376  19.294  0.00  0.00    +0.000 A 
ATOM      5  C   UNL     1       1.406   7.472  20.253  0.00  0.00    +0.000 A 
ATOM      6  C   UNL     1       1.237   6.451  21.198  0.00  0.00    +0.000 A 
ATOM      7  C   UNL     1       1.986   5.283  21.105  0.00  0.00    +0.000 A 
ATOM      8  C   UNL     1       2.895   5.145  20.055  0.00  0.00    +0.000 A 
ATOM      9  C   UNL     1       3.309   3.803  19.584  0.00  0.00    +0.000 C 
ATOM     10  O   UNL     1       3.198   2.817  20.296  0.00  0.00    +0.000 OA
ATOM     11  C   UNL     1       3.687   3.799  18.074  0.00  0.00    +0.000 C 
ENDROOT
BRANCH   1  15
ATOM     12  C   UNL     1       6.644   4.655  14.116  0.00  0.00    +0.000 A 
ATOM     13  C   UNL     1       5.727   5.665  14.392  0.00  0.00    +0.000 A 
ATOM     14  C   UNL     1       5.244   5.863  15.693  0.00  0.00    +0.000 A 
ATOM     15  C   UNL     1       5.676   5.044  16.764  0.00  0.00    +0.000 A 
ATOM     16  C   UNL     1       6.672   4.096  16.477  0.00  0.00    +0.000 A 
ATOM     17  C   UNL     1       7.137   3.883  15.165  0.00  0.00    +0.000 A 
BRANCH  12  19
ATOM     18  C   UNL     1       6.339   3.328  12.172  0.00  0.00    +0.000 C 
ATOM     19  O   UNL     1       6.921   4.468  12.792  0.00  0.00    +0.000 OA
ENDBRANCH  12  19
ENDBRANCH   1  15
BRANCH   1  20
ATOM     20  O   UNL     1       5.781   4.609  19.096  0.00  0.00    +0.000 OA
ATOM     21  C   UNL     1       6.780   5.569  19.396  0.00  0.00    +0.000 C 
ENDBRANCH   1  20
BRANCH  11  22
ATOM     22  O   UNL     1       2.485   4.114  17.367  0.00  0.00    +0.000 OA
ATOM     23  H   UNL     1       1.920   4.564  18.014  0.00  0.00    +0.000 HD
ENDBRANCH  11  22
BRANCH  11  24
ATOM     24  O   UNL     1       4.057   2.577  17.490  0.00  0.00    +0.000 OA
ATOM     25  H   UNL     1       3.452   1.956  17.934  0.00  0.00    +0.000 HD
ENDBRANCH  11  24
TORSDOF 5
ENDMDL
MODEL 7
REMARK VINA RESULT:      -6.7      1.913      6.511
REMARK  Name = 
REMARK  7 active torsions:
REMARK  status: ('A' for Active; 'I' for Inactive)
REMARK    1  A    between atoms: C_1  and  O_2
REMARK    2  A    between atoms: O_2  and  C_3
REMARK    3  A    between atoms: C_6  and  C_7
REMARK    4  A    between atoms: C_7  and  O_8
REMARK    5  A    between atoms: O_8  and  C_9
REMARK    6  A    between atoms: C_19  and  O_20
REMARK    7  A    between atoms: C_19  and  O_21
REMARK                            x       y       z     vdW  Elec       q    Type
REMARK                         _______ _______ _______ _____ _____    ______ ____
ROOT
ATOM      1  C   UNL     1       5.400   4.735  16.921  0.00  0.00    +0.000 C 
ATOM      2  O   UNL     1       5.018   3.933  15.778  0.00  0.00    +0.000 OA
ATOM      3  C   UNL     1       5.757   4.121  14.634  0.00  0.00    +0.000 A 
ATOM      4  C   UNL     1       5.262   3.536  13.480  0.00  0.00    +0.000 A 
ATOM      5  C   UNL     1       5.967   3.669  12.282  0.00  0.00    +0.000 A 
ATOM      6  C   UNL     1       7.211   4.314  12.269  0.00  0.00    +0.000 A 
ATOM      7  C   UNL     1       7.686   4.936  13.418  0.00  0.00    +0.000 A 
ATOM      8  C   UNL     1       6.902   4.914  14.572  0.00  0.00    +0.000 A 
ATOM      9  C   UNL     1       7.061   5.955  15.615  0.00  0.00    +0.000 C 
ATOM     10  O   UNL     1       8.087   6.610  15.708  0.00  0.00    +0.000 OA
ATOM     11  C   UNL     1       5.738   6.216  16.393  0.00  0.00    +0.000 C 
ENDROOT
BRANCH   1  15
ATOM     12  C   UNL     1       2.058   3.670  19.475  0.00  0.00    +0.000 A 
ATOM     13  C   UNL     1       3.340   3.216  19.773  0.00  0.00    +0.000 A 
ATOM     14  C   UNL     1       4.451   3.672  19.049  0.00  0.00    +0.000 A 
ATOM     15  C   UNL     1       4.303   4.607  17.996  0.00  0.00    +0.000 A 
ATOM     16  C   UNL     1       3.013   5.120  17.779  0.00  0.00    +0.000 A 
ATOM     17  C   UNL     1       1.896   4.642  18.492  0.00  0.00    +0.000 A 
BRANCH  12  19
ATOM     18  C   UNL     1       1.294   2.720  21.511  0.00  0.00    +0.000 C 
ATOM     19  O   UNL     1       1.050   3.041  20.147  0.00  0.00    +0.000 OA
ENDBRANCH  12  19
ENDBRANCH   1  15
BRANCH   1  20
ATOM     20  O   UNL     1       6.607   4.230  17.569  0.00  0.00    +0.000 OA
ATOM     21  C   UNL     1       7.152   4.997  18.630  0.00  0.00    +0.000 C 
ENDBRANCH   1  20
BRANCH  11  22
ATOM     22  O   UNL     1       4.819   6.751  15.437  0.00  0.00    +0.000 OA
ATOM     23  H   UNL     1       4.348   7.457  15.905  0.00  0.00    +0.000 HD
ENDBRANCH  11  22
BRANCH  11  24
ATOM     24  O   UNL     1       5.741   7.212  17.383  0.00  0.00    +0.000 OA
ATOM     25  H   UNL     1       6.541   7.718  17.150  0.00  0.00    +0.000 HD
ENDBRANCH  11  24
TORSDOF 5
ENDMDL
MODEL 8
REMARK VINA RESULT:      -6.6      1.527      2.661
REMARK  Name = 
REMARK  7 active torsions:
REMARK  status: ('A' for Active; 'I' for Inactive)
REMARK    1  A    between atoms: C_1  and  O_2
REMARK    2  A    between atoms: O_2  and  C_3
REMARK    3  A    between atoms: C_6  and  C_7
REMARK    4  A    between atoms: C_7  and  O_8
REMARK    5  A    between atoms: O_8  and  C_9
REMARK    6  A    between atoms: C_19  and  O_20
REMARK    7  A    between atoms: C_19  and  O_21
REMARK                            x       y       z     vdW  Elec       q    Type
REMARK                         _______ _______ _______ _____ _____    ______ ____
ROOT
ATOM      1  C   UNL     1       4.361   4.554  17.412  0.00  0.00    +0.000 C 
ATOM      2  O   UNL     1       3.414   3.474  17.225  0.00  0.00    +0.000 OA
ATOM      3  C   UNL     1       2.483   3.308  18.222  0.00  0.00    +0.000 A 
ATOM      4  C   UNL     1       1.727   2.148  18.170  0.00  0.00    +0.000 A 
ATOM      5  C   UNL     1       0.748   1.919  19.139  0.00  0.00    +0.000 A 
ATOM      6  C   UNL     1       0.473   2.898  20.103  0.00  0.00    +0.000 A 
ATOM      7  C   UNL     1       1.260   4.041  20.181  0.00  0.00    +0.000 A 
ATOM      8  C   UNL     1       2.326   4.189  19.291  0.00  0.00    +0.000 A 
ATOM      9  C   UNL     1       3.482   5.051  19.634  0.00  0.00    +0.000 C 
ATOM     10  O   UNL     1       3.392   5.932  20.473  0.00  0.00    +0.000 OA
ATOM     11  C   UNL     1       4.799   4.564  18.959  0.00  0.00    +0.000 C 
ENDROOT
BRANCH   1  15
ATOM     12  C   UNL     1       7.356   4.993  14.305  0.00  0.00    +0.000 A 
ATOM     13  C   UNL     1       7.708   5.143  15.643  0.00  0.00    +0.000 A 
ATOM     14  C   UNL     1       6.792   4.857  16.664  0.00  0.00    +0.000 A 
ATOM     15  C   UNL     1       5.483   4.407  16.365  0.00  0.00    +0.000 A 
ATOM     16  C   UNL     1       5.185   4.173  15.012  0.00  0.00    +0.000 A 
ATOM     17  C   UNL     1       6.100   4.484  13.988  0.00  0.00    +0.000 A 
BRANCH  12  19
ATOM     18  C   UNL     1       7.868   5.527  12.049  0.00  0.00    +0.000 C 
ATOM     19  O   UNL     1       8.282   5.445  13.408  0.00  0.00    +0.000 OA
ENDBRANCH  12  19
ENDBRANCH   1  15
BRANCH   1  20
ATOM     20  O   UNL     1       3.768   5.859  17.130  0.00  0.00    +0.000 OA
ATOM     21  C   UNL     1       4.646   6.966  17.008  0.00  0.00    +0.000 C 
ENDBRANCH   1  20
BRANCH  11  22
ATOM     22  O   UNL     1       5.079   3.281  19.525  0.00  0.00    +0.000 OA
ATOM     23  H   UNL     1       6.036   3.275  19.680  0.00  0.00    +0.000 HD
ENDBRANCH  11  22
BRANCH  11  24
ATOM     24  O   UNL     1       5.981   5.270  19.236  0.00  0.00    +0.000 OA
ATOM     25  H   UNL     1       6.406   5.293  18.359  0.00  0.00    +0.000 HD
ENDBRANCH  11  24
TORSDOF 5
ENDMDL
MODEL 9
REMARK VINA RESULT:      -6.6      1.726      2.600
REMARK  Name = 
REMARK  7 active torsions:
REMARK  status: ('A' for Active; 'I' for Inactive)
REMARK    1  A    between atoms: C_1  and  O_2
REMARK    2  A    between atoms: O_2  and  C_3
REMARK    3  A    between atoms: C_6  and  C_7
REMARK    4  A    between atoms: C_7  and  O_8
REMARK    5  A    between atoms: O_8  and  C_9
REMARK    6  A    between atoms: C_19  and  O_20
REMARK    7  A    between atoms: C_19  and  O_21
REMARK                            x       y       z     vdW  Elec       q    Type
REMARK                         _______ _______ _______ _____ _____    ______ ____
ROOT
ATOM      1  C   UNL     1       5.014   5.103  16.753  0.00  0.00    +0.000 C 
ATOM      2  O   UNL     1       3.587   4.853  16.803  0.00  0.00    +0.000 OA
ATOM      3  C   UNL     1       3.048   4.683  18.055  0.00  0.00    +0.000 A 
ATOM      4  C   UNL     1       1.743   4.219  18.103  0.00  0.00    +0.000 A 
ATOM      5  C   UNL     1       1.120   4.039  19.340  0.00  0.00    +0.000 A 
ATOM      6  C   UNL     1       1.782   4.411  20.519  0.00  0.00    +0.000 A 
ATOM      7  C   UNL     1       3.105   4.835  20.472  0.00  0.00    +0.000 A 
ATOM      8  C   UNL     1       3.758   4.876  19.238  0.00  0.00    +0.000 A 
ATOM      9  C   UNL     1       5.236   4.790  19.163  0.00  0.00    +0.000 C 
ATOM     10  O   UNL     1       5.939   5.064  20.122  0.00  0.00    +0.000 OA
ATOM     11  C   UNL     1       5.720   4.142  17.832  0.00  0.00    +0.000 C 
ENDROOT
BRANCH   1  15
ATOM     12  C   UNL     1       6.683   3.987  12.907  0.00  0.00    +0.000 A 
ATOM     13  C   UNL     1       5.362   3.675  13.215  0.00  0.00    +0.000 A 
ATOM     14  C   UNL     1       4.762   4.157  14.386  0.00  0.00    +0.000 A 
ATOM     15  C   UNL     1       5.481   4.977  15.290  0.00  0.00    +0.000 A 
ATOM     16  C   UNL     1       6.779   5.355  14.909  0.00  0.00    +0.000 A 
ATOM     17  C   UNL     1       7.387   4.849  13.744  0.00  0.00    +0.000 A 
BRANCH  12  19
ATOM     18  C   UNL     1       6.548   2.130  11.435  0.00  0.00    +0.000 C 
ATOM     19  O   UNL     1       7.195   3.337  11.822  0.00  0.00    +0.000 OA
ENDBRANCH  12  19
ENDBRANCH   1  15
BRANCH   1  20
ATOM     20  O   UNL     1       5.344   6.475  17.126  0.00  0.00    +0.000 OA
ATOM     21  C   UNL     1       4.419   7.491  16.776  0.00  0.00    +0.000 C 
ENDBRANCH   1  20
BRANCH  11  22
ATOM     22  O   UNL     1       5.245   2.793  17.857  0.00  0.00    +0.000 OA
ATOM     23  H   UNL     1       5.248   2.506  16.930  0.00  0.00    +0.000 HD
ENDBRANCH  11  22
BRANCH  11  24
ATOM     24  O   UNL     1       7.101   3.961  17.651  0.00  0.00    +0.000 OA
ATOM     25  H   UNL     1       7.133   3.579  16.756  0.00  0.00    +0.000 HD
ENDBRANCH  11  24
TORSDOF 5
ENDMDL
