MODEL 1
REMARK VINA RESULT:      -7.4      0.000      0.000
REMARK  Name = 
REMARK  10 active torsions:
REMARK  status: ('A' for Active; 'I' for Inactive)
REMARK    1  A    between atoms: C_1  and  C_2
REMARK    2  A    between atoms: C_3  and  C_4
REMARK    3  A    between atoms: C_7  and  O_8
REMARK    4  A    between atoms: O_8  and  C_9
REMARK    5  A    between atoms: C_9  and  C_10
REMARK    6  A    between atoms: C_10  and  O_11
REMARK    7  A    between atoms: O_11  and  C_12
REMARK    8  A    between atoms: C_15  and  C_16
REMARK    9  A    between atoms: C_20  and  O_21
REMARK   10  A    between atoms: O_21  and  C_22
REMARK                            x       y       z     vdW  Elec       q    Type
REMARK                         _______ _______ _______ _____ _____    ______ ____
ROOT
ATOM      1  O   UNL     1       6.946   6.907  16.596  0.00  0.00    +0.000 OA
ENDROOT
BRANCH   1   5
ATOM      2  C   UNL     1       3.766   4.253  17.239  0.00  0.00    +0.000 A 
ATOM      3  C   UNL     1       3.790   5.475  17.908  0.00  0.00    +0.000 A 
ATOM      4  C   UNL     1       4.821   6.383  17.673  0.00  0.00    +0.000 A 
ATOM      5  C   UNL     1       5.862   6.076  16.785  0.00  0.00    +0.000 A 
ATOM      6  C   UNL     1       5.812   4.876  16.053  0.00  0.00    +0.000 A 
ATOM      7  C   UNL     1       4.761   3.979  16.291  0.00  0.00    +0.000 A 
BRANCH   2  10
ATOM      8  C   UNL     1       0.714   2.453  18.774  0.00  0.00    +0.000 C 
ATOM      9  C   UNL     1       1.793   3.445  18.502  0.00  0.00    +0.000 C 
ATOM     10  C   UNL     1       2.657   3.322  17.483  0.00  0.00    +0.000 C 
ENDBRANCH   2  10
BRANCH   6  11
ATOM     11  O   UNL     1       6.814   4.645  15.138  0.00  0.00    +0.000 OA
ATOM     12  C   UNL     1       6.440   3.992  13.928  0.00  0.00    +0.000 C 
ENDBRANCH   6  11
ENDBRANCH   1   5
BRANCH   1  13
ATOM     13  C   UNL     1       7.653   7.238  17.796  0.00  0.00    +0.000 C 
BRANCH  13  14
ATOM     14  C   UNL     1       8.001   8.721  17.829  0.00  0.00    +0.000 C 
BRANCH  14  15
ATOM     15  O   UNL     1       8.844   8.933  18.968  0.00  0.00    +0.000 OA
BRANCH  15  16
ATOM     16  C   UNL     1       9.300  10.205  19.161  0.00  0.00    +0.000 A 
ATOM     17  C   UNL     1       9.391  10.990  18.008  0.00  0.00    +0.000 A 
ATOM     18  C   UNL     1       9.846  12.310  18.084  0.00  0.00    +0.000 A 
ATOM     19  C   UNL     1      10.187  12.849  19.324  0.00  0.00    +0.000 A 
ATOM     20  C   UNL     1      10.073  12.082  20.483  0.00  0.00    +0.000 A 
ATOM     21  C   UNL     1       9.627  10.759  20.400  0.00  0.00    +0.000 A 
BRANCH  19  22
ATOM     22  C   UNL     1      10.665  14.244  19.428  0.00  0.00    +0.000 C 
ATOM     23  O   UNL     1       9.906  15.200  19.414  0.00  0.00    +0.000 OA
ENDBRANCH  19  22
ENDBRANCH  15  16
ENDBRANCH  14  15
ENDBRANCH  13  14
ENDBRANCH   1  13
TORSDOF 8
ENDMDL
MODEL 2
REMARK VINA RESULT:      -7.2      4.603      6.884
REMARK  Name = 
REMARK  10 active torsions:
REMARK  status: ('A' for Active; 'I' for Inactive)
REMARK    1  A    between atoms: C_1  and  C_2
REMARK    2  A    between atoms: C_3  and  C_4
REMARK    3  A    between atoms: C_7  and  O_8
REMARK    4  A    between atoms: O_8  and  C_9
REMARK    5  A    between atoms: C_9  and  C_10
REMARK    6  A    between atoms: C_10  and  O_11
REMARK    7  A    between atoms: O_11  and  C_12
REMARK    8  A    between atoms: C_15  and  C_16
REMARK    9  A    between atoms: C_20  and  O_21
REMARK   10  A    between atoms: O_21  and  C_22
REMARK                            x       y       z     vdW  Elec       q    Type
REMARK                         _______ _______ _______ _____ _____    ______ ____
ROOT
ATOM      1  O   UNL     1       4.184   3.986  19.668  0.00  0.00    +0.000 OA
ENDROOT
BRANCH   1   5
ATOM      2  C   UNL     1       6.009   4.295  15.907  0.00  0.00    +0.000 A 
ATOM      3  C   UNL     1       4.699   3.832  16.001  0.00  0.00    +0.000 A 
ATOM      4  C   UNL     1       4.067   3.763  17.241  0.00  0.00    +0.000 A 
ATOM      5  C   UNL     1       4.742   4.127  18.415  0.00  0.00    +0.000 A 
ATOM      6  C   UNL     1       6.041   4.660  18.326  0.00  0.00    +0.000 A 
ATOM      7  C   UNL     1       6.658   4.736  17.068  0.00  0.00    +0.000 A 
BRANCH   2  10
ATOM      8  C   UNL     1       6.841   3.860  12.161  0.00  0.00    +0.000 C 
ATOM      9  C   UNL     1       6.146   3.817  13.480  0.00  0.00    +0.000 C 
ATOM     10  C   UNL     1       6.648   4.383  14.588  0.00  0.00    +0.000 C 
ENDBRANCH   2  10
BRANCH   6  11
ATOM     11  O   UNL     1       6.642   5.074  19.492  0.00  0.00    +0.000 OA
ATOM     12  C   UNL     1       7.945   5.640  19.377  0.00  0.00    +0.000 C 
ENDBRANCH   6  11
ENDBRANCH   1   5
BRANCH   1  13
ATOM     13  C   UNL     1       2.904   3.343  19.676  0.00  0.00    +0.000 C 
BRANCH  13  14
ATOM     14  C   UNL     1       1.781   4.371  19.709  0.00  0.00    +0.000 C 
BRANCH  14  15
ATOM     15  O   UNL     1       2.247   5.484  20.481  0.00  0.00    +0.000 OA
BRANCH  15  16
ATOM     16  C   UNL     1       2.028   6.726  19.956  0.00  0.00    +0.000 A 
ATOM     17  C   UNL     1       1.326   7.608  20.783  0.00  0.00    +0.000 A 
ATOM     18  C   UNL     1       1.043   8.908  20.351  0.00  0.00    +0.000 A 
ATOM     19  C   UNL     1       1.486   9.328  19.097  0.00  0.00    +0.000 A 
ATOM     20  C   UNL     1       2.211   8.462  18.279  0.00  0.00    +0.000 A 
ATOM     21  C   UNL     1       2.484   7.160  18.711  0.00  0.00    +0.000 A 
BRANCH  19  22
ATOM     22  C   UNL     1       1.202  10.698  18.623  0.00  0.00    +0.000 C 
ATOM     23  O   UNL     1       2.083  11.461  18.257  0.00  0.00    +0.000 OA
ENDBRANCH  19  22
ENDBRANCH  15  16
ENDBRANCH  14  15
ENDBRANCH  13  14
ENDBRANCH   1  13
TORSDOF 8
ENDMDL
MODEL 3
REMARK VINA RESULT:      -7.1      3.239      7.128
REMARK  Name = 
REMARK  10 active torsions:
REMARK  status: ('A' for Active; 'I' for Inactive)
REMARK    1  A    between atoms: C_1  and  C_2
REMARK    2  A    between atoms: C_3  and  C_4
REMARK    3  A    between atoms: C_7  and  O_8
REMARK    4  A    between atoms: O_8  and  C_9
REMARK    5  A    between atoms: C_9  and  C_10
REMARK    6  A    between atoms: C_10  and  O_11
REMARK    7  A    between atoms: O_11  and  C_12
REMARK    8  A    between atoms: C_15  and  C_16
REMARK    9  A    between atoms: C_20  and  O_21
REMARK   10  A    between atoms: O_21  and  C_22
REMARK                            x       y       z     vdW  Elec       q    Type
REMARK                         _______ _______ _______ _____ _____    ______ ____
ROOT
ATOM      1  O   UNL     1       4.417   3.372  17.124  0.00  0.00    +0.000 OA
ENDROOT
BRANCH   1   5
ATOM      2  C   UNL     1       7.169   6.462  17.795  0.00  0.00    +0.000 A 
ATOM      3  C   UNL     1       6.715   5.699  18.869  0.00  0.00    +0.000 A 
ATOM      4  C   UNL     1       5.831   4.642  18.653  0.00  0.00    +0.000 A 
ATOM      5  C   UNL     1       5.362   4.348  17.365  0.00  0.00    +0.000 A 
ATOM      6  C   UNL     1       5.865   5.067  16.266  0.00  0.00    +0.000 A 
ATOM      7  C   UNL     1       6.765   6.117  16.499  0.00  0.00    +0.000 A 
BRANCH   2  10
ATOM      8  C   UNL     1       8.810   9.946  18.086  0.00  0.00    +0.000 C 
ATOM      9  C   UNL     1       7.814   8.852  17.896  0.00  0.00    +0.000 C 
ATOM     10  C   UNL     1       8.119   7.554  18.042  0.00  0.00    +0.000 C 
ENDBRANCH   2  10
BRANCH   6  11
ATOM     11  O   UNL     1       5.435   4.699  15.013  0.00  0.00    +0.000 OA
ATOM     12  C   UNL     1       6.418   4.168  14.127  0.00  0.00    +0.000 C 
ENDBRANCH   6  11
ENDBRANCH   1   5
BRANCH   1  13
ATOM     13  C   UNL     1       3.858   2.786  18.305  0.00  0.00    +0.000 C 
BRANCH  13  14
ATOM     14  C   UNL     1       2.459   3.328  18.570  0.00  0.00    +0.000 C 
BRANCH  14  15
ATOM     15  O   UNL     1       2.551   4.208  19.696  0.00  0.00    +0.000 OA
BRANCH  15  16
ATOM     16  C   UNL     1       2.322   5.533  19.455  0.00  0.00    +0.000 A 
ATOM     17  C   UNL     1       1.980   6.293  20.578  0.00  0.00    +0.000 A 
ATOM     18  C   UNL     1       1.721   7.661  20.453  0.00  0.00    +0.000 A 
ATOM     19  C   UNL     1       1.829   8.271  19.204  0.00  0.00    +0.000 A 
ATOM     20  C   UNL     1       2.197   7.525  18.084  0.00  0.00    +0.000 A 
ATOM     21  C   UNL     1       2.446   6.154  18.212  0.00  0.00    +0.000 A 
BRANCH  19  22
ATOM     22  C   UNL     1       1.565   9.717  19.050  0.00  0.00    +0.000 C 
ATOM     23  O   UNL     1       1.202  10.209  17.993  0.00  0.00    +0.000 OA
ENDBRANCH  19  22
ENDBRANCH  15  16
ENDBRANCH  14  15
ENDBRANCH  13  14
ENDBRANCH   1  13
TORSDOF 8
ENDMDL
MODEL 4
REMARK VINA RESULT:      -7.0      4.722      6.999
REMARK  Name = 
REMARK  10 active torsions:
REMARK  status: ('A' for Active; 'I' for Inactive)
REMARK    1  A    between atoms: C_1  and  C_2
REMARK    2  A    between atoms: C_3  and  C_4
REMARK    3  A    between atoms: C_7  and  O_8
REMARK    4  A    between atoms: O_8  and  C_9
REMARK    5  A    between atoms: C_9  and  C_10
REMARK    6  A    between atoms: C_10  and  O_11
REMARK    7  A    between atoms: O_11  and  C_12
REMARK    8  A    between atoms: C_15  and  C_16
REMARK    9  A    between atoms: C_20  and  O_21
REMARK   10  A    between atoms: O_21  and  C_22
REMARK                            x       y       z     vdW  Elec       q    Type
REMARK                         _______ _______ _______ _____ _____    ______ ____
ROOT
ATOM      1  O   UNL     1       3.996   4.322  19.830  0.00  0.00    +0.000 OA
ENDROOT
BRANCH   1   5
ATOM      2  C   UNL     1       5.869   4.168  16.083  0.00  0.00    +0.000 A 
ATOM      3  C   UNL     1       4.513   3.866  16.188  0.00  0.00    +0.000 A 
ATOM      4  C   UNL     1       3.869   3.952  17.422  0.00  0.00    +0.000 A 
ATOM      5  C   UNL     1       4.575   4.315  18.578  0.00  0.00    +0.000 A 
ATOM      6  C   UNL     1       5.927   4.688  18.472  0.00  0.00    +0.000 A 
ATOM      7  C   UNL     1       6.556   4.609  17.221  0.00  0.00    +0.000 A 
BRANCH   2  10
ATOM      8  C   UNL     1       6.561   3.675  12.316  0.00  0.00    +0.000 C 
ATOM      9  C   UNL     1       5.871   3.811  13.631  0.00  0.00    +0.000 C 
ATOM     10  C   UNL     1       6.522   4.094  14.770  0.00  0.00    +0.000 C 
ENDBRANCH   2  10
BRANCH   6  11
ATOM     11  O   UNL     1       6.563   5.108  19.617  0.00  0.00    +0.000 OA
ATOM     12  C   UNL     1       7.762   5.860  19.446  0.00  0.00    +0.000 C 
ENDBRANCH   6  11
ENDBRANCH   1   5
BRANCH   1  13
ATOM     13  C   UNL     1       2.567   4.410  19.819  0.00  0.00    +0.000 C 
BRANCH  13  14
ATOM     14  C   UNL     1       2.093   5.643  20.577  0.00  0.00    +0.000 C 
BRANCH  14  15
ATOM     15  O   UNL     1       2.730   6.779  19.978  0.00  0.00    +0.000 OA
BRANCH  15  16
ATOM     16  C   UNL     1       1.940   7.868  19.743  0.00  0.00    +0.000 A 
ATOM     17  C   UNL     1       1.939   8.331  18.424  0.00  0.00    +0.000 A 
ATOM     18  C   UNL     1       1.168   9.441  18.065  0.00  0.00    +0.000 A 
ATOM     19  C   UNL     1       0.379  10.071  19.027  0.00  0.00    +0.000 A 
ATOM     20  C   UNL     1       0.353   9.598  20.339  0.00  0.00    +0.000 A 
ATOM     21  C   UNL     1       1.134   8.493  20.695  0.00  0.00    +0.000 A 
BRANCH  19  22
ATOM     22  C   UNL     1      -0.447  11.243  18.668  0.00  0.00    +0.000 C 
ATOM     23  O   UNL     1      -0.307  12.332  19.202  0.00  0.00    +0.000 OA
ENDBRANCH  19  22
ENDBRANCH  15  16
ENDBRANCH  14  15
ENDBRANCH  13  14
ENDBRANCH   1  13
TORSDOF 8
ENDMDL
MODEL 5
REMARK VINA RESULT:      -7.0      0.711      1.232
REMARK  Name = 
REMARK  10 active torsions:
REMARK  status: ('A' for Active; 'I' for Inactive)
REMARK    1  A    between atoms: C_1  and  C_2
REMARK    2  A    between atoms: C_3  and  C_4
REMARK    3  A    between atoms: C_7  and  O_8
REMARK    4  A    between atoms: O_8  and  C_9
REMARK    5  A    between atoms: C_9  and  C_10
REMARK    6  A    between atoms: C_10  and  O_11
REMARK    7  A    between atoms: O_11  and  C_12
REMARK    8  A    between atoms: C_15  and  C_16
REMARK    9  A    between atoms: C_20  and  O_21
REMARK   10  A    between atoms: O_21  and  C_22
REMARK                            x       y       z     vdW  Elec       q    Type
REMARK                         _______ _______ _______ _____ _____    ______ ____
ROOT
ATOM      1  O   UNL     1       7.378   6.788  16.961  0.00  0.00    +0.000 OA
ENDROOT
BRANCH   1   5
ATOM      2  C   UNL     1       4.293   4.039  17.663  0.00  0.00    +0.000 A 
ATOM      3  C   UNL     1       4.877   4.707  18.737  0.00  0.00    +0.000 A 
ATOM      4  C   UNL     1       5.876   5.653  18.513  0.00  0.00    +0.000 A 
ATOM      5  C   UNL     1       6.330   5.928  17.215  0.00  0.00    +0.000 A 
ATOM      6  C   UNL     1       5.701   5.311  16.119  0.00  0.00    +0.000 A 
ATOM      7  C   UNL     1       4.688   4.371  16.361  0.00  0.00    +0.000 A 
BRANCH   2  10
ATOM      8  C   UNL     1       0.951   2.390  18.676  0.00  0.00    +0.000 C 
ATOM      9  C   UNL     1       2.002   3.398  18.358  0.00  0.00    +0.000 C 
ATOM     10  C   UNL     1       3.225   3.064  17.919  0.00  0.00    +0.000 C 
ENDBRANCH   2  10
BRANCH   6  11
ATOM     11  O   UNL     1       6.126   5.662  14.859  0.00  0.00    +0.000 OA
ATOM     12  C   UNL     1       6.755   4.643  14.086  0.00  0.00    +0.000 C 
ENDBRANCH   6  11
ENDBRANCH   1   5
BRANCH   1  13
ATOM     13  C   UNL     1       7.994   7.332  18.134  0.00  0.00    +0.000 C 
BRANCH  13  14
ATOM     14  C   UNL     1       8.219   8.831  17.983  0.00  0.00    +0.000 C 
BRANCH  14  15
ATOM     15  O   UNL     1       9.055   9.245  19.070  0.00  0.00    +0.000 OA
BRANCH  15  16
ATOM     16  C   UNL     1       9.347  10.577  19.143  0.00  0.00    +0.000 A 
ATOM     17  C   UNL     1       9.526  11.080  20.435  0.00  0.00    +0.000 A 
ATOM     18  C   UNL     1       9.828  12.431  20.632  0.00  0.00    +0.000 A 
ATOM     19  C   UNL     1       9.975  13.272  19.528  0.00  0.00    +0.000 A 
ATOM     20  C   UNL     1       9.826  12.771  18.235  0.00  0.00    +0.000 A 
ATOM     21  C   UNL     1       9.514  11.421  18.044  0.00  0.00    +0.000 A 
BRANCH  19  22
ATOM     22  C   UNL     1      10.299  14.701  19.714  0.00  0.00    +0.000 C 
ATOM     23  O   UNL     1       9.713  15.590  19.116  0.00  0.00    +0.000 OA
ENDBRANCH  19  22
ENDBRANCH  15  16
ENDBRANCH  14  15
ENDBRANCH  13  14
ENDBRANCH   1  13
TORSDOF 8
ENDMDL
MODEL 6
REMARK VINA RESULT:      -6.9      4.347      7.919
REMARK  Name = 
REMARK  10 active torsions:
REMARK  status: ('A' for Active; 'I' for Inactive)
REMARK    1  A    between atoms: C_1  and  C_2
REMARK    2  A    between atoms: C_3  and  C_4
REMARK    3  A    between atoms: C_7  and  O_8
REMARK    4  A    between atoms: O_8  and  C_9
REMARK    5  A    between atoms: C_9  and  C_10
REMARK    6  A    between atoms: C_10  and  O_11
REMARK    7  A    between atoms: O_11  and  C_12
REMARK    8  A    between atoms: C_15  and  C_16
REMARK    9  A    between atoms: C_20  and  O_21
REMARK   10  A    between atoms: O_21  and  C_22
REMARK                            x       y       z     vdW  Elec       q    Type
REMARK                         _______ _______ _______ _____ _____    ______ ____
ROOT
ATOM      1  O   UNL     1       7.337   6.696  17.695  0.00  0.00    +0.000 OA
ENDROOT
BRANCH   1   5
ATOM      2  C   UNL     1       5.728   4.680  14.391  0.00  0.00    +0.000 A 
ATOM      3  C   UNL     1       6.947   4.267  14.923  0.00  0.00    +0.000 A 
ATOM      4  C   UNL     1       7.474   4.903  16.046  0.00  0.00    +0.000 A 
ATOM      5  C   UNL     1       6.805   5.982  16.642  0.00  0.00    +0.000 A 
ATOM      6  C   UNL     1       5.541   6.364  16.156  0.00  0.00    +0.000 A 
ATOM      7  C   UNL     1       5.019   5.704  15.034  0.00  0.00    +0.000 A 
BRANCH   2  10
ATOM      8  C   UNL     1       5.315   2.416  11.290  0.00  0.00    +0.000 C 
ATOM      9  C   UNL     1       5.863   3.069  12.514  0.00  0.00    +0.000 C 
ATOM     10  C   UNL     1       5.180   3.980  13.223  0.00  0.00    +0.000 C 
ENDBRANCH   2  10
BRANCH   6  11
ATOM     11  O   UNL     1       4.885   7.379  16.813  0.00  0.00    +0.000 OA
ATOM     12  C   UNL     1       3.785   7.003  17.638  0.00  0.00    +0.000 C 
ENDBRANCH   6  11
ENDBRANCH   1   5
BRANCH   1  13
ATOM     13  C   UNL     1       7.719   5.895  18.819  0.00  0.00    +0.000 C 
BRANCH  13  14
ATOM     14  C   UNL     1       6.493   5.408  19.580  0.00  0.00    +0.000 C 
BRANCH  14  15
ATOM     15  O   UNL     1       6.177   4.102  19.083  0.00  0.00    +0.000 OA
BRANCH  15  16
ATOM     16  C   UNL     1       4.855   3.836  18.863  0.00  0.00    +0.000 A 
ATOM     17  C   UNL     1       3.992   4.196  19.901  0.00  0.00    +0.000 A 
ATOM     18  C   UNL     1       2.617   3.971  19.788  0.00  0.00    +0.000 A 
ATOM     19  C   UNL     1       2.106   3.404  18.620  0.00  0.00    +0.000 A 
ATOM     20  C   UNL     1       2.958   3.068  17.569  0.00  0.00    +0.000 A 
ATOM     21  C   UNL     1       4.334   3.286  17.691  0.00  0.00    +0.000 A 
BRANCH  19  22
ATOM     22  C   UNL     1       0.655   3.162  18.477  0.00  0.00    +0.000 C 
ATOM     23  O   UNL     1       0.111   2.162  18.919  0.00  0.00    +0.000 OA
ENDBRANCH  19  22
ENDBRANCH  15  16
ENDBRANCH  14  15
ENDBRANCH  13  14
ENDBRANCH   1  13
TORSDOF 8
ENDMDL
MODEL 7
REMARK VINA RESULT:      -6.9      5.437      7.669
REMARK  Name = 
REMARK  10 active torsions:
REMARK  status: ('A' for Active; 'I' for Inactive)
REMARK    1  A    between atoms: C_1  and  C_2
REMARK    2  A    between atoms: C_3  and  C_4
REMARK    3  A    between atoms: C_7  and  O_8
REMARK    4  A    between atoms: O_8  and  C_9
REMARK    5  A    between atoms: C_9  and  C_10
REMARK    6  A    between atoms: C_10  and  O_11
REMARK    7  A    between atoms: O_11  and  C_12
REMARK    8  A    between atoms: C_15  and  C_16
REMARK    9  A    between atoms: C_20  and  O_21
REMARK   10  A    between atoms: O_21  and  C_22
REMARK                            x       y       z     vdW  Elec       q    Type
REMARK                         _______ _______ _______ _____ _____    ______ ____
ROOT
ATOM      1  O   UNL     1       3.489   5.992  19.108  0.00  0.00    +0.000 OA
ENDROOT
BRANCH   1   5
ATOM      2  C   UNL     1       5.521   4.866  15.620  0.00  0.00    +0.000 A 
ATOM      3  C   UNL     1       5.371   6.217  15.924  0.00  0.00    +0.000 A 
ATOM      4  C   UNL     1       4.732   6.604  17.101  0.00  0.00    +0.000 A 
ATOM      5  C   UNL     1       4.207   5.648  17.982  0.00  0.00    +0.000 A 
ATOM      6  C   UNL     1       4.413   4.282  17.720  0.00  0.00    +0.000 A 
ATOM      7  C   UNL     1       5.070   3.909  16.538  0.00  0.00    +0.000 A 
BRANCH   2  10
ATOM      8  C   UNL     1       6.374   3.375  12.161  0.00  0.00    +0.000 C 
ATOM      9  C   UNL     1       5.634   3.817  13.377  0.00  0.00    +0.000 C 
ATOM     10  C   UNL     1       6.219   4.481  14.386  0.00  0.00    +0.000 C 
ENDBRANCH   2  10
BRANCH   6  11
ATOM     11  O   UNL     1       3.946   3.378  18.646  0.00  0.00    +0.000 OA
ATOM     12  C   UNL     1       3.499   2.120  18.147  0.00  0.00    +0.000 C 
ENDBRANCH   6  11
ENDBRANCH   1   5
BRANCH   1  13
ATOM     13  C   UNL     1       2.186   6.522  18.839  0.00  0.00    +0.000 C 
BRANCH  13  14
ATOM     14  C   UNL     1       2.070   7.956  19.340  0.00  0.00    +0.000 C 
BRANCH  14  15
ATOM     15  O   UNL     1       1.654   7.895  20.709  0.00  0.00    +0.000 OA
BRANCH  15  16
ATOM     16  C   UNL     1       0.841   8.901  21.146  0.00  0.00    +0.000 A 
ATOM     17  C   UNL     1       0.633   8.944  22.528  0.00  0.00    +0.000 A 
ATOM     18  C   UNL     1      -0.182   9.931  23.089  0.00  0.00    +0.000 A 
ATOM     19  C   UNL     1      -0.770  10.890  22.265  0.00  0.00    +0.000 A 
ATOM     20  C   UNL     1      -0.545  10.871  20.889  0.00  0.00    +0.000 A 
ATOM     21  C   UNL     1       0.264   9.875  20.330  0.00  0.00    +0.000 A 
BRANCH  19  22
ATOM     22  C   UNL     1      -1.631  11.945  22.839  0.00  0.00    +0.000 C 
ATOM     23  O   UNL     1      -2.755  12.175  22.419  0.00  0.00    +0.000 OA
ENDBRANCH  19  22
ENDBRANCH  15  16
ENDBRANCH  14  15
ENDBRANCH  13  14
ENDBRANCH   1  13
TORSDOF 8
ENDMDL
MODEL 8
REMARK VINA RESULT:      -6.8      1.112      1.151
REMARK  Name = 
REMARK  10 active torsions:
REMARK  status: ('A' for Active; 'I' for Inactive)
REMARK    1  A    between atoms: C_1  and  C_2
REMARK    2  A    between atoms: C_3  and  C_4
REMARK    3  A    between atoms: C_7  and  O_8
REMARK    4  A    between atoms: O_8  and  C_9
REMARK    5  A    between atoms: C_9  and  C_10
REMARK    6  A    between atoms: C_10  and  O_11
REMARK    7  A    between atoms: O_11  and  C_12
REMARK    8  A    between atoms: C_15  and  C_16
REMARK    9  A    between atoms: C_20  and  O_21
REMARK   10  A    between atoms: O_21  and  C_22
REMARK                            x       y       z     vdW  Elec       q    Type
REMARK                         _______ _______ _______ _____ _____    ______ ____
ROOT
ATOM      1  O   UNL     1       7.918   6.446  17.853  0.00  0.00    +0.000 OA
ENDROOT
BRANCH   1   5
ATOM      2  C   UNL     1       4.554   3.945  17.899  0.00  0.00    +0.000 A 
ATOM      3  C   UNL     1       4.818   4.764  18.994  0.00  0.00    +0.000 A 
ATOM      4  C   UNL     1       5.911   5.630  18.974  0.00  0.00    +0.000 A 
ATOM      5  C   UNL     1       6.776   5.672  17.872  0.00  0.00    +0.000 A 
ATOM      6  C   UNL     1       6.481   4.900  16.734  0.00  0.00    +0.000 A 
ATOM      7  C   UNL     1       5.370   4.044  16.764  0.00  0.00    +0.000 A 
BRANCH   2  10
ATOM      8  C   UNL     1       1.080   2.425  18.632  0.00  0.00    +0.000 C 
ATOM      9  C   UNL     1       2.235   3.365  18.553  0.00  0.00    +0.000 C 
ATOM     10  C   UNL     1       3.384   3.058  17.931  0.00  0.00    +0.000 C 
ENDBRANCH   2  10
BRANCH   6  11
ATOM     11  O   UNL     1       7.313   5.025  15.646  0.00  0.00    +0.000 OA
ATOM     12  C   UNL     1       6.798   4.589  14.390  0.00  0.00    +0.000 C 
ENDBRANCH   6  11
ENDBRANCH   1   5
BRANCH   1  13
ATOM     13  C   UNL     1       7.694   7.820  17.516  0.00  0.00    +0.000 C 
BRANCH  13  14
ATOM     14  C   UNL     1       8.443   8.741  18.471  0.00  0.00    +0.000 C 
BRANCH  14  15
ATOM     15  O   UNL     1       8.306  10.074  17.967  0.00  0.00    +0.000 OA
BRANCH  15  16
ATOM     16  C   UNL     1       9.204  10.996  18.427  0.00  0.00    +0.000 A 
ATOM     17  C   UNL     1       9.235  12.203  17.722  0.00  0.00    +0.000 A 
ATOM     18  C   UNL     1      10.115  13.220  18.102  0.00  0.00    +0.000 A 
ATOM     19  C   UNL     1      10.948  13.034  19.205  0.00  0.00    +0.000 A 
ATOM     20  C   UNL     1      10.903  11.844  19.930  0.00  0.00    +0.000 A 
ATOM     21  C   UNL     1      10.027  10.825  19.540  0.00  0.00    +0.000 A 
BRANCH  19  22
ATOM     22  C   UNL     1      11.882  14.099  19.626  0.00  0.00    +0.000 C 
ATOM     23  O   UNL     1      11.539  15.265  19.740  0.00  0.00    +0.000 OA
ENDBRANCH  19  22
ENDBRANCH  15  16
ENDBRANCH  14  15
ENDBRANCH  13  14
ENDBRANCH   1  13
TORSDOF 8
ENDMDL
MODEL 9
REMARK VINA RESULT:      -6.8      5.494      7.569
REMARK  Name = 
REMARK  10 active torsions:
REMARK  status: ('A' for Active; 'I' for Inactive)
REMARK    1  A    between atoms: C_1  and  C_2
REMARK    2  A    between atoms: C_3  and  C_4
REMARK    3  A    between atoms: C_7  and  O_8
REMARK    4  A    between atoms: O_8  and  C_9
REMARK    5  A    between atoms: C_9  and  C_10
REMARK    6  A    between atoms: C_10  and  O_11
REMARK    7  A    between atoms: O_11  and  C_12
REMARK    8  A    between atoms: C_15  and  C_16
REMARK    9  A    between atoms: C_20  and  O_21
REMARK   10  A    between atoms: O_21  and  C_22
REMARK                            x       y       z     vdW  Elec       q    Type
REMARK                         _______ _______ _______ _____ _____    ______ ____
ROOT
ATOM      1  O   UNL     1       3.279   6.620  18.356  0.00  0.00    +0.000 OA
ENDROOT
BRANCH   1   5
ATOM      2  C   UNL     1       5.442   4.661  15.347  0.00  0.00    +0.000 A 
ATOM      3  C   UNL     1       5.451   6.052  15.407  0.00  0.00    +0.000 A 
ATOM      4  C   UNL     1       4.769   6.715  16.426  0.00  0.00    +0.000 A 
ATOM      5  C   UNL     1       4.041   6.000  17.389  0.00  0.00    +0.000 A 
ATOM      6  C   UNL     1       4.081   4.594  17.379  0.00  0.00    +0.000 A 
ATOM      7  C   UNL     1       4.783   3.942  16.354  0.00  0.00    +0.000 A 
BRANCH   2  10
ATOM      8  C   UNL     1       6.414   2.936  12.032  0.00  0.00    +0.000 C 
ATOM      9  C   UNL     1       5.664   3.684  13.081  0.00  0.00    +0.000 C 
ATOM     10  C   UNL     1       6.187   3.982  14.280  0.00  0.00    +0.000 C 
ENDBRANCH   2  10
BRANCH   6  11
ATOM     11  O   UNL     1       3.414   3.930  18.383  0.00  0.00    +0.000 OA
ATOM     12  C   UNL     1       4.216   3.284  19.368  0.00  0.00    +0.000 C 
ENDBRANCH   6  11
ENDBRANCH   1   5
BRANCH   1  13
ATOM     13  C   UNL     1       2.930   7.976  18.054  0.00  0.00    +0.000 C 
BRANCH  13  14
ATOM     14  C   UNL     1       1.589   8.343  18.676  0.00  0.00    +0.000 C 
BRANCH  14  15
ATOM     15  O   UNL     1       1.726   8.199  20.094  0.00  0.00    +0.000 OA
BRANCH  15  16
ATOM     16  C   UNL     1       0.964   9.026  20.869  0.00  0.00    +0.000 A 
ATOM     17  C   UNL     1       0.361  10.091  20.192  0.00  0.00    +0.000 A 
ATOM     18  C   UNL     1      -0.442  11.004  20.882  0.00  0.00    +0.000 A 
ATOM     19  C   UNL     1      -0.660  10.833  22.249  0.00  0.00    +0.000 A 
ATOM     20  C   UNL     1      -0.085   9.757  22.925  0.00  0.00    +0.000 A 
ATOM     21  C   UNL     1       0.726   8.852  22.232  0.00  0.00    +0.000 A 
BRANCH  19  22
ATOM     22  C   UNL     1      -1.510  11.783  22.996  0.00  0.00    +0.000 C 
ATOM     23  O   UNL     1      -2.681  11.979  22.711  0.00  0.00    +0.000 OA
ENDBRANCH  19  22
ENDBRANCH  15  16
ENDBRANCH  14  15
ENDBRANCH  13  14
ENDBRANCH   1  13
TORSDOF 8
ENDMDL
