MODEL 1
REMARK VINA RESULT:      -8.8      0.000      0.000
REMARK  Name = 
REMARK  9 active torsions:
REMARK  status: ('A' for Active; 'I' for Inactive)
REMARK    1  A    between atoms: C_1  and  C_2
REMARK    2  A    between atoms: C_2  and  O_3
REMARK    3  A    between atoms: O_3  and  C_4
REMARK    4  A    between atoms: C_7  and  C_8
REMARK    5  A    between atoms: C_8  and  C_9
REMARK    6  A    between atoms: C_9  and  O_11
REMARK    7  A    between atoms: C_13  and  C_14
REMARK    8  A    between atoms: C_23  and  C_25
REMARK    9  A    between atoms: C_25  and  C_26
REMARK                            x       y       z     vdW  Elec       q    Type
REMARK                         _______ _______ _______ _____ _____    ______ ____
ROOT
ATOM      1  C   UNL     1       3.582   3.372  17.804  0.00  0.00    +0.000 A 
ATOM      2  C   UNL     1       3.488   2.052  18.303  0.00  0.00    +0.000 A 
ATOM      3  C   UNL     1       2.582   1.679  19.304  0.00  0.00    +0.000 A 
ATOM      4  C   UNL     1       1.891   2.664  19.976  0.00  0.00    +0.000 A 
ATOM      5  F   UNL     1       1.154   2.347  21.048  0.00  0.00    +0.000 F 
ATOM      6  C   UNL     1       2.018   3.983  19.575  0.00  0.00    +0.000 A 
ATOM      7  C   UNL     1       2.660   4.295  18.354  0.00  0.00    +0.000 A 
ATOM      8  C   UNL     1       2.213   5.615  17.746  0.00  0.00    +0.000 C 
ATOM      9  N   UNL     1       2.275   6.744  18.684  0.00  0.00    +0.000 N 
ATOM     10  C   UNL     1       2.304   8.035  18.161  0.00  0.00    +0.000 C 
ATOM     11  O   UNL     1       2.511   8.196  16.953  0.00  0.00    +0.000 OA
ATOM     12  C   UNL     1       2.467   6.380  20.094  0.00  0.00    +0.000 C 
ATOM     13  C   UNL     1       1.655   5.127  20.487  0.00  0.00    +0.000 C 
ENDROOT
BRANCH   1  19
ATOM     14  C   UNL     1       5.997   4.246  17.383  0.00  0.00    +0.000 A 
ATOM     15  C   UNL     1       6.979   4.667  16.469  0.00  0.00    +0.000 A 
ATOM     16  C   UNL     1       6.738   4.684  15.101  0.00  0.00    +0.000 A 
ATOM     17  C   UNL     1       5.505   4.278  14.598  0.00  0.00    +0.000 A 
ATOM     18  C   UNL     1       4.529   3.838  15.512  0.00  0.00    +0.000 A 
ATOM     19  C   UNL     1       4.739   3.774  16.919  0.00  0.00    +0.000 A 
BRANCH  14  20
ATOM     20  O   UNL     1       6.237   4.288  18.740  0.00  0.00    +0.000 OA
BRANCH  20  22
ATOM     21  C   UNL     1       7.945   5.701  19.693  0.00  0.00    +0.000 C 
ATOM     22  C   UNL     1       6.483   5.582  19.307  0.00  0.00    +0.000 C 
ENDBRANCH  20  22
ENDBRANCH  14  20
BRANCH  17  23
ATOM     23  C   UNL     1       5.318   4.254  13.099  0.00  0.00    +0.000 C 
BRANCH  23  24
ATOM     24  C   UNL     1       6.376   3.531  12.312  0.00  0.00    +0.000 C 
ATOM     25  O   UNL     1       7.353   4.065  11.805  0.00  0.00    +0.000 OA
BRANCH  24  26
ATOM     26  O   UNL     1       6.156   2.194  12.203  0.00  0.00    +0.000 OA
ATOM     27  H   UNL     1       6.234   1.847  11.283  0.00  0.00    +0.000 HD
ENDBRANCH  24  26
ENDBRANCH  23  24
ENDBRANCH  17  23
ENDBRANCH   1  19
BRANCH  10  28
ATOM     28  C   UNL     1       2.172   9.235  19.099  0.00  0.00    +0.000 C 
BRANCH  28  29
ATOM     29  C   UNL     1       0.818   9.929  19.197  0.00  0.00    +0.000 A 
ATOM     30  C   UNL     1      -0.105   9.999  18.161  0.00  0.00    +0.000 A 
ATOM     31  C   UNL     1      -1.296  10.726  18.338  0.00  0.00    +0.000 A 
ATOM     32  C   UNL     1      -1.525  11.380  19.538  0.00  0.00    +0.000 A 
ATOM     33  C   UNL     1      -0.552  11.284  20.516  0.00  0.00    +0.000 A 
ATOM     34  N   UNL     1       0.593  10.577  20.373  0.00  0.00    +0.000 NA
ENDBRANCH  28  29
ENDBRANCH  10  28
TORSDOF 8
ENDMDL
MODEL 2
REMARK VINA RESULT:      -8.1      1.734      3.630
REMARK  Name = 
REMARK  9 active torsions:
REMARK  status: ('A' for Active; 'I' for Inactive)
REMARK    1  A    between atoms: C_1  and  C_2
REMARK    2  A    between atoms: C_2  and  O_3
REMARK    3  A    between atoms: O_3  and  C_4
REMARK    4  A    between atoms: C_7  and  C_8
REMARK    5  A    between atoms: C_8  and  C_9
REMARK    6  A    between atoms: C_9  and  O_11
REMARK    7  A    between atoms: C_13  and  C_14
REMARK    8  A    between atoms: C_23  and  C_25
REMARK    9  A    between atoms: C_25  and  C_26
REMARK                            x       y       z     vdW  Elec       q    Type
REMARK                         _______ _______ _______ _____ _____    ______ ____
ROOT
ATOM      1  C   UNL     1       4.006   3.903  17.472  0.00  0.00    +0.000 A 
ATOM      2  C   UNL     1       4.015   2.490  17.547  0.00  0.00    +0.000 A 
ATOM      3  C   UNL     1       3.009   1.756  18.187  0.00  0.00    +0.000 A 
ATOM      4  C   UNL     1       2.079   2.428  18.951  0.00  0.00    +0.000 A 
ATOM      5  F   UNL     1       1.217   1.739  19.709  0.00  0.00    +0.000 F 
ATOM      6  C   UNL     1       2.085   3.812  18.974  0.00  0.00    +0.000 A 
ATOM      7  C   UNL     1       2.880   4.534  18.055  0.00  0.00    +0.000 A 
ATOM      8  C   UNL     1       2.365   5.935  17.764  0.00  0.00    +0.000 C 
ATOM      9  N   UNL     1       2.099   6.725  18.975  0.00  0.00    +0.000 N 
ATOM     10  C   UNL     1       2.037   8.111  18.857  0.00  0.00    +0.000 C 
ATOM     11  O   UNL     1       2.427   8.650  17.814  0.00  0.00    +0.000 OA
ATOM     12  C   UNL     1       2.091   5.965  20.232  0.00  0.00    +0.000 C 
ATOM     13  C   UNL     1       1.409   4.589  20.075  0.00  0.00    +0.000 C 
ENDROOT
BRANCH   1  19
ATOM     14  C   UNL     1       5.767   4.594  15.685  0.00  0.00    +0.000 A 
ATOM     15  C   UNL     1       6.961   5.271  15.374  0.00  0.00    +0.000 A 
ATOM     16  C   UNL     1       7.675   5.965  16.342  0.00  0.00    +0.000 A 
ATOM     17  C   UNL     1       7.220   6.010  17.657  0.00  0.00    +0.000 A 
ATOM     18  C   UNL     1       6.014   5.350  17.963  0.00  0.00    +0.000 A 
ATOM     19  C   UNL     1       5.232   4.650  17.000  0.00  0.00    +0.000 A 
BRANCH  14  20
ATOM     20  O   UNL     1       5.102   3.865  14.722  0.00  0.00    +0.000 OA
BRANCH  20  22
ATOM     21  C   UNL     1       4.831   3.533  12.347  0.00  0.00    +0.000 C 
ATOM     22  C   UNL     1       5.813   3.618  13.501  0.00  0.00    +0.000 C 
ENDBRANCH  20  22
ENDBRANCH  14  20
BRANCH  17  23
ATOM     23  C   UNL     1       7.999   6.833  18.654  0.00  0.00    +0.000 C 
BRANCH  23  24
ATOM     24  C   UNL     1       8.203   8.281  18.302  0.00  0.00    +0.000 C 
ATOM     25  O   UNL     1       7.676   8.847  17.355  0.00  0.00    +0.000 OA
BRANCH  24  26
ATOM     26  O   UNL     1       9.046   8.934  19.145  0.00  0.00    +0.000 OA
ATOM     27  H   UNL     1       9.328   9.823  18.824  0.00  0.00    +0.000 HD
ENDBRANCH  24  26
ENDBRANCH  23  24
ENDBRANCH  17  23
ENDBRANCH   1  19
BRANCH  10  28
ATOM     28  C   UNL     1       1.573   8.953  20.046  0.00  0.00    +0.000 C 
BRANCH  28  29
ATOM     29  C   UNL     1       0.377   9.877  19.852  0.00  0.00    +0.000 A 
ATOM     30  C   UNL     1      -0.307  10.037  18.654  0.00  0.00    +0.000 A 
ATOM     31  C   UNL     1      -1.355  10.971  18.569  0.00  0.00    +0.000 A 
ATOM     32  C   UNL     1      -1.679  11.736  19.679  0.00  0.00    +0.000 A 
ATOM     33  C   UNL     1      -0.941  11.539  20.831  0.00  0.00    +0.000 A 
ATOM     34  N   UNL     1       0.060  10.635  20.940  0.00  0.00    +0.000 NA
ENDBRANCH  28  29
ENDBRANCH  10  28
TORSDOF 8
ENDMDL
MODEL 3
REMARK VINA RESULT:      -8.1      0.979      1.262
REMARK  Name = 
REMARK  9 active torsions:
REMARK  status: ('A' for Active; 'I' for Inactive)
REMARK    1  A    between atoms: C_1  and  C_2
REMARK    2  A    between atoms: C_2  and  O_3
REMARK    3  A    between atoms: O_3  and  C_4
REMARK    4  A    between atoms: C_7  and  C_8
REMARK    5  A    between atoms: C_8  and  C_9
REMARK    6  A    between atoms: C_9  and  O_11
REMARK    7  A    between atoms: C_13  and  C_14
REMARK    8  A    between atoms: C_23  and  C_25
REMARK    9  A    between atoms: C_25  and  C_26
REMARK                            x       y       z     vdW  Elec       q    Type
REMARK                         _______ _______ _______ _____ _____    ______ ____
ROOT
ATOM      1  C   UNL     1       3.885   3.627  17.286  0.00  0.00    +0.000 A 
ATOM      2  C   UNL     1       3.876   2.240  17.567  0.00  0.00    +0.000 A 
ATOM      3  C   UNL     1       2.964   1.648  18.449  0.00  0.00    +0.000 A 
ATOM      4  C   UNL     1       2.174   2.461  19.233  0.00  0.00    +0.000 A 
ATOM      5  F   UNL     1       1.422   1.925  20.203  0.00  0.00    +0.000 F 
ATOM      6  C   UNL     1       2.212   3.833  19.050  0.00  0.00    +0.000 A 
ATOM      7  C   UNL     1       2.873   4.381  17.927  0.00  0.00    +0.000 A 
ATOM      8  C   UNL     1       2.348   5.747  17.511  0.00  0.00    +0.000 C 
ATOM      9  N   UNL     1       2.284   6.713  18.617  0.00  0.00    +0.000 N 
ATOM     10  C   UNL     1       2.233   8.069  18.305  0.00  0.00    +0.000 C 
ATOM     11  O   UNL     1       2.472   8.436  17.149  0.00  0.00    +0.000 OA
ATOM     12  C   UNL     1       2.451   6.142  19.960  0.00  0.00    +0.000 C 
ATOM     13  C   UNL     1       1.725   4.787  20.110  0.00  0.00    +0.000 C 
ENDROOT
BRANCH   1  19
ATOM     14  C   UNL     1       5.834   5.328  17.003  0.00  0.00    +0.000 A 
ATOM     15  C   UNL     1       6.838   5.879  16.186  0.00  0.00    +0.000 A 
ATOM     16  C   UNL     1       7.050   5.425  14.891  0.00  0.00    +0.000 A 
ATOM     17  C   UNL     1       6.267   4.402  14.366  0.00  0.00    +0.000 A 
ATOM     18  C   UNL     1       5.276   3.836  15.191  0.00  0.00    +0.000 A 
ATOM     19  C   UNL     1       5.040   4.246  16.534  0.00  0.00    +0.000 A 
BRANCH  14  20
ATOM     20  O   UNL     1       5.603   5.830  18.267  0.00  0.00    +0.000 OA
BRANCH  20  22
ATOM     21  C   UNL     1       7.740   5.824  19.388  0.00  0.00    +0.000 C 
ATOM     22  C   UNL     1       6.344   5.231  19.339  0.00  0.00    +0.000 C 
ENDBRANCH  20  22
ENDBRANCH  14  20
BRANCH  17  23
ATOM     23  C   UNL     1       6.583   3.902  12.976  0.00  0.00    +0.000 C 
BRANCH  23  24
ATOM     24  C   UNL     1       5.502   3.110  12.295  0.00  0.00    +0.000 C 
ATOM     25  O   UNL     1       5.608   1.941  11.950  0.00  0.00    +0.000 OA
BRANCH  24  26
ATOM     26  O   UNL     1       4.359   3.815  12.084  0.00  0.00    +0.000 OA
ATOM     27  H   UNL     1       3.545   3.260  12.046  0.00  0.00    +0.000 HD
ENDBRANCH  24  26
ENDBRANCH  23  24
ENDBRANCH  17  23
ENDBRANCH   1  19
BRANCH  10  28
ATOM     28  C   UNL     1       1.971   9.091  19.411  0.00  0.00    +0.000 C 
BRANCH  28  29
ATOM     29  C   UNL     1       0.703   9.933  19.331  0.00  0.00    +0.000 A 
ATOM     30  C   UNL     1       0.249  10.769  20.342  0.00  0.00    +0.000 A 
ATOM     31  C   UNL     1      -0.972  11.449  20.190  0.00  0.00    +0.000 A 
ATOM     32  C   UNL     1      -1.720  11.258  19.039  0.00  0.00    +0.000 A 
ATOM     33  C   UNL     1      -1.217  10.394  18.083  0.00  0.00    +0.000 A 
ATOM     34  N   UNL     1      -0.037   9.743  18.202  0.00  0.00    +0.000 NA
ENDBRANCH  28  29
ENDBRANCH  10  28
TORSDOF 8
ENDMDL
MODEL 4
REMARK VINA RESULT:      -8.0      0.888      1.010
REMARK  Name = 
REMARK  9 active torsions:
REMARK  status: ('A' for Active; 'I' for Inactive)
REMARK    1  A    between atoms: C_1  and  C_2
REMARK    2  A    between atoms: C_2  and  O_3
REMARK    3  A    between atoms: O_3  and  C_4
REMARK    4  A    between atoms: C_7  and  C_8
REMARK    5  A    between atoms: C_8  and  C_9
REMARK    6  A    between atoms: C_9  and  O_11
REMARK    7  A    between atoms: C_13  and  C_14
REMARK    8  A    between atoms: C_23  and  C_25
REMARK    9  A    between atoms: C_25  and  C_26
REMARK                            x       y       z     vdW  Elec       q    Type
REMARK                         _______ _______ _______ _____ _____    ______ ____
ROOT
ATOM      1  C   UNL     1       3.590   3.680  17.709  0.00  0.00    +0.000 A 
ATOM      2  C   UNL     1       3.590   2.349  18.188  0.00  0.00    +0.000 A 
ATOM      3  C   UNL     1       2.770   1.918  19.238  0.00  0.00    +0.000 A 
ATOM      4  C   UNL     1       2.083   2.860  19.974  0.00  0.00    +0.000 A 
ATOM      5  F   UNL     1       1.434   2.491  21.086  0.00  0.00    +0.000 F 
ATOM      6  C   UNL     1       2.123   4.189  19.591  0.00  0.00    +0.000 A 
ATOM      7  C   UNL     1       2.667   4.550  18.337  0.00  0.00    +0.000 A 
ATOM      8  C   UNL     1       2.122   5.858  17.784  0.00  0.00    +0.000 C 
ATOM      9  N   UNL     1       2.196   6.974  18.738  0.00  0.00    +0.000 N 
ATOM     10  C   UNL     1       2.133   8.272  18.240  0.00  0.00    +0.000 C 
ATOM     11  O   UNL     1       2.250   8.463  17.023  0.00  0.00    +0.000 OA
ATOM     12  C   UNL     1       2.499   6.595  20.125  0.00  0.00    +0.000 C 
ATOM     13  C   UNL     1       1.771   5.300  20.546  0.00  0.00    +0.000 C 
ENDROOT
BRANCH   1  19
ATOM     14  C   UNL     1       5.713   5.052  17.088  0.00  0.00    +0.000 A 
ATOM     15  C   UNL     1       6.618   5.483  16.101  0.00  0.00    +0.000 A 
ATOM     16  C   UNL     1       6.491   5.085  14.776  0.00  0.00    +0.000 A 
ATOM     17  C   UNL     1       5.455   4.240  14.391  0.00  0.00    +0.000 A 
ATOM     18  C   UNL     1       4.561   3.793  15.382  0.00  0.00    +0.000 A 
ATOM     19  C   UNL     1       4.667   4.148  16.757  0.00  0.00    +0.000 A 
BRANCH  14  20
ATOM     20  O   UNL     1       5.824   5.502  18.386  0.00  0.00    +0.000 OA
BRANCH  20  22
ATOM     21  C   UNL     1       7.987   6.441  18.898  0.00  0.00    +0.000 C 
ATOM     22  C   UNL     1       7.068   5.243  19.050  0.00  0.00    +0.000 C 
ENDBRANCH  20  22
ENDBRANCH  14  20
BRANCH  17  23
ATOM     23  C   UNL     1       5.402   3.786  12.951  0.00  0.00    +0.000 C 
BRANCH  23  24
ATOM     24  C   UNL     1       6.725   3.670  12.245  0.00  0.00    +0.000 C 
ATOM     25  O   UNL     1       7.476   4.608  12.016  0.00  0.00    +0.000 OA
BRANCH  24  26
ATOM     26  O   UNL     1       7.032   2.401  11.867  0.00  0.00    +0.000 OA
ATOM     27  H   UNL     1       7.999   2.206  11.858  0.00  0.00    +0.000 HD
ENDBRANCH  24  26
ENDBRANCH  23  24
ENDBRANCH  17  23
ENDBRANCH   1  19
BRANCH  10  28
ATOM     28  C   UNL     1       2.010   9.450  19.207  0.00  0.00    +0.000 C 
BRANCH  28  29
ATOM     29  C   UNL     1       1.003  10.547  18.883  0.00  0.00    +0.000 A 
ATOM     30  C   UNL     1       1.286  11.907  18.913  0.00  0.00    +0.000 A 
ATOM     31  C   UNL     1       0.261  12.837  18.665  0.00  0.00    +0.000 A 
ATOM     32  C   UNL     1      -1.025  12.386  18.413  0.00  0.00    +0.000 A 
ATOM     33  C   UNL     1      -1.237  11.020  18.420  0.00  0.00    +0.000 A 
ATOM     34  N   UNL     1      -0.263  10.107  18.641  0.00  0.00    +0.000 NA
ENDBRANCH  28  29
ENDBRANCH  10  28
TORSDOF 8
ENDMDL
MODEL 5
REMARK VINA RESULT:      -7.9      1.878      3.689
REMARK  Name = 
REMARK  9 active torsions:
REMARK  status: ('A' for Active; 'I' for Inactive)
REMARK    1  A    between atoms: C_1  and  C_2
REMARK    2  A    between atoms: C_2  and  O_3
REMARK    3  A    between atoms: O_3  and  C_4
REMARK    4  A    between atoms: C_7  and  C_8
REMARK    5  A    between atoms: C_8  and  C_9
REMARK    6  A    between atoms: C_9  and  O_11
REMARK    7  A    between atoms: C_13  and  C_14
REMARK    8  A    between atoms: C_23  and  C_25
REMARK    9  A    between atoms: C_25  and  C_26
REMARK                            x       y       z     vdW  Elec       q    Type
REMARK                         _______ _______ _______ _____ _____    ______ ____
ROOT
ATOM      1  C   UNL     1       4.081   4.011  17.588  0.00  0.00    +0.000 A 
ATOM      2  C   UNL     1       4.128   2.613  17.798  0.00  0.00    +0.000 A 
ATOM      3  C   UNL     1       3.127   1.912  18.483  0.00  0.00    +0.000 A 
ATOM      4  C   UNL     1       2.158   2.626  19.156  0.00  0.00    +0.000 A 
ATOM      5  F   UNL     1       1.297   1.986  19.957  0.00  0.00    +0.000 F 
ATOM      6  C   UNL     1       2.125   4.005  19.046  0.00  0.00    +0.000 A 
ATOM      7  C   UNL     1       2.923   4.660  18.080  0.00  0.00    +0.000 A 
ATOM      8  C   UNL     1       2.376   6.010  17.644  0.00  0.00    +0.000 C 
ATOM      9  N   UNL     1       2.057   6.904  18.767  0.00  0.00    +0.000 N 
ATOM     10  C   UNL     1       1.958   8.270  18.514  0.00  0.00    +0.000 C 
ATOM     11  O   UNL     1       2.360   8.719  17.434  0.00  0.00    +0.000 OA
ATOM     12  C   UNL     1       2.038   6.268  20.091  0.00  0.00    +0.000 C 
ATOM     13  C   UNL     1       1.399   4.862  20.051  0.00  0.00    +0.000 C 
ENDROOT
BRANCH   1  19
ATOM     14  C   UNL     1       5.807   4.660  15.751  0.00  0.00    +0.000 A 
ATOM     15  C   UNL     1       6.994   5.329  15.401  0.00  0.00    +0.000 A 
ATOM     16  C   UNL     1       7.726   6.046  16.339  0.00  0.00    +0.000 A 
ATOM     17  C   UNL     1       7.296   6.122  17.660  0.00  0.00    +0.000 A 
ATOM     18  C   UNL     1       6.098   5.469  18.005  0.00  0.00    +0.000 A 
ATOM     19  C   UNL     1       5.297   4.747  17.075  0.00  0.00    +0.000 A 
BRANCH  14  20
ATOM     20  O   UNL     1       5.125   3.907  14.819  0.00  0.00    +0.000 OA
BRANCH  20  22
ATOM     21  C   UNL     1       4.859   3.576  12.443  0.00  0.00    +0.000 C 
ATOM     22  C   UNL     1       5.829   3.593  13.610  0.00  0.00    +0.000 C 
ENDBRANCH  20  22
ENDBRANCH  14  20
BRANCH  17  23
ATOM     23  C   UNL     1       8.094   6.970  18.622  0.00  0.00    +0.000 C 
BRANCH  23  24
ATOM     24  C   UNL     1       8.201   8.431  18.286  0.00  0.00    +0.000 C 
ATOM     25  O   UNL     1       8.962   9.217  18.834  0.00  0.00    +0.000 OA
BRANCH  24  26
ATOM     26  O   UNL     1       7.360   8.826  17.294  0.00  0.00    +0.000 OA
ATOM     27  H   UNL     1       7.074   9.768  17.360  0.00  0.00    +0.000 HD
ENDBRANCH  24  26
ENDBRANCH  23  24
ENDBRANCH  17  23
ENDBRANCH   1  19
BRANCH  10  28
ATOM     28  C   UNL     1       1.440   9.207  19.605  0.00  0.00    +0.000 C 
BRANCH  28  29
ATOM     29  C   UNL     1       0.725  10.484  19.180  0.00  0.00    +0.000 A 
ATOM     30  C   UNL     1       1.336  11.727  19.071  0.00  0.00    +0.000 A 
ATOM     31  C   UNL     1       0.565  12.855  18.737  0.00  0.00    +0.000 A 
ATOM     32  C   UNL     1      -0.800  12.716  18.542  0.00  0.00    +0.000 A 
ATOM     33  C   UNL     1      -1.343  11.452  18.688  0.00  0.00    +0.000 A 
ATOM     34  N   UNL     1      -0.618  10.351  18.992  0.00  0.00    +0.000 NA
ENDBRANCH  28  29
ENDBRANCH  10  28
TORSDOF 8
ENDMDL
MODEL 6
REMARK VINA RESULT:      -7.8      0.850      1.193
REMARK  Name = 
REMARK  9 active torsions:
REMARK  status: ('A' for Active; 'I' for Inactive)
REMARK    1  A    between atoms: C_1  and  C_2
REMARK    2  A    between atoms: C_2  and  O_3
REMARK    3  A    between atoms: O_3  and  C_4
REMARK    4  A    between atoms: C_7  and  C_8
REMARK    5  A    between atoms: C_8  and  C_9
REMARK    6  A    between atoms: C_9  and  O_11
REMARK    7  A    between atoms: C_13  and  C_14
REMARK    8  A    between atoms: C_23  and  C_25
REMARK    9  A    between atoms: C_25  and  C_26
REMARK                            x       y       z     vdW  Elec       q    Type
REMARK                         _______ _______ _______ _____ _____    ______ ____
ROOT
ATOM      1  C   UNL     1       3.668   3.616  18.282  0.00  0.00    +0.000 A 
ATOM      2  C   UNL     1       3.538   2.366  18.931  0.00  0.00    +0.000 A 
ATOM      3  C   UNL     1       2.570   2.114  19.912  0.00  0.00    +0.000 A 
ATOM      4  C   UNL     1       1.844   3.172  20.416  0.00  0.00    +0.000 A 
ATOM      5  F   UNL     1       1.041   2.985  21.471  0.00  0.00    +0.000 F 
ATOM      6  C   UNL     1       2.001   4.433  19.866  0.00  0.00    +0.000 A 
ATOM      7  C   UNL     1       2.718   4.596  18.658  0.00  0.00    +0.000 A 
ATOM      8  C   UNL     1       2.316   5.831  17.867  0.00  0.00    +0.000 C 
ATOM      9  N   UNL     1       2.324   7.066  18.664  0.00  0.00    +0.000 N 
ATOM     10  C   UNL     1       2.392   8.283  17.991  0.00  0.00    +0.000 C 
ATOM     11  O   UNL     1       2.673   8.298  16.786  0.00  0.00    +0.000 OA
ATOM     12  C   UNL     1       2.428   6.876  20.117  0.00  0.00    +0.000 C 
ATOM     13  C   UNL     1       1.588   5.678  20.608  0.00  0.00    +0.000 C 
ENDROOT
BRANCH   1  19
ATOM     14  C   UNL     1       6.099   4.464  17.903  0.00  0.00    +0.000 A 
ATOM     15  C   UNL     1       7.137   4.770  17.005  0.00  0.00    +0.000 A 
ATOM     16  C   UNL     1       6.989   4.593  15.635  0.00  0.00    +0.000 A 
ATOM     17  C   UNL     1       5.796   4.101  15.114  0.00  0.00    +0.000 A 
ATOM     18  C   UNL     1       4.764   3.775  16.015  0.00  0.00    +0.000 A 
ATOM     19  C   UNL     1       4.879   3.910  17.428  0.00  0.00    +0.000 A 
BRANCH  14  20
ATOM     20  O   UNL     1       6.247   4.698  19.254  0.00  0.00    +0.000 OA
BRANCH  20  22
ATOM     21  C   UNL     1       8.363   5.285  20.254  0.00  0.00    +0.000 C 
ATOM     22  C   UNL     1       7.084   5.803  19.624  0.00  0.00    +0.000 C 
ENDBRANCH  20  22
ENDBRANCH  14  20
BRANCH  17  23
ATOM     23  C   UNL     1       5.711   3.866  13.625  0.00  0.00    +0.000 C 
BRANCH  23  24
ATOM     24  C   UNL     1       6.883   4.340  12.811  0.00  0.00    +0.000 C 
ATOM     25  O   UNL     1       7.265   3.820  11.772  0.00  0.00    +0.000 OA
BRANCH  24  26
ATOM     26  O   UNL     1       7.508   5.427  13.337  0.00  0.00    +0.000 OA
ATOM     27  H   UNL     1       6.934   6.226  13.410  0.00  0.00    +0.000 HD
ENDBRANCH  24  26
ENDBRANCH  23  24
ENDBRANCH  17  23
ENDBRANCH   1  19
BRANCH  10  28
ATOM     28  C   UNL     1       2.207   9.589  18.765  0.00  0.00    +0.000 C 
BRANCH  28  29
ATOM     29  C   UNL     1       0.803  10.168  18.879  0.00  0.00    +0.000 A 
ATOM     30  C   UNL     1       0.337  10.892  19.969  0.00  0.00    +0.000 A 
ATOM     31  C   UNL     1      -1.002  11.322  20.000  0.00  0.00    +0.000 A 
ATOM     32  C   UNL     1      -1.847  10.999  18.950  0.00  0.00    +0.000 A 
ATOM     33  C   UNL     1      -1.320  10.257  17.908  0.00  0.00    +0.000 A 
ATOM     34  N   UNL     1      -0.032   9.847  17.851  0.00  0.00    +0.000 NA
ENDBRANCH  28  29
ENDBRANCH  10  28
TORSDOF 8
ENDMDL
MODEL 7
REMARK VINA RESULT:      -7.7      1.925      3.674
REMARK  Name = 
REMARK  9 active torsions:
REMARK  status: ('A' for Active; 'I' for Inactive)
REMARK    1  A    between atoms: C_1  and  C_2
REMARK    2  A    between atoms: C_2  and  O_3
REMARK    3  A    between atoms: O_3  and  C_4
REMARK    4  A    between atoms: C_7  and  C_8
REMARK    5  A    between atoms: C_8  and  C_9
REMARK    6  A    between atoms: C_9  and  O_11
REMARK    7  A    between atoms: C_13  and  C_14
REMARK    8  A    between atoms: C_23  and  C_25
REMARK    9  A    between atoms: C_25  and  C_26
REMARK                            x       y       z     vdW  Elec       q    Type
REMARK                         _______ _______ _______ _____ _____    ______ ____
ROOT
ATOM      1  C   UNL     1       4.208   4.456  18.408  0.00  0.00    +0.000 A 
ATOM      2  C   UNL     1       4.320   3.152  18.945  0.00  0.00    +0.000 A 
ATOM      3  C   UNL     1       3.351   2.590  19.786  0.00  0.00    +0.000 A 
ATOM      4  C   UNL     1       2.350   3.399  20.280  0.00  0.00    +0.000 A 
ATOM      5  F   UNL     1       1.518   2.930  21.218  0.00  0.00    +0.000 F 
ATOM      6  C   UNL     1       2.253   4.710  19.845  0.00  0.00    +0.000 A 
ATOM      7  C   UNL     1       3.021   5.151  18.744  0.00  0.00    +0.000 A 
ATOM      8  C   UNL     1       2.413   6.332  18.004  0.00  0.00    +0.000 C 
ATOM      9  N   UNL     1       2.051   7.452  18.885  0.00  0.00    +0.000 N 
ATOM     10  C   UNL     1       1.890   8.712  18.316  0.00  0.00    +0.000 C 
ATOM     11  O   UNL     1       2.272   8.909  17.156  0.00  0.00    +0.000 OA
ATOM     12  C   UNL     1       2.059   7.149  20.322  0.00  0.00    +0.000 C 
ATOM     13  C   UNL     1       1.486   5.747  20.624  0.00  0.00    +0.000 C 
ENDROOT
BRANCH   1  19
ATOM     14  C   UNL     1       5.790   4.860  16.381  0.00  0.00    +0.000 A 
ATOM     15  C   UNL     1       6.955   5.459  15.868  0.00  0.00    +0.000 A 
ATOM     16  C   UNL     1       7.771   6.257  16.660  0.00  0.00    +0.000 A 
ATOM     17  C   UNL     1       7.450   6.487  17.995  0.00  0.00    +0.000 A 
ATOM     18  C   UNL     1       6.273   5.904  18.503  0.00  0.00    +0.000 A 
ATOM     19  C   UNL     1       5.390   5.103  17.723  0.00  0.00    +0.000 A 
BRANCH  14  20
ATOM     20  O   UNL     1       5.024   4.027  15.594  0.00  0.00    +0.000 OA
BRANCH  20  22
ATOM     21  C   UNL     1       5.243   3.964  13.192  0.00  0.00    +0.000 C 
ATOM     22  C   UNL     1       5.697   3.370  14.512  0.00  0.00    +0.000 C 
ENDBRANCH  20  22
ENDBRANCH  14  20
BRANCH  17  23
ATOM     23  C   UNL     1       8.335   7.415  18.792  0.00  0.00    +0.000 C 
BRANCH  23  24
ATOM     24  C   UNL     1       8.343   8.855  18.360  0.00  0.00    +0.000 C 
ATOM     25  O   UNL     1       9.052   9.724  18.850  0.00  0.00    +0.000 OA
BRANCH  24  26
ATOM     26  O   UNL     1       7.474   9.128  17.351  0.00  0.00    +0.000 OA
ATOM     27  H   UNL     1       6.542   8.864  17.541  0.00  0.00    +0.000 HD
ENDBRANCH  24  26
ENDBRANCH  23  24
ENDBRANCH  17  23
ENDBRANCH   1  19
BRANCH  10  28
ATOM     28  C   UNL     1       1.327   9.858  19.158  0.00  0.00    +0.000 C 
BRANCH  28  29
ATOM     29  C   UNL     1      -0.101  10.317  18.889  0.00  0.00    +0.000 A 
ATOM     30  C   UNL     1      -0.877   9.887  17.820  0.00  0.00    +0.000 A 
ATOM     31  C   UNL     1      -2.160  10.429  17.628  0.00  0.00    +0.000 A 
ATOM     32  C   UNL     1      -2.627  11.402  18.497  0.00  0.00    +0.000 A 
ATOM     33  C   UNL     1      -1.792  11.797  19.526  0.00  0.00    +0.000 A 
ATOM     34  N   UNL     1      -0.561  11.277  19.739  0.00  0.00    +0.000 NA
ENDBRANCH  28  29
ENDBRANCH  10  28
TORSDOF 8
ENDMDL
MODEL 8
REMARK VINA RESULT:      -7.3      1.325      1.492
REMARK  Name = 
REMARK  9 active torsions:
REMARK  status: ('A' for Active; 'I' for Inactive)
REMARK    1  A    between atoms: C_1  and  C_2
REMARK    2  A    between atoms: C_2  and  O_3
REMARK    3  A    between atoms: O_3  and  C_4
REMARK    4  A    between atoms: C_7  and  C_8
REMARK    5  A    between atoms: C_8  and  C_9
REMARK    6  A    between atoms: C_9  and  O_11
REMARK    7  A    between atoms: C_13  and  C_14
REMARK    8  A    between atoms: C_23  and  C_25
REMARK    9  A    between atoms: C_25  and  C_26
REMARK                            x       y       z     vdW  Elec       q    Type
REMARK                         _______ _______ _______ _____ _____    ______ ____
ROOT
ATOM      1  C   UNL     1       3.783   3.711  17.303  0.00  0.00    +0.000 A 
ATOM      2  C   UNL     1       3.815   2.320  17.557  0.00  0.00    +0.000 A 
ATOM      3  C   UNL     1       2.924   1.685  18.431  0.00  0.00    +0.000 A 
ATOM      4  C   UNL     1       2.114   2.461  19.233  0.00  0.00    +0.000 A 
ATOM      5  F   UNL     1       1.383   1.885  20.196  0.00  0.00    +0.000 F 
ATOM      6  C   UNL     1       2.113   3.837  19.077  0.00  0.00    +0.000 A 
ATOM      7  C   UNL     1       2.754   4.425  17.962  0.00  0.00    +0.000 A 
ATOM      8  C   UNL     1       2.189   5.782  17.575  0.00  0.00    +0.000 C 
ATOM      9  N   UNL     1       2.103   6.725  18.699  0.00  0.00    +0.000 N 
ATOM     10  C   UNL     1       2.012   8.084  18.414  0.00  0.00    +0.000 C 
ATOM     11  O   UNL     1       2.236   8.481  17.264  0.00  0.00    +0.000 OA
ATOM     12  C   UNL     1       2.292   6.133  20.031  0.00  0.00    +0.000 C 
ATOM     13  C   UNL     1       1.605   4.756  20.157  0.00  0.00    +0.000 C 
ENDROOT
BRANCH   1  19
ATOM     14  C   UNL     1       5.667   5.487  17.035  0.00  0.00    +0.000 A 
ATOM     15  C   UNL     1       6.652   6.080  16.224  0.00  0.00    +0.000 A 
ATOM     16  C   UNL     1       6.888   5.638  14.929  0.00  0.00    +0.000 A 
ATOM     17  C   UNL     1       6.148   4.586  14.397  0.00  0.00    +0.000 A 
ATOM     18  C   UNL     1       5.176   3.981  15.215  0.00  0.00    +0.000 A 
ATOM     19  C   UNL     1       4.917   4.377  16.559  0.00  0.00    +0.000 A 
BRANCH  14  20
ATOM     20  O   UNL     1       5.410   5.976  18.298  0.00  0.00    +0.000 OA
BRANCH  20  22
ATOM     21  C   UNL     1       7.549   5.174  19.079  0.00  0.00    +0.000 C 
ATOM     22  C   UNL     1       6.069   5.314  19.387  0.00  0.00    +0.000 C 
ENDBRANCH  20  22
ENDBRANCH  14  20
BRANCH  17  23
ATOM     23  C   UNL     1       6.490   4.104  13.007  0.00  0.00    +0.000 C 
BRANCH  23  24
ATOM     24  C   UNL     1       5.467   3.226  12.340  0.00  0.00    +0.000 C 
ATOM     25  O   UNL     1       4.387   3.614  11.917  0.00  0.00    +0.000 OA
BRANCH  24  26
ATOM     26  O   UNL     1       5.847   1.925  12.240  0.00  0.00    +0.000 OA
ATOM     27  H   UNL     1       6.715   1.725  12.664  0.00  0.00    +0.000 HD
ENDBRANCH  24  26
ENDBRANCH  23  24
ENDBRANCH  17  23
ENDBRANCH   1  19
BRANCH  10  28
ATOM     28  C   UNL     1       1.726   9.078  19.541  0.00  0.00    +0.000 C 
BRANCH  28  29
ATOM     29  C   UNL     1       1.453  10.530  19.170  0.00  0.00    +0.000 A 
ATOM     30  C   UNL     1       0.350  11.257  19.599  0.00  0.00    +0.000 A 
ATOM     31  C   UNL     1       0.160  12.572  19.140  0.00  0.00    +0.000 A 
ATOM     32  C   UNL     1       1.066  13.121  18.246  0.00  0.00    +0.000 A 
ATOM     33  C   UNL     1       2.129  12.332  17.846  0.00  0.00    +0.000 A 
ATOM     34  N   UNL     1       2.340  11.070  18.288  0.00  0.00    +0.000 NA
ENDBRANCH  28  29
ENDBRANCH  10  28
TORSDOF 8
ENDMDL
MODEL 9
REMARK VINA RESULT:      -7.1      1.579      3.753
REMARK  Name = 
REMARK  9 active torsions:
REMARK  status: ('A' for Active; 'I' for Inactive)
REMARK    1  A    between atoms: C_1  and  C_2
REMARK    2  A    between atoms: C_2  and  O_3
REMARK    3  A    between atoms: O_3  and  C_4
REMARK    4  A    between atoms: C_7  and  C_8
REMARK    5  A    between atoms: C_8  and  C_9
REMARK    6  A    between atoms: C_9  and  O_11
REMARK    7  A    between atoms: C_13  and  C_14
REMARK    8  A    between atoms: C_23  and  C_25
REMARK    9  A    between atoms: C_25  and  C_26
REMARK                            x       y       z     vdW  Elec       q    Type
REMARK                         _______ _______ _______ _____ _____    ______ ____
ROOT
ATOM      1  C   UNL     1       3.771   4.005  17.462  0.00  0.00    +0.000 A 
ATOM      2  C   UNL     1       3.722   2.604  17.275  0.00  0.00    +0.000 A 
ATOM      3  C   UNL     1       2.681   1.807  17.768  0.00  0.00    +0.000 A 
ATOM      4  C   UNL     1       1.771   2.366  18.640  0.00  0.00    +0.000 A 
ATOM      5  F   UNL     1       0.875   1.586  19.257  0.00  0.00    +0.000 F 
ATOM      6  C   UNL     1       1.834   3.721  18.918  0.00  0.00    +0.000 A 
ATOM      7  C   UNL     1       2.667   4.565  18.148  0.00  0.00    +0.000 A 
ATOM      8  C   UNL     1       2.212   6.016  18.120  0.00  0.00    +0.000 C 
ATOM      9  N   UNL     1       1.968   6.580  19.455  0.00  0.00    +0.000 N 
ATOM     10  C   UNL     1       1.964   7.966  19.593  0.00  0.00    +0.000 C 
ATOM     11  O   UNL     1       2.386   8.671  18.669  0.00  0.00    +0.000 OA
ATOM     12  C   UNL     1       1.917   5.603  20.550  0.00  0.00    +0.000 C 
ATOM     13  C   UNL     1       1.180   4.309  20.141  0.00  0.00    +0.000 C 
ENDROOT
BRANCH   1  19
ATOM     14  C   UNL     1       5.542   4.992  15.829  0.00  0.00    +0.000 A 
ATOM     15  C   UNL     1       6.768   5.657  15.647  0.00  0.00    +0.000 A 
ATOM     16  C   UNL     1       7.536   6.073  16.727  0.00  0.00    +0.000 A 
ATOM     17  C   UNL     1       7.105   5.840  18.030  0.00  0.00    +0.000 A 
ATOM     18  C   UNL     1       5.868   5.192  18.212  0.00  0.00    +0.000 A 
ATOM     19  C   UNL     1       5.031   4.774  17.138  0.00  0.00    +0.000 A 
BRANCH  14  20
ATOM     20  O   UNL     1       4.821   4.539  14.745  0.00  0.00    +0.000 OA
BRANCH  20  22
ATOM     21  C   UNL     1       6.033   3.838  12.780  0.00  0.00    +0.000 C 
ATOM     22  C   UNL     1       5.348   3.395  14.059  0.00  0.00    +0.000 C 
ENDBRANCH  20  22
ENDBRANCH  14  20
BRANCH  17  23
ATOM     23  C   UNL     1       7.946   6.371  19.166  0.00  0.00    +0.000 C 
BRANCH  23  24
ATOM     24  C   UNL     1       8.581   5.340  20.058  0.00  0.00    +0.000 C 
ATOM     25  O   UNL     1       9.432   4.538  19.699  0.00  0.00    +0.000 OA
BRANCH  24  26
ATOM     26  O   UNL     1       8.122   5.368  21.337  0.00  0.00    +0.000 OA
ATOM     27  H   UNL     1       7.164   5.148  21.426  0.00  0.00    +0.000 HD
ENDBRANCH  24  26
ENDBRANCH  23  24
ENDBRANCH  17  23
ENDBRANCH   1  19
BRANCH  10  28
ATOM     28  C   UNL     1       1.523   8.594  20.916  0.00  0.00    +0.000 C 
BRANCH  28  29
ATOM     29  C   UNL     1       0.489   9.712  20.875  0.00  0.00    +0.000 A 
ATOM     30  C   UNL     1      -0.280  10.031  19.763  0.00  0.00    +0.000 A 
ATOM     31  C   UNL     1      -1.157  11.129  19.814  0.00  0.00    +0.000 A 
ATOM     32  C   UNL     1      -1.228  11.893  20.968  0.00  0.00    +0.000 A 
ATOM     33  C   UNL     1      -0.418  11.530  22.028  0.00  0.00    +0.000 A 
ATOM     34  N   UNL     1       0.421  10.468  22.007  0.00  0.00    +0.000 NA
ENDBRANCH  28  29
ENDBRANCH  10  28
TORSDOF 8
ENDMDL
