MODEL 1
REMARK VINA RESULT:      -6.1      0.000      0.000
REMARK  Name = 
REMARK  14 active torsions:
REMARK  status: ('A' for Active; 'I' for Inactive)
REMARK    1  A    between atoms: C_1  and  C_2
REMARK    2  A    between atoms: C_2  and  C_3
REMARK    3  A    between atoms: C_3  and  C_5
REMARK    4  A    between atoms: C_5  and  C_6
REMARK    5  A    between atoms: C_5  and  C_20
REMARK    6  A    between atoms: C_6  and  C_7
REMARK    7  A    between atoms: C_7  and  C_8
REMARK    8  A    between atoms: C_8  and  C_9
REMARK    9  A    between atoms: C_9  and  O_10
REMARK   10  A    between atoms: O_10  and  C_11
REMARK   11  A    between atoms: C_14  and  O_15
REMARK   12  A    between atoms: O_15  and  C_16
REMARK   13  A    between atoms: C_20  and  C_22
REMARK   14  A    between atoms: C_22  and  C_23
REMARK                            x       y       z     vdW  Elec       q    Type
REMARK                         _______ _______ _______ _____ _____    ______ ____
ROOT
ATOM      1  C   UNL     1       4.022   7.300  17.615  0.00  0.00    +0.000 C 
ENDROOT
BRANCH   1   2
ATOM      2  C   UNL     1       3.883   5.834  18.047  0.00  0.00    +0.000 C 
BRANCH   2   3
ATOM      3  C   UNL     1       5.217   5.100  18.208  0.00  0.00    +0.000 C 
BRANCH   3   4
ATOM      4  C   UNL     1       6.409   5.829  17.550  0.00  0.00    +0.000 C 
BRANCH   4   5
ATOM      5  C   UNL     1       6.823   5.205  16.215  0.00  0.00    +0.000 C 
ATOM      6  O   UNL     1       7.840   4.516  16.108  0.00  0.00    +0.000 OA
BRANCH   5   8
ATOM      7  C   UNL     1       5.739   4.098  14.237  0.00  0.00    +0.000 C 
ATOM      8  C   UNL     1       5.879   5.385  15.037  0.00  0.00    +0.000 C 
ENDBRANCH   5   8
ENDBRANCH   4   5
BRANCH   4   9
ATOM      9  C   UNL     1       7.568   5.979  18.526  0.00  0.00    +0.000 C 
ATOM     10  O   UNL     1       7.969   5.027  19.201  0.00  0.00    +0.000 OA
BRANCH   9  11
ATOM     11  C   UNL     1       8.254   7.336  18.589  0.00  0.00    +0.000 C 
ATOM     12  C   UNL     1       7.691   8.320  17.582  0.00  0.00    +0.000 C 
ENDBRANCH   9  11
ENDBRANCH   4   9
ENDBRANCH   3   4
ENDBRANCH   2   3
ENDBRANCH   1   2
BRANCH   1  13
ATOM     13  C   UNL     1       2.648   7.961  17.750  0.00  0.00    +0.000 C 
BRANCH  13  14
ATOM     14  O   UNL     1       2.251   8.089  19.112  0.00  0.00    +0.000 OA
BRANCH  14  15
ATOM     15  C   UNL     1       1.230   8.977  19.364  0.00  0.00    +0.000 A 
ATOM     16  C   UNL     1       0.719   9.580  18.203  0.00  0.00    +0.000 A 
ATOM     17  C   UNL     1      -0.288  10.554  18.272  0.00  0.00    +0.000 A 
ATOM     18  C   UNL     1      -0.808  10.948  19.501  0.00  0.00    +0.000 A 
ATOM     19  C   UNL     1      -0.310  10.355  20.657  0.00  0.00    +0.000 A 
ATOM     20  C   UNL     1       0.710   9.392  20.601  0.00  0.00    +0.000 A 
ATOM     21 CL   UNL     1       1.271   8.895  22.162  0.00  0.00    +0.000 Cl
BRANCH  18  22
ATOM     22  O   UNL     1      -1.768  11.921  19.464  0.00  0.00    +0.000 OA
ATOM     23  C   UNL     1      -1.629  12.985  20.403  0.00  0.00    +0.000 C 
ENDBRANCH  18  22
ENDBRANCH  14  15
ENDBRANCH  13  14
ENDBRANCH   1  13
TORSDOF 11
ENDMDL
MODEL 2
REMARK VINA RESULT:      -6.1      2.339      4.269
REMARK  Name = 
REMARK  14 active torsions:
REMARK  status: ('A' for Active; 'I' for Inactive)
REMARK    1  A    between atoms: C_1  and  C_2
REMARK    2  A    between atoms: C_2  and  C_3
REMARK    3  A    between atoms: C_3  and  C_5
REMARK    4  A    between atoms: C_5  and  C_6
REMARK    5  A    between atoms: C_5  and  C_20
REMARK    6  A    between atoms: C_6  and  C_7
REMARK    7  A    between atoms: C_7  and  C_8
REMARK    8  A    between atoms: C_8  and  C_9
REMARK    9  A    between atoms: C_9  and  O_10
REMARK   10  A    between atoms: O_10  and  C_11
REMARK   11  A    between atoms: C_14  and  O_15
REMARK   12  A    between atoms: O_15  and  C_16
REMARK   13  A    between atoms: C_20  and  C_22
REMARK   14  A    between atoms: C_22  and  C_23
REMARK                            x       y       z     vdW  Elec       q    Type
REMARK                         _______ _______ _______ _____ _____    ______ ____
ROOT
ATOM      1  C   UNL     1       4.594   2.973  17.488  0.00  0.00    +0.000 C 
ENDROOT
BRANCH   1   2
ATOM      2  C   UNL     1       4.147   3.701  16.213  0.00  0.00    +0.000 C 
BRANCH   2   3
ATOM      3  C   UNL     1       4.977   4.944  15.878  0.00  0.00    +0.000 C 
BRANCH   3   4
ATOM      4  C   UNL     1       6.494   4.667  15.779  0.00  0.00    +0.000 C 
BRANCH   4   5
ATOM      5  C   UNL     1       7.315   5.512  16.756  0.00  0.00    +0.000 C 
ATOM      6  O   UNL     1       7.508   6.715  16.569  0.00  0.00    +0.000 OA
BRANCH   5   8
ATOM      7  C   UNL     1       7.751   5.774  19.216  0.00  0.00    +0.000 C 
ATOM      8  C   UNL     1       7.810   4.832  18.023  0.00  0.00    +0.000 C 
ENDBRANCH   5   8
ENDBRANCH   4   5
BRANCH   4   9
ATOM      9  C   UNL     1       6.979   4.773  14.340  0.00  0.00    +0.000 C 
ATOM     10  O   UNL     1       7.911   5.518  14.028  0.00  0.00    +0.000 OA
BRANCH   9  11
ATOM     11  C   UNL     1       6.309   3.875  13.311  0.00  0.00    +0.000 C 
ATOM     12  C   UNL     1       7.043   3.862  11.985  0.00  0.00    +0.000 C 
ENDBRANCH   9  11
ENDBRANCH   4   9
ENDBRANCH   3   4
ENDBRANCH   2   3
ENDBRANCH   1   2
BRANCH   1  13
ATOM     13  C   UNL     1       3.923   3.661  18.680  0.00  0.00    +0.000 C 
BRANCH  13  14
ATOM     14  O   UNL     1       2.676   4.250  18.321  0.00  0.00    +0.000 OA
BRANCH  14  15
ATOM     15  C   UNL     1       2.279   5.331  19.076  0.00  0.00    +0.000 A 
ATOM     16  C   UNL     1       2.447   6.560  18.418  0.00  0.00    +0.000 A 
ATOM     17  C   UNL     1       2.148   7.773  19.054  0.00  0.00    +0.000 A 
ATOM     18  C   UNL     1       1.675   7.787  20.363  0.00  0.00    +0.000 A 
ATOM     19  C   UNL     1       1.503   6.575  21.023  0.00  0.00    +0.000 A 
ATOM     20  C   UNL     1       1.815   5.356  20.402  0.00  0.00    +0.000 A 
ATOM     21 CL   UNL     1       1.660   3.989  21.453  0.00  0.00    +0.000 Cl
BRANCH  18  22
ATOM     22  O   UNL     1       1.436   9.021  20.903  0.00  0.00    +0.000 OA
ATOM     23  C   UNL     1       0.762   9.959  20.067  0.00  0.00    +0.000 C 
ENDBRANCH  18  22
ENDBRANCH  14  15
ENDBRANCH  13  14
ENDBRANCH   1  13
TORSDOF 11
ENDMDL
MODEL 3
REMARK VINA RESULT:      -6.1      5.024      7.688
REMARK  Name = 
REMARK  14 active torsions:
REMARK  status: ('A' for Active; 'I' for Inactive)
REMARK    1  A    between atoms: C_1  and  C_2
REMARK    2  A    between atoms: C_2  and  C_3
REMARK    3  A    between atoms: C_3  and  C_5
REMARK    4  A    between atoms: C_5  and  C_6
REMARK    5  A    between atoms: C_5  and  C_20
REMARK    6  A    between atoms: C_6  and  C_7
REMARK    7  A    between atoms: C_7  and  C_8
REMARK    8  A    between atoms: C_8  and  C_9
REMARK    9  A    between atoms: C_9  and  O_10
REMARK   10  A    between atoms: O_10  and  C_11
REMARK   11  A    between atoms: C_14  and  O_15
REMARK   12  A    between atoms: O_15  and  C_16
REMARK   13  A    between atoms: C_20  and  C_22
REMARK   14  A    between atoms: C_22  and  C_23
REMARK                            x       y       z     vdW  Elec       q    Type
REMARK                         _______ _______ _______ _____ _____    ______ ____
ROOT
ATOM      1  C   UNL     1       8.324   8.372  18.450  0.00  0.00    +0.000 C 
ENDROOT
BRANCH   1   2
ATOM      2  C   UNL     1       7.631   7.719  17.246  0.00  0.00    +0.000 C 
BRANCH   2   3
ATOM      3  C   UNL     1       6.328   6.991  17.592  0.00  0.00    +0.000 C 
BRANCH   3   4
ATOM      4  C   UNL     1       6.543   5.561  18.134  0.00  0.00    +0.000 C 
BRANCH   4   5
ATOM      5  C   UNL     1       7.212   4.635  17.114  0.00  0.00    +0.000 C 
ATOM      6  O   UNL     1       8.321   4.138  17.319  0.00  0.00    +0.000 OA
BRANCH   5   8
ATOM      7  C   UNL     1       7.054   4.840  14.615  0.00  0.00    +0.000 C 
ATOM      8  C   UNL     1       6.414   4.270  15.872  0.00  0.00    +0.000 C 
ENDBRANCH   5   8
ENDBRANCH   4   5
BRANCH   4   9
ATOM      9  C   UNL     1       5.253   4.991  18.705  0.00  0.00    +0.000 C 
ATOM     10  O   UNL     1       5.255   3.991  19.428  0.00  0.00    +0.000 OA
BRANCH   9  11
ATOM     11  C   UNL     1       3.965   5.741  18.400  0.00  0.00    +0.000 C 
ATOM     12  C   UNL     1       3.086   5.909  19.624  0.00  0.00    +0.000 C 
ENDBRANCH   9  11
ENDBRANCH   4   9
ENDBRANCH   3   4
ENDBRANCH   2   3
ENDBRANCH   1   2
BRANCH   1  13
ATOM     13  C   UNL     1       8.813   9.756  18.015  0.00  0.00    +0.000 C 
BRANCH  13  14
ATOM     14  O   UNL     1       9.186  10.562  19.129  0.00  0.00    +0.000 OA
BRANCH  14  15
ATOM     15  C   UNL     1       9.621  11.835  18.835  0.00  0.00    +0.000 A 
ATOM     16  C   UNL     1       8.619  12.654  18.290  0.00  0.00    +0.000 A 
ATOM     17  C   UNL     1       8.894  13.966  17.879  0.00  0.00    +0.000 A 
ATOM     18  C   UNL     1      10.178  14.490  18.001  0.00  0.00    +0.000 A 
ATOM     19  C   UNL     1      11.177  13.688  18.541  0.00  0.00    +0.000 A 
ATOM     20  C   UNL     1      10.917  12.368  18.940  0.00  0.00    +0.000 A 
ATOM     21 CL   UNL     1      12.333  11.512  19.449  0.00  0.00    +0.000 Cl
BRANCH  18  22
ATOM     22  O   UNL     1      10.350  15.769  17.548  0.00  0.00    +0.000 OA
ATOM     23  C   UNL     1      11.668  16.123  17.133  0.00  0.00    +0.000 C 
ENDBRANCH  18  22
ENDBRANCH  14  15
ENDBRANCH  13  14
ENDBRANCH   1  13
TORSDOF 11
ENDMDL
MODEL 4
REMARK VINA RESULT:      -6.1      1.243      1.363
REMARK  Name = 
REMARK  14 active torsions:
REMARK  status: ('A' for Active; 'I' for Inactive)
REMARK    1  A    between atoms: C_1  and  C_2
REMARK    2  A    between atoms: C_2  and  C_3
REMARK    3  A    between atoms: C_3  and  C_5
REMARK    4  A    between atoms: C_5  and  C_6
REMARK    5  A    between atoms: C_5  and  C_20
REMARK    6  A    between atoms: C_6  and  C_7
REMARK    7  A    between atoms: C_7  and  C_8
REMARK    8  A    between atoms: C_8  and  C_9
REMARK    9  A    between atoms: C_9  and  O_10
REMARK   10  A    between atoms: O_10  and  C_11
REMARK   11  A    between atoms: C_14  and  O_15
REMARK   12  A    between atoms: O_15  and  C_16
REMARK   13  A    between atoms: C_20  and  C_22
REMARK   14  A    between atoms: C_22  and  C_23
REMARK                            x       y       z     vdW  Elec       q    Type
REMARK                         _______ _______ _______ _____ _____    ______ ____
ROOT
ATOM      1  C   UNL     1       3.691   5.463  19.370  0.00  0.00    +0.000 C 
ENDROOT
BRANCH   1   2
ATOM      2  C   UNL     1       3.634   4.453  18.216  0.00  0.00    +0.000 C 
BRANCH   2   3
ATOM      3  C   UNL     1       4.998   4.131  17.598  0.00  0.00    +0.000 C 
BRANCH   3   4
ATOM      4  C   UNL     1       5.839   5.383  17.266  0.00  0.00    +0.000 C 
BRANCH   4   5
ATOM      5  C   UNL     1       5.882   5.688  15.767  0.00  0.00    +0.000 C 
ATOM      6  O   UNL     1       5.301   6.663  15.286  0.00  0.00    +0.000 OA
BRANCH   5   8
ATOM      7  C   UNL     1       5.910   3.956  13.946  0.00  0.00    +0.000 C 
ATOM      8  C   UNL     1       6.752   4.794  14.896  0.00  0.00    +0.000 C 
ENDBRANCH   5   8
ENDBRANCH   4   5
BRANCH   4   9
ATOM      9  C   UNL     1       7.219   5.301  17.901  0.00  0.00    +0.000 C 
ATOM     10  O   UNL     1       7.893   4.269  17.847  0.00  0.00    +0.000 OA
BRANCH   9  11
ATOM     11  C   UNL     1       7.764   6.565  18.550  0.00  0.00    +0.000 C 
ATOM     12  C   UNL     1       7.689   7.769  17.631  0.00  0.00    +0.000 C 
ENDBRANCH   9  11
ENDBRANCH   4   9
ENDBRANCH   3   4
ENDBRANCH   2   3
ENDBRANCH   1   2
BRANCH   1  13
ATOM     13  C   UNL     1       2.419   6.312  19.313  0.00  0.00    +0.000 C 
BRANCH  13  14
ATOM     14  O   UNL     1       2.711   7.697  19.148  0.00  0.00    +0.000 OA
BRANCH  14  15
ATOM     15  C   UNL     1       1.639   8.556  19.239  0.00  0.00    +0.000 A 
ATOM     16  C   UNL     1       1.223   9.060  17.996  0.00  0.00    +0.000 A 
ATOM     17  C   UNL     1       0.180   9.993  17.902  0.00  0.00    +0.000 A 
ATOM     18  C   UNL     1      -0.470  10.445  19.046  0.00  0.00    +0.000 A 
ATOM     19  C   UNL     1      -0.066   9.950  20.282  0.00  0.00    +0.000 A 
ATOM     20  C   UNL     1       0.987   9.030  20.390  0.00  0.00    +0.000 A 
ATOM     21 CL   UNL     1       1.412   8.660  22.027  0.00  0.00    +0.000 Cl
BRANCH  18  22
ATOM     22  O   UNL     1      -1.456  11.373  18.851  0.00  0.00    +0.000 OA
ATOM     23  C   UNL     1      -1.029  12.685  18.489  0.00  0.00    +0.000 C 
ENDBRANCH  18  22
ENDBRANCH  14  15
ENDBRANCH  13  14
ENDBRANCH   1  13
TORSDOF 11
ENDMDL
MODEL 5
REMARK VINA RESULT:      -6.1      2.715      4.006
REMARK  Name = 
REMARK  14 active torsions:
REMARK  status: ('A' for Active; 'I' for Inactive)
REMARK    1  A    between atoms: C_1  and  C_2
REMARK    2  A    between atoms: C_2  and  C_3
REMARK    3  A    between atoms: C_3  and  C_5
REMARK    4  A    between atoms: C_5  and  C_6
REMARK    5  A    between atoms: C_5  and  C_20
REMARK    6  A    between atoms: C_6  and  C_7
REMARK    7  A    between atoms: C_7  and  C_8
REMARK    8  A    between atoms: C_8  and  C_9
REMARK    9  A    between atoms: C_9  and  O_10
REMARK   10  A    between atoms: O_10  and  C_11
REMARK   11  A    between atoms: C_14  and  O_15
REMARK   12  A    between atoms: O_15  and  C_16
REMARK   13  A    between atoms: C_20  and  C_22
REMARK   14  A    between atoms: C_22  and  C_23
REMARK                            x       y       z     vdW  Elec       q    Type
REMARK                         _______ _______ _______ _____ _____    ______ ____
ROOT
ATOM      1  C   UNL     1       4.131   3.349  17.961  0.00  0.00    +0.000 C 
ENDROOT
BRANCH   1   2
ATOM      2  C   UNL     1       4.837   3.812  16.680  0.00  0.00    +0.000 C 
BRANCH   2   3
ATOM      3  C   UNL     1       4.769   5.324  16.438  0.00  0.00    +0.000 C 
BRANCH   3   4
ATOM      4  C   UNL     1       6.129   5.952  16.060  0.00  0.00    +0.000 C 
BRANCH   4   5
ATOM      5  C   UNL     1       7.078   4.953  15.393  0.00  0.00    +0.000 C 
ATOM      6  O   UNL     1       7.812   4.215  16.054  0.00  0.00    +0.000 OA
BRANCH   5   8
ATOM      7  C   UNL     1       6.099   3.697  13.449  0.00  0.00    +0.000 C 
ATOM      8  C   UNL     1       7.016   4.833  13.878  0.00  0.00    +0.000 C 
ENDBRANCH   5   8
ENDBRANCH   4   5
BRANCH   4   9
ATOM      9  C   UNL     1       6.752   6.669  17.248  0.00  0.00    +0.000 C 
ATOM     10  O   UNL     1       7.339   7.747  17.115  0.00  0.00    +0.000 OA
BRANCH   9  11
ATOM     11  C   UNL     1       6.567   6.037  18.619  0.00  0.00    +0.000 C 
ATOM     12  C   UNL     1       7.886   5.738  19.304  0.00  0.00    +0.000 C 
ENDBRANCH   9  11
ENDBRANCH   4   9
ENDBRANCH   3   4
ENDBRANCH   2   3
ENDBRANCH   1   2
BRANCH   1  13
ATOM     13  C   UNL     1       2.971   2.437  17.552  0.00  0.00    +0.000 C 
BRANCH  13  14
ATOM     14  O   UNL     1       1.707   3.065  17.749  0.00  0.00    +0.000 OA
BRANCH  14  15
ATOM     15  C   UNL     1       1.687   4.122  18.630  0.00  0.00    +0.000 A 
ATOM     16  C   UNL     1       1.903   5.365  18.013  0.00  0.00    +0.000 A 
ATOM     17  C   UNL     1       1.972   6.548  18.763  0.00  0.00    +0.000 A 
ATOM     18  C   UNL     1       1.828   6.517  20.147  0.00  0.00    +0.000 A 
ATOM     19  C   UNL     1       1.611   5.291  20.768  0.00  0.00    +0.000 A 
ATOM     20  C   UNL     1       1.557   4.099  20.029  0.00  0.00    +0.000 A 
ATOM     21 CL   UNL     1       1.422   2.684  21.018  0.00  0.00    +0.000 Cl
BRANCH  18  22
ATOM     22  O   UNL     1       1.935   7.719  20.790  0.00  0.00    +0.000 OA
ATOM     23  C   UNL     1       1.221   8.811  20.215  0.00  0.00    +0.000 C 
ENDBRANCH  18  22
ENDBRANCH  14  15
ENDBRANCH  13  14
ENDBRANCH   1  13
TORSDOF 11
ENDMDL
MODEL 6
REMARK VINA RESULT:      -6.0      2.525      3.943
REMARK  Name = 
REMARK  14 active torsions:
REMARK  status: ('A' for Active; 'I' for Inactive)
REMARK    1  A    between atoms: C_1  and  C_2
REMARK    2  A    between atoms: C_2  and  C_3
REMARK    3  A    between atoms: C_3  and  C_5
REMARK    4  A    between atoms: C_5  and  C_6
REMARK    5  A    between atoms: C_5  and  C_20
REMARK    6  A    between atoms: C_6  and  C_7
REMARK    7  A    between atoms: C_7  and  C_8
REMARK    8  A    between atoms: C_8  and  C_9
REMARK    9  A    between atoms: C_9  and  O_10
REMARK   10  A    between atoms: O_10  and  C_11
REMARK   11  A    between atoms: C_14  and  O_15
REMARK   12  A    between atoms: O_15  and  C_16
REMARK   13  A    between atoms: C_20  and  C_22
REMARK   14  A    between atoms: C_22  and  C_23
REMARK                            x       y       z     vdW  Elec       q    Type
REMARK                         _______ _______ _______ _____ _____    ______ ____
ROOT
ATOM      1  C   UNL     1       2.474   8.558  17.690  0.00  0.00    +0.000 C 
ENDROOT
BRANCH   1   2
ATOM      2  C   UNL     1       2.185   7.546  18.806  0.00  0.00    +0.000 C 
BRANCH   2   3
ATOM      3  C   UNL     1       3.236   6.437  18.933  0.00  0.00    +0.000 C 
BRANCH   3   4
ATOM      4  C   UNL     1       3.052   5.291  17.915  0.00  0.00    +0.000 C 
BRANCH   4   5
ATOM      5  C   UNL     1       1.795   4.458  18.179  0.00  0.00    +0.000 C 
ATOM      6  O   UNL     1       1.087   4.042  17.260  0.00  0.00    +0.000 OA
BRANCH   5   8
ATOM      7  C   UNL     1       1.629   2.579  19.838  0.00  0.00    +0.000 C 
ATOM      8  C   UNL     1       1.499   4.079  19.622  0.00  0.00    +0.000 C 
ENDBRANCH   5   8
ENDBRANCH   4   5
BRANCH   4   9
ATOM      9  C   UNL     1       4.315   4.450  17.801  0.00  0.00    +0.000 C 
ATOM     10  O   UNL     1       4.886   4.007  18.802  0.00  0.00    +0.000 OA
BRANCH   9  11
ATOM     11  C   UNL     1       4.810   4.121  16.400  0.00  0.00    +0.000 C 
ATOM     12  C   UNL     1       5.298   5.347  15.654  0.00  0.00    +0.000 C 
ENDBRANCH   9  11
ENDBRANCH   4   9
ENDBRANCH   3   4
ENDBRANCH   2   3
ENDBRANCH   1   2
BRANCH   1  13
ATOM     13  C   UNL     1       1.787   9.875  18.064  0.00  0.00    +0.000 C 
BRANCH  13  14
ATOM     14  O   UNL     1       0.829   9.699  19.104  0.00  0.00    +0.000 OA
BRANCH  14  15
ATOM     15  C   UNL     1      -0.390  10.309  18.912  0.00  0.00    +0.000 A 
ATOM     16  C   UNL     1      -1.070   9.848  17.773  0.00  0.00    +0.000 A 
ATOM     17  C   UNL     1      -2.302  10.396  17.390  0.00  0.00    +0.000 A 
ATOM     18  C   UNL     1      -2.884  11.418  18.135  0.00  0.00    +0.000 A 
ATOM     19  C   UNL     1      -2.219  11.880  19.266  0.00  0.00    +0.000 A 
ATOM     20  C   UNL     1      -0.977  11.351  19.650  0.00  0.00    +0.000 A 
ATOM     21 CL   UNL     1      -0.269  12.169  21.001  0.00  0.00    +0.000 Cl
BRANCH  18  22
ATOM     22  O   UNL     1      -4.073  11.902  17.665  0.00  0.00    +0.000 OA
ATOM     23  C   UNL     1      -5.192  11.021  17.744  0.00  0.00    +0.000 C 
ENDBRANCH  18  22
ENDBRANCH  14  15
ENDBRANCH  13  14
ENDBRANCH   1  13
TORSDOF 11
ENDMDL
MODEL 7
REMARK VINA RESULT:      -6.0      2.774      3.788
REMARK  Name = 
REMARK  14 active torsions:
REMARK  status: ('A' for Active; 'I' for Inactive)
REMARK    1  A    between atoms: C_1  and  C_2
REMARK    2  A    between atoms: C_2  and  C_3
REMARK    3  A    between atoms: C_3  and  C_5
REMARK    4  A    between atoms: C_5  and  C_6
REMARK    5  A    between atoms: C_5  and  C_20
REMARK    6  A    between atoms: C_6  and  C_7
REMARK    7  A    between atoms: C_7  and  C_8
REMARK    8  A    between atoms: C_8  and  C_9
REMARK    9  A    between atoms: C_9  and  O_10
REMARK   10  A    between atoms: O_10  and  C_11
REMARK   11  A    between atoms: C_14  and  O_15
REMARK   12  A    between atoms: O_15  and  C_16
REMARK   13  A    between atoms: C_20  and  C_22
REMARK   14  A    between atoms: C_22  and  C_23
REMARK                            x       y       z     vdW  Elec       q    Type
REMARK                         _______ _______ _______ _____ _____    ______ ____
ROOT
ATOM      1  C   UNL     1       4.591   3.196  19.040  0.00  0.00    +0.000 C 
ENDROOT
BRANCH   1   2
ATOM      2  C   UNL     1       5.644   4.278  18.764  0.00  0.00    +0.000 C 
BRANCH   2   3
ATOM      3  C   UNL     1       6.306   4.170  17.387  0.00  0.00    +0.000 C 
BRANCH   3   4
ATOM      4  C   UNL     1       5.868   5.276  16.402  0.00  0.00    +0.000 C 
BRANCH   4   5
ATOM      5  C   UNL     1       6.400   5.050  14.984  0.00  0.00    +0.000 C 
ATOM      6  O   UNL     1       7.542   5.382  14.659  0.00  0.00    +0.000 OA
BRANCH   5   8
ATOM      7  C   UNL     1       6.307   3.594  12.938  0.00  0.00    +0.000 C 
ATOM      8  C   UNL     1       5.497   4.311  14.008  0.00  0.00    +0.000 C 
ENDBRANCH   5   8
ENDBRANCH   4   5
BRANCH   4   9
ATOM      9  C   UNL     1       6.190   6.659  16.949  0.00  0.00    +0.000 C 
ATOM     10  O   UNL     1       5.298   7.448  17.272  0.00  0.00    +0.000 OA
BRANCH   9  11
ATOM     11  C   UNL     1       7.659   7.007  17.143  0.00  0.00    +0.000 C 
ATOM     12  C   UNL     1       8.044   7.108  18.606  0.00  0.00    +0.000 C 
ENDBRANCH   9  11
ENDBRANCH   4   9
ENDBRANCH   3   4
ENDBRANCH   2   3
ENDBRANCH   1   2
BRANCH   1  13
ATOM     13  C   UNL     1       3.701   3.081  17.800  0.00  0.00    +0.000 C 
BRANCH  13  14
ATOM     14  O   UNL     1       2.338   3.372  18.095  0.00  0.00    +0.000 OA
BRANCH  14  15
ATOM     15  C   UNL     1       2.109   4.511  18.834  0.00  0.00    +0.000 A 
ATOM     16  C   UNL     1       2.425   5.693  18.146  0.00  0.00    +0.000 A 
ATOM     17  C   UNL     1       2.308   6.948  18.761  0.00  0.00    +0.000 A 
ATOM     18  C   UNL     1       1.873   7.050  20.080  0.00  0.00    +0.000 A 
ATOM     19  C   UNL     1       1.555   5.885  20.769  0.00  0.00    +0.000 A 
ATOM     20  C   UNL     1       1.684   4.623  20.168  0.00  0.00    +0.000 A 
ATOM     21 CL   UNL     1       1.371   3.310  21.253  0.00  0.00    +0.000 Cl
BRANCH  18  22
ATOM     22  O   UNL     1       1.816   8.315  20.597  0.00  0.00    +0.000 OA
ATOM     23  C   UNL     1       0.874   8.528  21.646  0.00  0.00    +0.000 C 
ENDBRANCH  18  22
ENDBRANCH  14  15
ENDBRANCH  13  14
ENDBRANCH   1  13
TORSDOF 11
ENDMDL
MODEL 8
REMARK VINA RESULT:      -5.9      4.634      6.841
REMARK  Name = 
REMARK  14 active torsions:
REMARK  status: ('A' for Active; 'I' for Inactive)
REMARK    1  A    between atoms: C_1  and  C_2
REMARK    2  A    between atoms: C_2  and  C_3
REMARK    3  A    between atoms: C_3  and  C_5
REMARK    4  A    between atoms: C_5  and  C_6
REMARK    5  A    between atoms: C_5  and  C_20
REMARK    6  A    between atoms: C_6  and  C_7
REMARK    7  A    between atoms: C_7  and  C_8
REMARK    8  A    between atoms: C_8  and  C_9
REMARK    9  A    between atoms: C_9  and  O_10
REMARK   10  A    between atoms: O_10  and  C_11
REMARK   11  A    between atoms: C_14  and  O_15
REMARK   12  A    between atoms: O_15  and  C_16
REMARK   13  A    between atoms: C_20  and  C_22
REMARK   14  A    between atoms: C_22  and  C_23
REMARK                            x       y       z     vdW  Elec       q    Type
REMARK                         _______ _______ _______ _____ _____    ______ ____
ROOT
ATOM      1  C   UNL     1       7.865   9.446  17.940  0.00  0.00    +0.000 C 
ENDROOT
BRANCH   1   2
ATOM      2  C   UNL     1       8.105   8.049  17.351  0.00  0.00    +0.000 C 
BRANCH   2   3
ATOM      3  C   UNL     1       7.742   6.900  18.296  0.00  0.00    +0.000 C 
BRANCH   3   4
ATOM      4  C   UNL     1       6.564   6.035  17.795  0.00  0.00    +0.000 C 
BRANCH   4   5
ATOM      5  C   UNL     1       5.877   5.259  18.921  0.00  0.00    +0.000 C 
ATOM      6  O   UNL     1       6.484   4.917  19.938  0.00  0.00    +0.000 OA
BRANCH   5   8
ATOM      7  C   UNL     1       3.690   6.146  18.058  0.00  0.00    +0.000 C 
ATOM      8  C   UNL     1       4.384   5.003  18.784  0.00  0.00    +0.000 C 
ENDBRANCH   5   8
ENDBRANCH   4   5
BRANCH   4   9
ATOM      9  C   UNL     1       6.988   5.152  16.630  0.00  0.00    +0.000 C 
ATOM     10  O   UNL     1       7.940   4.372  16.726  0.00  0.00    +0.000 OA
BRANCH   9  11
ATOM     11  C   UNL     1       6.150   5.221  15.362  0.00  0.00    +0.000 C 
ATOM     12  C   UNL     1       6.048   3.882  14.658  0.00  0.00    +0.000 C 
ENDBRANCH   9  11
ENDBRANCH   4   9
ENDBRANCH   3   4
ENDBRANCH   2   3
ENDBRANCH   1   2
BRANCH   1  13
ATOM     13  C   UNL     1       9.110   9.838  18.740  0.00  0.00    +0.000 C 
BRANCH  13  14
ATOM     14  O   UNL     1       9.699  11.039  18.251  0.00  0.00    +0.000 OA
BRANCH  14  15
ATOM     15  C   UNL     1       9.109  12.213  18.663  0.00  0.00    +0.000 A 
ATOM     16  C   UNL     1       8.407  12.871  17.641  0.00  0.00    +0.000 A 
ATOM     17  C   UNL     1       7.788  14.110  17.864  0.00  0.00    +0.000 A 
ATOM     18  C   UNL     1       7.859  14.721  19.113  0.00  0.00    +0.000 A 
ATOM     19  C   UNL     1       8.551  14.076  20.133  0.00  0.00    +0.000 A 
ATOM     20  C   UNL     1       9.188  12.844  19.916  0.00  0.00    +0.000 A 
ATOM     21 CL   UNL     1      10.105  12.296  21.279  0.00  0.00    +0.000 Cl
BRANCH  18  22
ATOM     22  O   UNL     1       7.245  15.938  19.222  0.00  0.00    +0.000 OA
ATOM     23  C   UNL     1       7.963  17.058  18.708  0.00  0.00    +0.000 C 
ENDBRANCH  18  22
ENDBRANCH  14  15
ENDBRANCH  13  14
ENDBRANCH   1  13
TORSDOF 11
ENDMDL
MODEL 9
REMARK VINA RESULT:      -5.9      2.142      3.064
REMARK  Name = 
REMARK  14 active torsions:
REMARK  status: ('A' for Active; 'I' for Inactive)
REMARK    1  A    between atoms: C_1  and  C_2
REMARK    2  A    between atoms: C_2  and  C_3
REMARK    3  A    between atoms: C_3  and  C_5
REMARK    4  A    between atoms: C_5  and  C_6
REMARK    5  A    between atoms: C_5  and  C_20
REMARK    6  A    between atoms: C_6  and  C_7
REMARK    7  A    between atoms: C_7  and  C_8
REMARK    8  A    between atoms: C_8  and  C_9
REMARK    9  A    between atoms: C_9  and  O_10
REMARK   10  A    between atoms: O_10  and  C_11
REMARK   11  A    between atoms: C_14  and  O_15
REMARK   12  A    between atoms: O_15  and  C_16
REMARK   13  A    between atoms: C_20  and  C_22
REMARK   14  A    between atoms: C_22  and  C_23
REMARK                            x       y       z     vdW  Elec       q    Type
REMARK                         _______ _______ _______ _____ _____    ______ ____
ROOT
ATOM      1  C   UNL     1       1.503   5.607  20.472  0.00  0.00    +0.000 C 
ENDROOT
BRANCH   1   2
ATOM      2  C   UNL     1       2.719   4.674  20.525  0.00  0.00    +0.000 C 
BRANCH   2   3
ATOM      3  C   UNL     1       3.934   5.182  19.742  0.00  0.00    +0.000 C 
BRANCH   3   4
ATOM      4  C   UNL     1       4.490   4.158  18.728  0.00  0.00    +0.000 C 
BRANCH   4   5
ATOM      5  C   UNL     1       4.335   2.711  19.201  0.00  0.00    +0.000 C 
ATOM      6  O   UNL     1       4.919   2.290  20.202  0.00  0.00    +0.000 OA
BRANCH   5   8
ATOM      7  C   UNL     1       2.476   2.649  17.512  0.00  0.00    +0.000 C 
ATOM      8  C   UNL     1       3.354   1.829  18.444  0.00  0.00    +0.000 C 
ENDBRANCH   5   8
ENDBRANCH   4   5
BRANCH   4   9
ATOM      9  C   UNL     1       5.914   4.506  18.321  0.00  0.00    +0.000 C 
ATOM     10  O   UNL     1       6.762   4.832  19.156  0.00  0.00    +0.000 OA
BRANCH   9  11
ATOM     11  C   UNL     1       6.270   4.375  16.847  0.00  0.00    +0.000 C 
ATOM     12  C   UNL     1       5.128   4.780  15.935  0.00  0.00    +0.000 C 
ENDBRANCH   9  11
ENDBRANCH   4   9
ENDBRANCH   3   4
ENDBRANCH   2   3
ENDBRANCH   1   2
BRANCH   1  13
ATOM     13  C   UNL     1       2.008   7.017  20.153  0.00  0.00    +0.000 C 
BRANCH  13  14
ATOM     14  O   UNL     1       1.539   7.976  21.097  0.00  0.00    +0.000 OA
BRANCH  14  15
ATOM     15  C   UNL     1       0.868   9.059  20.575  0.00  0.00    +0.000 A 
ATOM     16  C   UNL     1       1.204   9.330  19.239  0.00  0.00    +0.000 A 
ATOM     17  C   UNL     1       0.660  10.431  18.561  0.00  0.00    +0.000 A 
ATOM     18  C   UNL     1      -0.231  11.286  19.202  0.00  0.00    +0.000 A 
ATOM     19  C   UNL     1      -0.572  11.025  20.525  0.00  0.00    +0.000 A 
ATOM     20  C   UNL     1      -0.021   9.937  21.218  0.00  0.00    +0.000 A 
ATOM     21 CL   UNL     1      -0.474   9.886  22.889  0.00  0.00    +0.000 Cl
BRANCH  18  22
ATOM     22  O   UNL     1      -0.686  12.344  18.463  0.00  0.00    +0.000 OA
ATOM     23  C   UNL     1      -0.515  13.638  19.037  0.00  0.00    +0.000 C 
ENDBRANCH  18  22
ENDBRANCH  14  15
ENDBRANCH  13  14
ENDBRANCH   1  13
TORSDOF 11
ENDMDL
