MODEL 1
REMARK VINA RESULT:      -7.8      0.000      0.000
REMARK  Name = 
REMARK  11 active torsions:
REMARK  status: ('A' for Active; 'I' for Inactive)
REMARK    1  A    between atoms: C_1  and  O_2
REMARK    2  A    between atoms: O_2  and  C_3
REMARK    3  A    between atoms: C_6  and  C_7
REMARK    4  A    between atoms: C_7  and  C_9
REMARK    5  A    between atoms: C_10  and  C_11
REMARK    6  A    between atoms: N_13  and  C_14
REMARK    7  A    between atoms: N_13  and  C_24
REMARK    8  A    between atoms: C_14  and  C_15
REMARK    9  A    between atoms: N_17  and  C_18
REMARK   10  A    between atoms: C_24  and  C_25
REMARK   11  A    between atoms: C_31  and  O_32
REMARK                            x       y       z     vdW  Elec       q    Type
REMARK                         _______ _______ _______ _____ _____    ______ ____
ROOT
ATOM      1  C   UNL     1       1.465   9.566  18.450  0.00  0.00    +0.000 C 
ATOM      2  O   UNL     1       1.670  10.075  17.353  0.00  0.00    +0.000 OA
ATOM      3  N   UNL     1       0.515  10.036  19.357  0.00  0.00    +0.000 N 
ENDROOT
BRANCH   1   5
ATOM      4  C   UNL     1       2.308   7.257  18.146  0.00  0.00    +0.000 C 
ATOM      5  C   UNL     1       2.286   8.386  18.873  0.00  0.00    +0.000 C 
BRANCH   4   6
ATOM      6  C   UNL     1       3.143   6.111  18.613  0.00  0.00    +0.000 C 
ATOM      7  O   UNL     1       2.902   5.523  19.666  0.00  0.00    +0.000 OA
BRANCH   6  11
ATOM      8  C   UNL     1       6.401   4.830  16.098  0.00  0.00    +0.000 A 
ATOM      9  C   UNL     1       6.355   6.140  16.585  0.00  0.00    +0.000 A 
ATOM     10  C   UNL     1       5.318   6.558  17.429  0.00  0.00    +0.000 A 
ATOM     11  C   UNL     1       4.300   5.668  17.787  0.00  0.00    +0.000 A 
ATOM     12  C   UNL     1       4.345   4.360  17.277  0.00  0.00    +0.000 A 
ATOM     13  C   UNL     1       5.399   3.935  16.464  0.00  0.00    +0.000 A 
BRANCH   8  15
ATOM     14  C   UNL     1       7.244   4.830  13.880  0.00  0.00    +0.000 C 
ATOM     15  O   UNL     1       7.449   4.557  15.262  0.00  0.00    +0.000 OA
ENDBRANCH   8  15
BRANCH  12  16
ATOM     16  O   UNL     1       3.364   3.430  17.502  0.00  0.00    +0.000 OA
ATOM     17  H   UNL     1       2.534   3.767  17.103  0.00  0.00    +0.000 HD
ENDBRANCH  12  16
ENDBRANCH   6  11
ENDBRANCH   4   6
ENDBRANCH   1   5
BRANCH   3  18
ATOM     18  C   UNL     1       0.213   9.331  20.606  0.00  0.00    +0.000 C 
BRANCH  18  19
ATOM     19  C   UNL     1       0.048  10.102  21.922  0.00  0.00    +0.000 C 
ATOM     20  O   UNL     1       0.904  10.099  22.794  0.00  0.00    +0.000 OA
ATOM     21  N   UNL     1      -1.138  10.815  22.005  0.00  0.00    +0.000 N 
ATOM     22  H   UNL     1      -1.906  10.558  21.395  0.00  0.00    +0.000 HD
BRANCH  21  23
ATOM     23  C   UNL     1      -1.344  11.840  23.018  0.00  0.00    +0.000 C 
ATOM     24  C   UNL     1      -0.692  13.160  22.581  0.00  0.00    +0.000 C 
ATOM     25  C   UNL     1      -1.605  14.068  21.767  0.00  0.00    +0.000 C 
ATOM     26  C   UNL     1      -2.900  14.328  22.520  0.00  0.00    +0.000 C 
ATOM     27  C   UNL     1      -3.648  13.026  22.755  0.00  0.00    +0.000 C 
ATOM     28  C   UNL     1      -2.809  11.962  23.462  0.00  0.00    +0.000 C 
ENDBRANCH  21  23
ENDBRANCH  18  19
ENDBRANCH   3  18
BRANCH   3  29
ATOM     29  C   UNL     1      -0.211  11.279  19.048  0.00  0.00    +0.000 C 
BRANCH  29  30
ATOM     30  C   UNL     1      -1.640  11.074  18.573  0.00  0.00    +0.000 A 
ATOM     31  C   UNL     1      -2.685  11.901  19.007  0.00  0.00    +0.000 A 
ATOM     32  C   UNL     1      -3.985  11.730  18.523  0.00  0.00    +0.000 A 
ATOM     33  C   UNL     1      -4.262  10.749  17.576  0.00  0.00    +0.000 A 
ATOM     34  C   UNL     1      -3.232   9.935  17.114  0.00  0.00    +0.000 A 
ATOM     35  C   UNL     1      -1.934  10.092  17.610  0.00  0.00    +0.000 A 
ENDBRANCH  29  30
ENDBRANCH   3  29
TORSDOF 10
ENDMDL
MODEL 2
REMARK VINA RESULT:      -7.7      2.849      9.342
REMARK  Name = 
REMARK  11 active torsions:
REMARK  status: ('A' for Active; 'I' for Inactive)
REMARK    1  A    between atoms: C_1  and  O_2
REMARK    2  A    between atoms: O_2  and  C_3
REMARK    3  A    between atoms: C_6  and  C_7
REMARK    4  A    between atoms: C_7  and  C_9
REMARK    5  A    between atoms: C_10  and  C_11
REMARK    6  A    between atoms: N_13  and  C_14
REMARK    7  A    between atoms: N_13  and  C_24
REMARK    8  A    between atoms: C_14  and  C_15
REMARK    9  A    between atoms: N_17  and  C_18
REMARK   10  A    between atoms: C_24  and  C_25
REMARK   11  A    between atoms: C_31  and  O_32
REMARK                            x       y       z     vdW  Elec       q    Type
REMARK                         _______ _______ _______ _____ _____    ______ ____
ROOT
ATOM      1  C   UNL     1       1.425   8.211  20.711  0.00  0.00    +0.000 C 
ATOM      2  O   UNL     1       1.395   8.171  21.938  0.00  0.00    +0.000 OA
ATOM      3  N   UNL     1       2.007   7.223  19.919  0.00  0.00    +0.000 N 
ENDROOT
BRANCH   1   5
ATOM      4  C   UNL     1      -0.308   9.960  20.435  0.00  0.00    +0.000 C 
ATOM      5  C   UNL     1       0.830   9.391  20.005  0.00  0.00    +0.000 C 
BRANCH   4   6
ATOM      6  C   UNL     1      -0.857  11.132  19.692  0.00  0.00    +0.000 C 
ATOM      7  O   UNL     1      -0.619  12.287  20.041  0.00  0.00    +0.000 OA
BRANCH   6  11
ATOM      8  C   UNL     1      -3.226  10.429  16.159  0.00  0.00    +0.000 A 
ATOM      9  C   UNL     1      -3.225   9.504  17.208  0.00  0.00    +0.000 A 
ATOM     10  C   UNL     1      -2.484   9.737  18.374  0.00  0.00    +0.000 A 
ATOM     11  C   UNL     1      -1.719  10.902  18.500  0.00  0.00    +0.000 A 
ATOM     12  C   UNL     1      -1.711  11.815  17.433  0.00  0.00    +0.000 A 
ATOM     13  C   UNL     1      -2.479  11.598  16.287  0.00  0.00    +0.000 A 
BRANCH   8  15
ATOM     14  C   UNL     1      -3.279  10.028  13.821  0.00  0.00    +0.000 C 
ATOM     15  O   UNL     1      -3.967  10.069  15.068  0.00  0.00    +0.000 OA
ENDBRANCH   8  15
BRANCH  12  16
ATOM     16  O   UNL     1      -0.941  12.949  17.419  0.00  0.00    +0.000 OA
ATOM     17  H   UNL     1      -0.082  12.723  17.005  0.00  0.00    +0.000 HD
ENDBRANCH  12  16
ENDBRANCH   6  11
ENDBRANCH   4   6
ENDBRANCH   1   5
BRANCH   3  18
ATOM     18  C   UNL     1       1.917   7.243  18.455  0.00  0.00    +0.000 C 
BRANCH  18  19
ATOM     19  C   UNL     1       3.140   7.596  17.599  0.00  0.00    +0.000 C 
ATOM     20  O   UNL     1       3.442   8.750  17.331  0.00  0.00    +0.000 OA
ATOM     21  N   UNL     1       3.873   6.492  17.193  0.00  0.00    +0.000 N 
ATOM     22  H   UNL     1       3.430   5.580  17.205  0.00  0.00    +0.000 HD
BRANCH  21  23
ATOM     23  C   UNL     1       5.216   6.624  16.646  0.00  0.00    +0.000 C 
ATOM     24  C   UNL     1       6.258   6.563  17.772  0.00  0.00    +0.000 C 
ATOM     25  C   UNL     1       6.748   5.156  18.093  0.00  0.00    +0.000 C 
ATOM     26  C   UNL     1       7.268   4.477  16.836  0.00  0.00    +0.000 C 
ATOM     27  C   UNL     1       6.158   4.347  15.805  0.00  0.00    +0.000 C 
ATOM     28  C   UNL     1       5.482   5.675  15.468  0.00  0.00    +0.000 C 
ENDBRANCH  21  23
ENDBRANCH  18  19
ENDBRANCH   3  18
BRANCH   3  29
ATOM     29  C   UNL     1       2.731   6.121  20.571  0.00  0.00    +0.000 C 
BRANCH  29  30
ATOM     30  C   UNL     1       2.379   4.738  20.051  0.00  0.00    +0.000 A 
ATOM     31  C   UNL     1       3.333   3.921  19.428  0.00  0.00    +0.000 A 
ATOM     32  C   UNL     1       3.005   2.631  18.999  0.00  0.00    +0.000 A 
ATOM     33  C   UNL     1       1.727   2.123  19.206  0.00  0.00    +0.000 A 
ATOM     34  C   UNL     1       0.774   2.910  19.846  0.00  0.00    +0.000 A 
ATOM     35  C   UNL     1       1.094   4.207  20.261  0.00  0.00    +0.000 A 
ENDBRANCH  29  30
ENDBRANCH   3  29
TORSDOF 10
ENDMDL
MODEL 3
REMARK VINA RESULT:      -7.4      2.831      9.909
REMARK  Name = 
REMARK  11 active torsions:
REMARK  status: ('A' for Active; 'I' for Inactive)
REMARK    1  A    between atoms: C_1  and  O_2
REMARK    2  A    between atoms: O_2  and  C_3
REMARK    3  A    between atoms: C_6  and  C_7
REMARK    4  A    between atoms: C_7  and  C_9
REMARK    5  A    between atoms: C_10  and  C_11
REMARK    6  A    between atoms: N_13  and  C_14
REMARK    7  A    between atoms: N_13  and  C_24
REMARK    8  A    between atoms: C_14  and  C_15
REMARK    9  A    between atoms: N_17  and  C_18
REMARK   10  A    between atoms: C_24  and  C_25
REMARK   11  A    between atoms: C_31  and  O_32
REMARK                            x       y       z     vdW  Elec       q    Type
REMARK                         _______ _______ _______ _____ _____    ______ ____
ROOT
ATOM      1  C   UNL     1       2.241   8.256  18.194  0.00  0.00    +0.000 C 
ATOM      2  O   UNL     1       2.640   8.646  17.101  0.00  0.00    +0.000 OA
ATOM      3  N   UNL     1       2.568   7.015  18.739  0.00  0.00    +0.000 N 
ENDROOT
BRANCH   1   5
ATOM      4  C   UNL     1       0.882  10.303  18.507  0.00  0.00    +0.000 C 
ATOM      5  C   UNL     1       1.329   9.134  18.995  0.00  0.00    +0.000 C 
BRANCH   4   6
ATOM      6  C   UNL     1      -0.023  11.140  19.349  0.00  0.00    +0.000 C 
ATOM      7  O   UNL     1       0.401  11.798  20.297  0.00  0.00    +0.000 OA
BRANCH   6  11
ATOM      8  C   UNL     1      -4.214  11.387  18.366  0.00  0.00    +0.000 A 
ATOM      9  C   UNL     1      -3.388  10.461  17.720  0.00  0.00    +0.000 A 
ATOM     10  C   UNL     1      -2.031  10.350  18.054  0.00  0.00    +0.000 A 
ATOM     11  C   UNL     1      -1.479  11.180  19.036  0.00  0.00    +0.000 A 
ATOM     12  C   UNL     1      -2.312  12.119  19.664  0.00  0.00    +0.000 A 
ATOM     13  C   UNL     1      -3.672  12.204  19.356  0.00  0.00    +0.000 A 
BRANCH   8  15
ATOM     14  C   UNL     1      -5.870  12.502  17.084  0.00  0.00    +0.000 C 
ATOM     15  O   UNL     1      -5.509  11.413  17.928  0.00  0.00    +0.000 OA
ENDBRANCH   8  15
BRANCH  12  16
ATOM     16  O   UNL     1      -1.860  13.030  20.584  0.00  0.00    +0.000 OA
ATOM     17  H   UNL     1      -2.479  13.791  20.581  0.00  0.00    +0.000 HD
ENDBRANCH  12  16
ENDBRANCH   6  11
ENDBRANCH   4   6
ENDBRANCH   1   5
BRANCH   3  18
ATOM     18  C   UNL     1       2.173   6.631  20.098  0.00  0.00    +0.000 C 
BRANCH  18  19
ATOM     19  C   UNL     1       1.769   5.187  20.419  0.00  0.00    +0.000 C 
ATOM     20  O   UNL     1       0.601   4.833  20.484  0.00  0.00    +0.000 OA
ATOM     21  N   UNL     1       2.846   4.333  20.596  0.00  0.00    +0.000 N 
ATOM     22  H   UNL     1       3.756   4.729  20.806  0.00  0.00    +0.000 HD
BRANCH  21  23
ATOM     23  C   UNL     1       2.683   2.886  20.600  0.00  0.00    +0.000 C 
ATOM     24  C   UNL     1       1.831   2.442  19.402  0.00  0.00    +0.000 C 
ATOM     25  C   UNL     1       2.634   2.143  18.143  0.00  0.00    +0.000 C 
ATOM     26  C   UNL     1       3.724   1.125  18.439  0.00  0.00    +0.000 C 
ATOM     27  C   UNL     1       4.693   1.670  19.476  0.00  0.00    +0.000 C 
ATOM     28  C   UNL     1       4.010   2.131  20.763  0.00  0.00    +0.000 C 
ENDBRANCH  21  23
ENDBRANCH  18  19
ENDBRANCH   3  18
BRANCH   3  29
ATOM     29  C   UNL     1       3.339   6.060  17.927  0.00  0.00    +0.000 C 
BRANCH  29  30
ATOM     30  C   UNL     1       4.845   6.147  18.109  0.00  0.00    +0.000 A 
ATOM     31  C   UNL     1       5.508   5.417  19.105  0.00  0.00    +0.000 A 
ATOM     32  C   UNL     1       6.900   5.470  19.229  0.00  0.00    +0.000 A 
ATOM     33  C   UNL     1       7.658   6.231  18.344  0.00  0.00    +0.000 A 
ATOM     34  C   UNL     1       7.019   6.941  17.333  0.00  0.00    +0.000 A 
ATOM     35  C   UNL     1       5.625   6.905  17.218  0.00  0.00    +0.000 A 
ENDBRANCH  29  30
ENDBRANCH   3  29
TORSDOF 10
ENDMDL
MODEL 4
REMARK VINA RESULT:      -7.4      3.341      9.570
REMARK  Name = 
REMARK  11 active torsions:
REMARK  status: ('A' for Active; 'I' for Inactive)
REMARK    1  A    between atoms: C_1  and  O_2
REMARK    2  A    between atoms: O_2  and  C_3
REMARK    3  A    between atoms: C_6  and  C_7
REMARK    4  A    between atoms: C_7  and  C_9
REMARK    5  A    between atoms: C_10  and  C_11
REMARK    6  A    between atoms: N_13  and  C_14
REMARK    7  A    between atoms: N_13  and  C_24
REMARK    8  A    between atoms: C_14  and  C_15
REMARK    9  A    between atoms: N_17  and  C_18
REMARK   10  A    between atoms: C_24  and  C_25
REMARK   11  A    between atoms: C_31  and  O_32
REMARK                            x       y       z     vdW  Elec       q    Type
REMARK                         _______ _______ _______ _____ _____    ______ ____
ROOT
ATOM      1  C   UNL     1       5.144   6.351  16.404  0.00  0.00    +0.000 C 
ATOM      2  O   UNL     1       5.225   7.171  15.494  0.00  0.00    +0.000 OA
ATOM      3  N   UNL     1       6.143   5.425  16.703  0.00  0.00    +0.000 N 
ENDROOT
BRANCH   1   5
ATOM      4  C   UNL     1       3.535   7.348  18.001  0.00  0.00    +0.000 C 
ATOM      5  C   UNL     1       3.899   6.306  17.237  0.00  0.00    +0.000 C 
BRANCH   4   6
ATOM      6  C   UNL     1       2.286   7.249  18.813  0.00  0.00    +0.000 C 
ATOM      7  O   UNL     1       1.677   6.188  18.936  0.00  0.00    +0.000 OA
BRANCH   6  11
ATOM      8  C   UNL     1       0.623  10.745  20.711  0.00  0.00    +0.000 A 
ATOM      9  C   UNL     1       0.886   9.591  21.457  0.00  0.00    +0.000 A 
ATOM     10  C   UNL     1       1.456   8.460  20.857  0.00  0.00    +0.000 A 
ATOM     11  C   UNL     1       1.760   8.466  19.491  0.00  0.00    +0.000 A 
ATOM     12  C   UNL     1       1.474   9.623  18.747  0.00  0.00    +0.000 A 
ATOM     13  C   UNL     1       0.939  10.762  19.355  0.00  0.00    +0.000 A 
BRANCH   8  15
ATOM     14  C   UNL     1       0.398  13.088  21.013  0.00  0.00    +0.000 C 
ATOM     15  O   UNL     1       0.041  11.767  21.409  0.00  0.00    +0.000 OA
ENDBRANCH   8  15
BRANCH  12  16
ATOM     16  O   UNL     1       1.661   9.712  17.392  0.00  0.00    +0.000 OA
ATOM     17  H   UNL     1       1.541   8.816  17.014  0.00  0.00    +0.000 HD
ENDBRANCH  12  16
ENDBRANCH   6  11
ENDBRANCH   4   6
ENDBRANCH   1   5
BRANCH   3  18
ATOM     18  C   UNL     1       6.064   4.543  17.871  0.00  0.00    +0.000 C 
BRANCH  18  19
ATOM     19  C   UNL     1       4.890   3.571  18.042  0.00  0.00    +0.000 C 
ATOM     20  O   UNL     1       4.473   2.879  17.124  0.00  0.00    +0.000 OA
ATOM     21  N   UNL     1       4.378   3.536  19.330  0.00  0.00    +0.000 N 
ATOM     22  H   UNL     1       4.570   4.312  19.953  0.00  0.00    +0.000 HD
BRANCH  21  23
ATOM     23  C   UNL     1       3.483   2.474  19.769  0.00  0.00    +0.000 C 
ATOM     24  C   UNL     1       2.963   2.767  21.183  0.00  0.00    +0.000 C 
ATOM     25  C   UNL     1       1.679   3.585  21.219  0.00  0.00    +0.000 C 
ATOM     26  C   UNL     1       0.604   2.920  20.374  0.00  0.00    +0.000 C 
ATOM     27  C   UNL     1       1.047   2.834  18.922  0.00  0.00    +0.000 C 
ATOM     28  C   UNL     1       2.396   2.139  18.738  0.00  0.00    +0.000 C 
ENDBRANCH  21  23
ENDBRANCH  18  19
ENDBRANCH   3  18
BRANCH   3  29
ATOM     29  C   UNL     1       7.317   5.334  15.821  0.00  0.00    +0.000 C 
BRANCH  29  30
ATOM     30  C   UNL     1       7.032   4.752  14.447  0.00  0.00    +0.000 A 
ATOM     31  C   UNL     1       5.988   3.839  14.237  0.00  0.00    +0.000 A 
ATOM     32  C   UNL     1       5.707   3.350  12.958  0.00  0.00    +0.000 A 
ATOM     33  C   UNL     1       6.445   3.782  11.860  0.00  0.00    +0.000 A 
ATOM     34  C   UNL     1       7.468   4.707  12.045  0.00  0.00    +0.000 A 
ATOM     35  C   UNL     1       7.763   5.185  13.326  0.00  0.00    +0.000 A 
ENDBRANCH  29  30
ENDBRANCH   3  29
TORSDOF 10
ENDMDL
MODEL 5
REMARK VINA RESULT:      -7.4      2.893     10.426
REMARK  Name = 
REMARK  11 active torsions:
REMARK  status: ('A' for Active; 'I' for Inactive)
REMARK    1  A    between atoms: C_1  and  O_2
REMARK    2  A    between atoms: O_2  and  C_3
REMARK    3  A    between atoms: C_6  and  C_7
REMARK    4  A    between atoms: C_7  and  C_9
REMARK    5  A    between atoms: C_10  and  C_11
REMARK    6  A    between atoms: N_13  and  C_14
REMARK    7  A    between atoms: N_13  and  C_24
REMARK    8  A    between atoms: C_14  and  C_15
REMARK    9  A    between atoms: N_17  and  C_18
REMARK   10  A    between atoms: C_24  and  C_25
REMARK   11  A    between atoms: C_31  and  O_32
REMARK                            x       y       z     vdW  Elec       q    Type
REMARK                         _______ _______ _______ _____ _____    ______ ____
ROOT
ATOM      1  C   UNL     1       2.545   7.129  19.155  0.00  0.00    +0.000 C 
ATOM      2  O   UNL     1       1.956   6.623  20.106  0.00  0.00    +0.000 OA
ATOM      3  N   UNL     1       3.727   6.621  18.618  0.00  0.00    +0.000 N 
ENDROOT
BRANCH   1   5
ATOM      4  C   UNL     1       1.315   9.276  19.266  0.00  0.00    +0.000 C 
ATOM      5  C   UNL     1       1.994   8.376  18.535  0.00  0.00    +0.000 C 
BRANCH   4   6
ATOM      6  C   UNL     1       0.787  10.501  18.597  0.00  0.00    +0.000 C 
ATOM      7  O   UNL     1       1.515  11.454  18.325  0.00  0.00    +0.000 OA
BRANCH   6  11
ATOM      8  C   UNL     1      -3.373  10.851  17.518  0.00  0.00    +0.000 A 
ATOM      9  C   UNL     1      -2.561   9.890  16.907  0.00  0.00    +0.000 A 
ATOM     10  C   UNL     1      -1.216   9.746  17.273  0.00  0.00    +0.000 A 
ATOM     11  C   UNL     1      -0.660  10.577  18.252  0.00  0.00    +0.000 A 
ATOM     12  C   UNL     1      -1.479  11.552  18.845  0.00  0.00    +0.000 A 
ATOM     13  C   UNL     1      -2.829  11.670  18.505  0.00  0.00    +0.000 A 
BRANCH   8  15
ATOM     14  C   UNL     1      -5.426  12.039  17.448  0.00  0.00    +0.000 C 
ATOM     15  O   UNL     1      -4.658  10.907  17.052  0.00  0.00    +0.000 OA
ENDBRANCH   8  15
BRANCH  12  16
ATOM     16  O   UNL     1      -1.021  12.466  19.759  0.00  0.00    +0.000 OA
ATOM     17  H   UNL     1      -1.002  12.028  20.636  0.00  0.00    +0.000 HD
ENDBRANCH  12  16
ENDBRANCH   6  11
ENDBRANCH   4   6
ENDBRANCH   1   5
BRANCH   3  18
ATOM     18  C   UNL     1       4.336   7.179  17.407  0.00  0.00    +0.000 C 
BRANCH  18  19
ATOM     19  C   UNL     1       5.641   6.598  16.846  0.00  0.00    +0.000 C 
ATOM     20  O   UNL     1       6.738   6.896  17.296  0.00  0.00    +0.000 OA
ATOM     21  N   UNL     1       5.448   5.693  15.814  0.00  0.00    +0.000 N 
ATOM     22  H   UNL     1       4.567   5.703  15.312  0.00  0.00    +0.000 HD
BRANCH  21  23
ATOM     23  C   UNL     1       6.515   4.811  15.361  0.00  0.00    +0.000 C 
ATOM     24  C   UNL     1       5.931   3.485  14.853  0.00  0.00    +0.000 C 
ATOM     25  C   UNL     1       5.580   3.486  13.370  0.00  0.00    +0.000 C 
ATOM     26  C   UNL     1       6.786   3.900  12.542  0.00  0.00    +0.000 C 
ATOM     27  C   UNL     1       7.222   5.310  12.905  0.00  0.00    +0.000 C 
ATOM     28  C   UNL     1       7.494   5.496  14.398  0.00  0.00    +0.000 C 
ENDBRANCH  21  23
ENDBRANCH  18  19
ENDBRANCH   3  18
BRANCH   3  29
ATOM     29  C   UNL     1       4.383   5.485  19.285  0.00  0.00    +0.000 C 
BRANCH  29  30
ATOM     30  C   UNL     1       3.903   4.119  18.825  0.00  0.00    +0.000 A 
ATOM     31  C   UNL     1       4.300   2.942  19.475  0.00  0.00    +0.000 A 
ATOM     32  C   UNL     1       3.811   1.697  19.069  0.00  0.00    +0.000 A 
ATOM     33  C   UNL     1       2.896   1.604  18.025  0.00  0.00    +0.000 A 
ATOM     34  C   UNL     1       2.471   2.765  17.385  0.00  0.00    +0.000 A 
ATOM     35  C   UNL     1       2.972   4.010  17.776  0.00  0.00    +0.000 A 
ENDBRANCH  29  30
ENDBRANCH   3  29
TORSDOF 10
ENDMDL
MODEL 6
REMARK VINA RESULT:      -7.3      3.180      9.365
REMARK  Name = 
REMARK  11 active torsions:
REMARK  status: ('A' for Active; 'I' for Inactive)
REMARK    1  A    between atoms: C_1  and  O_2
REMARK    2  A    between atoms: O_2  and  C_3
REMARK    3  A    between atoms: C_6  and  C_7
REMARK    4  A    between atoms: C_7  and  C_9
REMARK    5  A    between atoms: C_10  and  C_11
REMARK    6  A    between atoms: N_13  and  C_14
REMARK    7  A    between atoms: N_13  and  C_24
REMARK    8  A    between atoms: C_14  and  C_15
REMARK    9  A    between atoms: N_17  and  C_18
REMARK   10  A    between atoms: C_24  and  C_25
REMARK   11  A    between atoms: C_31  and  O_32
REMARK                            x       y       z     vdW  Elec       q    Type
REMARK                         _______ _______ _______ _____ _____    ______ ____
ROOT
ATOM      1  C   UNL     1       1.423   8.259  20.565  0.00  0.00    +0.000 C 
ATOM      2  O   UNL     1       1.339   8.401  21.782  0.00  0.00    +0.000 OA
ATOM      3  N   UNL     1       1.935   7.116  19.953  0.00  0.00    +0.000 N 
ENDROOT
BRANCH   1   5
ATOM      4  C   UNL     1       0.499  10.523  20.171  0.00  0.00    +0.000 C 
ATOM      5  C   UNL     1       0.977   9.373  19.668  0.00  0.00    +0.000 C 
BRANCH   4   6
ATOM      6  C   UNL     1       0.068  11.600  19.232  0.00  0.00    +0.000 C 
ATOM      7  O   UNL     1      -0.964  11.506  18.570  0.00  0.00    +0.000 OA
BRANCH   6  11
ATOM      8  C   UNL     1       2.448  15.151  18.668  0.00  0.00    +0.000 A 
ATOM      9  C   UNL     1       1.310  15.182  19.481  0.00  0.00    +0.000 A 
ATOM     10  C   UNL     1       0.548  14.026  19.697  0.00  0.00    +0.000 A 
ATOM     11  C   UNL     1       0.909  12.821  19.086  0.00  0.00    +0.000 A 
ATOM     12  C   UNL     1       2.042  12.805  18.256  0.00  0.00    +0.000 A 
ATOM     13  C   UNL     1       2.821  13.950  18.071  0.00  0.00    +0.000 A 
BRANCH   8  15
ATOM     14  C   UNL     1       3.039  16.934  17.219  0.00  0.00    +0.000 C 
ATOM     15  O   UNL     1       3.087  16.351  18.517  0.00  0.00    +0.000 OA
ENDBRANCH   8  15
BRANCH  12  16
ATOM     16  O   UNL     1       2.443  11.700  17.550  0.00  0.00    +0.000 OA
ATOM     17  H   UNL     1       3.228  11.324  18.003  0.00  0.00    +0.000 HD
ENDBRANCH  12  16
ENDBRANCH   6  11
ENDBRANCH   4   6
ENDBRANCH   1   5
BRANCH   3  18
ATOM     18  C   UNL     1       1.906   6.932  18.498  0.00  0.00    +0.000 C 
BRANCH  18  19
ATOM     19  C   UNL     1       3.103   7.346  17.632  0.00  0.00    +0.000 C 
ATOM     20  O   UNL     1       3.286   8.500  17.276  0.00  0.00    +0.000 OA
ATOM     21  N   UNL     1       3.957   6.297  17.325  0.00  0.00    +0.000 N 
ATOM     22  H   UNL     1       3.613   5.347  17.404  0.00  0.00    +0.000 HD
BRANCH  21  23
ATOM     23  C   UNL     1       5.289   6.530  16.785  0.00  0.00    +0.000 C 
ATOM     24  C   UNL     1       6.344   6.392  17.892  0.00  0.00    +0.000 C 
ATOM     25  C   UNL     1       6.883   4.978  18.068  0.00  0.00    +0.000 C 
ATOM     26  C   UNL     1       7.414   4.446  16.746  0.00  0.00    +0.000 C 
ATOM     27  C   UNL     1       6.300   4.382  15.714  0.00  0.00    +0.000 C 
ATOM     28  C   UNL     1       5.575   5.714  15.517  0.00  0.00    +0.000 C 
ENDBRANCH  21  23
ENDBRANCH  18  19
ENDBRANCH   3  18
BRANCH   3  29
ATOM     29  C   UNL     1       2.519   6.058  20.792  0.00  0.00    +0.000 C 
BRANCH  29  30
ATOM     30  C   UNL     1       2.289   4.646  20.281  0.00  0.00    +0.000 A 
ATOM     31  C   UNL     1       1.007   4.082  20.232  0.00  0.00    +0.000 A 
ATOM     32  C   UNL     1       0.805   2.800  19.712  0.00  0.00    +0.000 A 
ATOM     33  C   UNL     1       1.875   2.067  19.207  0.00  0.00    +0.000 A 
ATOM     34  C   UNL     1       3.151   2.621  19.224  0.00  0.00    +0.000 A 
ATOM     35  C   UNL     1       3.359   3.897  19.759  0.00  0.00    +0.000 A 
ENDBRANCH  29  30
ENDBRANCH   3  29
TORSDOF 10
ENDMDL
MODEL 7
REMARK VINA RESULT:      -7.2      2.586     10.608
REMARK  Name = 
REMARK  11 active torsions:
REMARK  status: ('A' for Active; 'I' for Inactive)
REMARK    1  A    between atoms: C_1  and  O_2
REMARK    2  A    between atoms: O_2  and  C_3
REMARK    3  A    between atoms: C_6  and  C_7
REMARK    4  A    between atoms: C_7  and  C_9
REMARK    5  A    between atoms: C_10  and  C_11
REMARK    6  A    between atoms: N_13  and  C_14
REMARK    7  A    between atoms: N_13  and  C_24
REMARK    8  A    between atoms: C_14  and  C_15
REMARK    9  A    between atoms: N_17  and  C_18
REMARK   10  A    between atoms: C_24  and  C_25
REMARK   11  A    between atoms: C_31  and  O_32
REMARK                            x       y       z     vdW  Elec       q    Type
REMARK                         _______ _______ _______ _____ _____    ______ ____
ROOT
ATOM      1  C   UNL     1       2.963   6.873  18.739  0.00  0.00    +0.000 C 
ATOM      2  O   UNL     1       2.352   6.327  19.653  0.00  0.00    +0.000 OA
ATOM      3  N   UNL     1       4.120   6.350  18.162  0.00  0.00    +0.000 N 
ENDROOT
BRANCH   1   5
ATOM      4  C   UNL     1       1.669   8.974  18.948  0.00  0.00    +0.000 C 
ATOM      5  C   UNL     1       2.472   8.187  18.215  0.00  0.00    +0.000 C 
BRANCH   4   6
ATOM      6  C   UNL     1       1.208  10.273  18.376  0.00  0.00    +0.000 C 
ATOM      7  O   UNL     1       1.790  10.808  17.434  0.00  0.00    +0.000 OA
BRANCH   6  11
ATOM      8  C   UNL     1      -2.314  12.078  20.087  0.00  0.00    +0.000 A 
ATOM      9  C   UNL     1      -1.132  11.987  20.830  0.00  0.00    +0.000 A 
ATOM     10  C   UNL     1       0.027  11.431  20.273  0.00  0.00    +0.000 A 
ATOM     11  C   UNL     1       0.014  10.945  18.961  0.00  0.00    +0.000 A 
ATOM     12  C   UNL     1      -1.183  11.024  18.231  0.00  0.00    +0.000 A 
ATOM     13  C   UNL     1      -2.328  11.611  18.775  0.00  0.00    +0.000 A 
BRANCH   8  15
ATOM     14  C   UNL     1      -3.173  12.928  22.129  0.00  0.00    +0.000 C 
ATOM     15  O   UNL     1      -3.380  12.615  20.755  0.00  0.00    +0.000 OA
ENDBRANCH   8  15
BRANCH  12  16
ATOM     16  O   UNL     1      -1.329  10.512  16.967  0.00  0.00    +0.000 OA
ATOM     17  H   UNL     1      -1.250   9.536  17.028  0.00  0.00    +0.000 HD
ENDBRANCH  12  16
ENDBRANCH   6  11
ENDBRANCH   4   6
ENDBRANCH   1   5
BRANCH   3  18
ATOM     18  C   UNL     1       4.754   6.966  16.992  0.00  0.00    +0.000 C 
BRANCH  18  19
ATOM     19  C   UNL     1       6.033   6.369  16.389  0.00  0.00    +0.000 C 
ATOM     20  O   UNL     1       7.137   6.554  16.879  0.00  0.00    +0.000 OA
ATOM     21  N   UNL     1       5.806   5.588  15.267  0.00  0.00    +0.000 N 
ATOM     22  H   UNL     1       4.936   5.701  14.759  0.00  0.00    +0.000 HD
BRANCH  21  23
ATOM     23  C   UNL     1       6.828   4.696  14.737  0.00  0.00    +0.000 C 
ATOM     24  C   UNL     1       6.183   3.420  14.177  0.00  0.00    +0.000 C 
ATOM     25  C   UNL     1       5.792   3.512  12.707  0.00  0.00    +0.000 C 
ATOM     26  C   UNL     1       6.988   3.928  11.866  0.00  0.00    +0.000 C 
ATOM     27  C   UNL     1       7.484   5.301  12.291  0.00  0.00    +0.000 C 
ATOM     28  C   UNL     1       7.804   5.398  13.782  0.00  0.00    +0.000 C 
ENDBRANCH  21  23
ENDBRANCH  18  19
ENDBRANCH   3  18
BRANCH   3  29
ATOM     29  C   UNL     1       4.721   5.138  18.742  0.00  0.00    +0.000 C 
BRANCH  29  30
ATOM     30  C   UNL     1       3.815   3.919  18.736  0.00  0.00    +0.000 A 
ATOM     31  C   UNL     1       3.407   3.300  19.926  0.00  0.00    +0.000 A 
ATOM     32  C   UNL     1       2.533   2.209  19.905  0.00  0.00    +0.000 A 
ATOM     33  C   UNL     1       2.030   1.731  18.699  0.00  0.00    +0.000 A 
ATOM     34  C   UNL     1       2.404   2.349  17.510  0.00  0.00    +0.000 A 
ATOM     35  C   UNL     1       3.292   3.430  17.526  0.00  0.00    +0.000 A 
ENDBRANCH  29  30
ENDBRANCH   3  29
TORSDOF 10
ENDMDL
MODEL 8
REMARK VINA RESULT:      -7.2      3.185      9.516
REMARK  Name = 
REMARK  11 active torsions:
REMARK  status: ('A' for Active; 'I' for Inactive)
REMARK    1  A    between atoms: C_1  and  O_2
REMARK    2  A    between atoms: O_2  and  C_3
REMARK    3  A    between atoms: C_6  and  C_7
REMARK    4  A    between atoms: C_7  and  C_9
REMARK    5  A    between atoms: C_10  and  C_11
REMARK    6  A    between atoms: N_13  and  C_14
REMARK    7  A    between atoms: N_13  and  C_24
REMARK    8  A    between atoms: C_14  and  C_15
REMARK    9  A    between atoms: N_17  and  C_18
REMARK   10  A    between atoms: C_24  and  C_25
REMARK   11  A    between atoms: C_31  and  O_32
REMARK                            x       y       z     vdW  Elec       q    Type
REMARK                         _______ _______ _______ _____ _____    ______ ____
ROOT
ATOM      1  C   UNL     1       1.410   8.228  20.408  0.00  0.00    +0.000 C 
ATOM      2  O   UNL     1       1.305   8.343  21.626  0.00  0.00    +0.000 OA
ATOM      3  N   UNL     1       2.000   7.131  19.782  0.00  0.00    +0.000 N 
ENDROOT
BRANCH   1   5
ATOM      4  C   UNL     1       0.353  10.438  20.041  0.00  0.00    +0.000 C 
ATOM      5  C   UNL     1       0.905   9.328  19.525  0.00  0.00    +0.000 C 
BRANCH   4   6
ATOM      6  C   UNL     1      -0.135  11.502  19.115  0.00  0.00    +0.000 C 
ATOM      7  O   UNL     1      -1.211  11.404  18.527  0.00  0.00    +0.000 OA
BRANCH   6  11
ATOM      8  C   UNL     1       2.282  15.038  18.623  0.00  0.00    +0.000 A 
ATOM      9  C   UNL     1       2.855  13.766  18.513  0.00  0.00    +0.000 A 
ATOM     10  C   UNL     1       2.073  12.611  18.640  0.00  0.00    +0.000 A 
ATOM     11  C   UNL     1       0.701  12.714  18.892  0.00  0.00    +0.000 A 
ATOM     12  C   UNL     1       0.139  13.995  19.020  0.00  0.00    +0.000 A 
ATOM     13  C   UNL     1       0.914  15.146  18.858  0.00  0.00    +0.000 A 
BRANCH   8  15
ATOM     14  C   UNL     1       3.084  16.840  17.304  0.00  0.00    +0.000 C 
ATOM     15  O   UNL     1       3.159  16.082  18.507  0.00  0.00    +0.000 OA
ENDBRANCH   8  15
BRANCH  12  16
ATOM     16  O   UNL     1      -1.176  14.211  19.340  0.00  0.00    +0.000 OA
ATOM     17  H   UNL     1      -1.413  13.595  20.066  0.00  0.00    +0.000 HD
ENDBRANCH  12  16
ENDBRANCH   6  11
ENDBRANCH   4   6
ENDBRANCH   1   5
BRANCH   3  18
ATOM     18  C   UNL     1       1.998   6.970  18.325  0.00  0.00    +0.000 C 
BRANCH  18  19
ATOM     19  C   UNL     1       3.225   7.363  17.491  0.00  0.00    +0.000 C 
ATOM     20  O   UNL     1       3.459   8.521  17.176  0.00  0.00    +0.000 OA
ATOM     21  N   UNL     1       4.041   6.292  17.164  0.00  0.00    +0.000 N 
ATOM     22  H   UNL     1       3.659   5.354  17.207  0.00  0.00    +0.000 HD
BRANCH  21  23
ATOM     23  C   UNL     1       5.391   6.488  16.653  0.00  0.00    +0.000 C 
ATOM     24  C   UNL     1       6.395   6.552  17.813  0.00  0.00    +0.000 C 
ATOM     25  C   UNL     1       6.965   5.198  18.219  0.00  0.00    +0.000 C 
ATOM     26  C   UNL     1       7.572   4.496  17.016  0.00  0.00    +0.000 C 
ATOM     27  C   UNL     1       6.510   4.242  15.958  0.00  0.00    +0.000 C 
ATOM     28  C   UNL     1       5.760   5.504  15.534  0.00  0.00    +0.000 C 
ENDBRANCH  21  23
ENDBRANCH  18  19
ENDBRANCH   3  18
BRANCH   3  29
ATOM     29  C   UNL     1       2.640   6.097  20.611  0.00  0.00    +0.000 C 
BRANCH  29  30
ATOM     30  C   UNL     1       2.389   4.671  20.148  0.00  0.00    +0.000 A 
ATOM     31  C   UNL     1       3.425   3.862  19.662  0.00  0.00    +0.000 A 
ATOM     32  C   UNL     1       3.187   2.537  19.287  0.00  0.00    +0.000 A 
ATOM     33  C   UNL     1       1.915   1.986  19.414  0.00  0.00    +0.000 A 
ATOM     34  C   UNL     1       0.880   2.766  19.919  0.00  0.00    +0.000 A 
ATOM     35  C   UNL     1       1.112   4.098  20.279  0.00  0.00    +0.000 A 
ENDBRANCH  29  30
ENDBRANCH   3  29
TORSDOF 10
ENDMDL
MODEL 9
REMARK VINA RESULT:      -7.2      2.709     10.051
REMARK  Name = 
REMARK  11 active torsions:
REMARK  status: ('A' for Active; 'I' for Inactive)
REMARK    1  A    between atoms: C_1  and  O_2
REMARK    2  A    between atoms: O_2  and  C_3
REMARK    3  A    between atoms: C_6  and  C_7
REMARK    4  A    between atoms: C_7  and  C_9
REMARK    5  A    between atoms: C_10  and  C_11
REMARK    6  A    between atoms: N_13  and  C_14
REMARK    7  A    between atoms: N_13  and  C_24
REMARK    8  A    between atoms: C_14  and  C_15
REMARK    9  A    between atoms: N_17  and  C_18
REMARK   10  A    between atoms: C_24  and  C_25
REMARK   11  A    between atoms: C_31  and  O_32
REMARK                            x       y       z     vdW  Elec       q    Type
REMARK                         _______ _______ _______ _____ _____    ______ ____
ROOT
ATOM      1  C   UNL     1       1.460   8.139  20.621  0.00  0.00    +0.000 C 
ATOM      2  O   UNL     1       1.387   8.198  21.845  0.00  0.00    +0.000 OA
ATOM      3  N   UNL     1       1.965   7.039  19.929  0.00  0.00    +0.000 N 
ENDROOT
BRANCH   1   5
ATOM      4  C   UNL     1      -0.089  10.010  20.138  0.00  0.00    +0.000 C 
ATOM      5  C   UNL     1       1.008   9.311  19.805  0.00  0.00    +0.000 C 
BRANCH   4   6
ATOM      6  C   UNL     1      -0.494  11.169  19.288  0.00  0.00    +0.000 C 
ATOM      7  O   UNL     1       0.335  11.856  18.693  0.00  0.00    +0.000 OA
BRANCH   6  11
ATOM      8  C   UNL     1      -4.635  12.294  18.871  0.00  0.00    +0.000 A 
ATOM      9  C   UNL     1      -4.023  11.476  17.915  0.00  0.00    +0.000 A 
ATOM     10  C   UNL     1      -2.687  11.079  18.057  0.00  0.00    +0.000 A 
ATOM     11  C   UNL     1      -1.938  11.508  19.159  0.00  0.00    +0.000 A 
ATOM     12  C   UNL     1      -2.557  12.345  20.102  0.00  0.00    +0.000 A 
ATOM     13  C   UNL     1      -3.899  12.711  19.977  0.00  0.00    +0.000 A 
BRANCH   8  15
ATOM     14  C   UNL     1      -6.315  12.627  17.229  0.00  0.00    +0.000 C 
ATOM     15  O   UNL     1      -5.932  12.632  18.600  0.00  0.00    +0.000 OA
ENDBRANCH   8  15
BRANCH  12  16
ATOM     16  O   UNL     1      -1.898  12.883  21.177  0.00  0.00    +0.000 OA
ATOM     17  H   UNL     1      -2.564  13.083  21.868  0.00  0.00    +0.000 HD
ENDBRANCH  12  16
ENDBRANCH   6  11
ENDBRANCH   4   6
ENDBRANCH   1   5
BRANCH   3  18
ATOM     18  C   UNL     1       1.924   6.952  18.466  0.00  0.00    +0.000 C 
BRANCH  18  19
ATOM     19  C   UNL     1       3.132   7.376  17.621  0.00  0.00    +0.000 C 
ATOM     20  O   UNL     1       3.359   8.544  17.341  0.00  0.00    +0.000 OA
ATOM     21  N   UNL     1       3.942   6.318  17.239  0.00  0.00    +0.000 N 
ATOM     22  H   UNL     1       3.562   5.379  17.258  0.00  0.00    +0.000 HD
BRANCH  21  23
ATOM     23  C   UNL     1       5.281   6.534  16.707  0.00  0.00    +0.000 C 
ATOM     24  C   UNL     1       6.313   6.532  17.844  0.00  0.00    +0.000 C 
ATOM     25  C   UNL     1       6.883   5.157  18.167  0.00  0.00    +0.000 C 
ATOM     26  C   UNL     1       7.458   4.515  16.915  0.00  0.00    +0.000 C 
ATOM     27  C   UNL     1       6.370   4.321  15.870  0.00  0.00    +0.000 C 
ATOM     28  C   UNL     1       5.617   5.607  15.530  0.00  0.00    +0.000 C 
ENDBRANCH  21  23
ENDBRANCH  18  19
ENDBRANCH   3  18
BRANCH   3  29
ATOM     29  C   UNL     1       2.555   5.926  20.691  0.00  0.00    +0.000 C 
BRANCH  29  30
ATOM     30  C   UNL     1       2.326   4.553  20.083  0.00  0.00    +0.000 A 
ATOM     31  C   UNL     1       3.381   3.802  19.546  0.00  0.00    +0.000 A 
ATOM     32  C   UNL     1       3.162   2.519  19.034  0.00  0.00    +0.000 A 
ATOM     33  C   UNL     1       1.892   1.952  19.072  0.00  0.00    +0.000 A 
ATOM     34  C   UNL     1       0.838   2.673  19.625  0.00  0.00    +0.000 A 
ATOM     35  C   UNL     1       1.050   3.963  20.121  0.00  0.00    +0.000 A 
ENDBRANCH  29  30
ENDBRANCH   3  29
TORSDOF 10
ENDMDL
