MODEL 1
REMARK VINA RESULT:      -8.5      0.000      0.000
REMARK  Name = 
REMARK  10 active torsions:
REMARK  status: ('A' for Active; 'I' for Inactive)
REMARK    1  A    between atoms: C_1  and  C_2
REMARK    2  A    between atoms: C_2  and  C_3
REMARK    3  A    between atoms: C_3  and  C_4
REMARK    4  A    between atoms: C_3  and  N_5
REMARK    5  A    between atoms: C_6  and  C_8
REMARK    6  A    between atoms: C_8  and  C_9
REMARK    7  A    between atoms: C_9  and  C_10
REMARK    8  A    between atoms: C_16  and  C_17
REMARK    9  A    between atoms: C_20  and  O_21
REMARK   10  A    between atoms: O_21  and  C_22
REMARK                            x       y       z     vdW  Elec       q    Type
REMARK                         _______ _______ _______ _____ _____    ______ ____
ROOT
ATOM      1  C   UNL     1       4.814   5.228  16.798  0.00  0.00    +0.000 A 
ATOM      2  N   UNL     1       4.876   6.393  16.173  0.00  0.00    +0.000 NA
ATOM      3  N   UNL     1       4.107   7.306  16.860  0.00  0.00    +0.000 NA
ATOM      4  C   UNL     1       3.598   6.676  17.887  0.00  0.00    +0.000 A 
ATOM      5  C   UNL     1       2.732   7.152  18.909  0.00  0.00    +0.000 A 
ATOM      6  C   UNL     1       2.133   8.352  19.161  0.00  0.00    +0.000 A 
ATOM      7  C   UNL     1       1.399   8.145  20.357  0.00  0.00    +0.000 A 
ATOM      8  N   UNL     1       1.525   6.878  20.796  0.00  0.00    +0.000 NA
ATOM      9  N   UNL     1       2.345   6.267  19.907  0.00  0.00    +0.000 N 
ATOM     10  C   UNL     1       2.790   4.929  19.903  0.00  0.00    +0.000 A 
ATOM     11  C   UNL     1       3.606   4.475  18.925  0.00  0.00    +0.000 A 
ATOM     12  N   UNL     1       4.011   5.357  17.912  0.00  0.00    +0.000 N 
ENDROOT
BRANCH   7  13
ATOM     13  C   UNL     1       0.585   9.134  21.067  0.00  0.00    +0.000 A 
ATOM     14  C   UNL     1       0.426   9.075  22.456  0.00  0.00    +0.000 A 
ATOM     15  C   UNL     1      -0.377  10.003  23.119  0.00  0.00    +0.000 A 
ATOM     16  C   UNL     1      -1.021  11.023  22.414  0.00  0.00    +0.000 A 
ATOM     17  C   UNL     1      -0.873  11.091  21.029  0.00  0.00    +0.000 A 
ATOM     18  C   UNL     1      -0.074  10.154  20.361  0.00  0.00    +0.000 A 
BRANCH  16  19
ATOM     19  O   UNL     1      -1.807  11.851  23.162  0.00  0.00    +0.000 OA
ATOM     20  C   UNL     1      -1.363  13.200  23.271  0.00  0.00    +0.000 C 
ENDBRANCH  16  19
ENDBRANCH   7  13
BRANCH   1  21
ATOM     21  C   UNL     1       5.486   3.965  16.387  0.00  0.00    +0.000 C 
BRANCH  21  22
ATOM     22  C   UNL     1       6.877   4.213  15.798  0.00  0.00    +0.000 C 
BRANCH  22  24
ATOM     23  N   UNL     1       6.073   3.355  13.673  0.00  0.00    +0.000 N 
ATOM     24  C   UNL     1       6.797   4.349  14.294  0.00  0.00    +0.000 C 
ATOM     25  O   UNL     1       7.320   5.278  13.685  0.00  0.00    +0.000 OA
ATOM     26  H   UNL     1       5.842   2.521  14.199  0.00  0.00    +0.000 HD
BRANCH  23  27
ATOM     27  C   UNL     1       5.904   3.336  12.223  0.00  0.00    +0.000 C 
ATOM     28  C   UNL     1       6.083   1.916  11.685  0.00  0.00    +0.000 C 
BRANCH  27  30
ATOM     29  C   UNL     1       3.791   2.990  10.842  0.00  0.00    +0.000 C 
ATOM     30  C   UNL     1       4.543   3.905  11.800  0.00  0.00    +0.000 C 
ENDBRANCH  27  30
ENDBRANCH  23  27
ENDBRANCH  22  24
ENDBRANCH  21  22
ENDBRANCH   1  21
TORSDOF 7
ENDMDL
MODEL 2
REMARK VINA RESULT:      -8.0      3.402     11.323
REMARK  Name = 
REMARK  10 active torsions:
REMARK  status: ('A' for Active; 'I' for Inactive)
REMARK    1  A    between atoms: C_1  and  C_2
REMARK    2  A    between atoms: C_2  and  C_3
REMARK    3  A    between atoms: C_3  and  C_4
REMARK    4  A    between atoms: C_3  and  N_5
REMARK    5  A    between atoms: C_6  and  C_8
REMARK    6  A    between atoms: C_8  and  C_9
REMARK    7  A    between atoms: C_9  and  C_10
REMARK    8  A    between atoms: C_16  and  C_17
REMARK    9  A    between atoms: C_20  and  O_21
REMARK   10  A    between atoms: O_21  and  C_22
REMARK                            x       y       z     vdW  Elec       q    Type
REMARK                         _______ _______ _______ _____ _____    ______ ____
ROOT
ATOM      1  C   UNL     1      -0.622  11.230  22.507  0.00  0.00    +0.000 A 
ATOM      2  N   UNL     1      -0.283  10.288  23.373  0.00  0.00    +0.000 NA
ATOM      3  N   UNL     1       0.432   9.315  22.711  0.00  0.00    +0.000 NA
ATOM      4  C   UNL     1       0.512   9.688  21.460  0.00  0.00    +0.000 A 
ATOM      5  C   UNL     1       1.135   9.044  20.356  0.00  0.00    +0.000 A 
ATOM      6  C   UNL     1       1.810   7.869  20.203  0.00  0.00    +0.000 A 
ATOM      7  C   UNL     1       2.176   7.839  18.832  0.00  0.00    +0.000 A 
ATOM      8  N   UNL     1       1.724   8.928  18.181  0.00  0.00    +0.000 NA
ATOM      9  N   UNL     1       1.086   9.670  19.118  0.00  0.00    +0.000 N 
ATOM     10  C   UNL     1       0.426  10.906  18.954  0.00  0.00    +0.000 A 
ATOM     11  C   UNL     1      -0.175  11.513  20.003  0.00  0.00    +0.000 A 
ATOM     12  N   UNL     1      -0.130  10.896  21.263  0.00  0.00    +0.000 N 
ENDROOT
BRANCH   7  13
ATOM     13  C   UNL     1       2.934   6.787  18.151  0.00  0.00    +0.000 A 
ATOM     14  C   UNL     1       2.550   5.445  18.246  0.00  0.00    +0.000 A 
ATOM     15  C   UNL     1       3.296   4.447  17.619  0.00  0.00    +0.000 A 
ATOM     16  C   UNL     1       4.429   4.768  16.867  0.00  0.00    +0.000 A 
ATOM     17  C   UNL     1       4.824   6.102  16.767  0.00  0.00    +0.000 A 
ATOM     18  C   UNL     1       4.080   7.104  17.403  0.00  0.00    +0.000 A 
BRANCH  16  19
ATOM     19  O   UNL     1       5.099   3.707  16.328  0.00  0.00    +0.000 OA
ATOM     20  C   UNL     1       5.995   4.013  15.264  0.00  0.00    +0.000 C 
ENDBRANCH  16  19
ENDBRANCH   7  13
BRANCH   1  21
ATOM     21  C   UNL     1      -1.413  12.457  22.798  0.00  0.00    +0.000 C 
BRANCH  21  22
ATOM     22  C   UNL     1      -2.861  12.138  23.180  0.00  0.00    +0.000 C 
BRANCH  22  24
ATOM     23  N   UNL     1      -5.140  12.396  22.381  0.00  0.00    +0.000 N 
ATOM     24  C   UNL     1      -3.814  12.687  22.142  0.00  0.00    +0.000 C 
ATOM     25  O   UNL     1      -3.436  13.351  21.181  0.00  0.00    +0.000 OA
ATOM     26  H   UNL     1      -5.366  11.686  23.067  0.00  0.00    +0.000 HD
BRANCH  23  27
ATOM     27  C   UNL     1      -6.188  12.848  21.471  0.00  0.00    +0.000 C 
ATOM     28  C   UNL     1      -6.758  11.665  20.687  0.00  0.00    +0.000 C 
BRANCH  27  30
ATOM     29  C   UNL     1      -7.535  13.060  23.624  0.00  0.00    +0.000 C 
ATOM     30  C   UNL     1      -7.307  13.591  22.215  0.00  0.00    +0.000 C 
ENDBRANCH  27  30
ENDBRANCH  23  27
ENDBRANCH  22  24
ENDBRANCH  21  22
ENDBRANCH   1  21
TORSDOF 7
ENDMDL
MODEL 3
REMARK VINA RESULT:      -7.8      5.534      7.974
REMARK  Name = 
REMARK  10 active torsions:
REMARK  status: ('A' for Active; 'I' for Inactive)
REMARK    1  A    between atoms: C_1  and  C_2
REMARK    2  A    between atoms: C_2  and  C_3
REMARK    3  A    between atoms: C_3  and  C_4
REMARK    4  A    between atoms: C_3  and  N_5
REMARK    5  A    between atoms: C_6  and  C_8
REMARK    6  A    between atoms: C_8  and  C_9
REMARK    7  A    between atoms: C_9  and  C_10
REMARK    8  A    between atoms: C_16  and  C_17
REMARK    9  A    between atoms: C_20  and  O_21
REMARK   10  A    between atoms: O_21  and  C_22
REMARK                            x       y       z     vdW  Elec       q    Type
REMARK                         _______ _______ _______ _____ _____    ______ ____
ROOT
ATOM      1  C   UNL     1       5.610   4.853  16.463  0.00  0.00    +0.000 A 
ATOM      2  N   UNL     1       5.131   5.747  15.613  0.00  0.00    +0.000 NA
ATOM      3  N   UNL     1       5.709   6.968  15.881  0.00  0.00    +0.000 NA
ATOM      4  C   UNL     1       6.528   6.788  16.885  0.00  0.00    +0.000 A 
ATOM      5  C   UNL     1       7.366   7.719  17.555  0.00  0.00    +0.000 A 
ATOM      6  C   UNL     1       7.589   9.059  17.422  0.00  0.00    +0.000 A 
ATOM      7  C   UNL     1       8.561   9.363  18.410  0.00  0.00    +0.000 A 
ATOM      8  N   UNL     1       8.892   8.269  19.124  0.00  0.00    +0.000 NA
ATOM      9  N   UNL     1       8.159   7.259  18.598  0.00  0.00    +0.000 N 
ATOM     10  C   UNL     1       8.127   5.905  18.990  0.00  0.00    +0.000 A 
ATOM     11  C   UNL     1       7.322   5.020  18.358  0.00  0.00    +0.000 A 
ATOM     12  N   UNL     1       6.518   5.469  17.299  0.00  0.00    +0.000 N 
ENDROOT
BRANCH   7  13
ATOM     13  C   UNL     1       9.158  10.673  18.678  0.00  0.00    +0.000 A 
ATOM     14  C   UNL     1      10.002  10.870  19.776  0.00  0.00    +0.000 A 
ATOM     15  C   UNL     1      10.541  12.130  20.040  0.00  0.00    +0.000 A 
ATOM     16  C   UNL     1      10.267  13.213  19.203  0.00  0.00    +0.000 A 
ATOM     17  C   UNL     1       9.425  13.030  18.107  0.00  0.00    +0.000 A 
ATOM     18  C   UNL     1       8.876  11.769  17.845  0.00  0.00    +0.000 A 
BRANCH  16  19
ATOM     19  O   UNL     1      10.821  14.404  19.579  0.00  0.00    +0.000 OA
ATOM     20  C   UNL     1      10.928  15.390  18.558  0.00  0.00    +0.000 C 
ENDBRANCH  16  19
ENDBRANCH   7  13
BRANCH   1  21
ATOM     21  C   UNL     1       5.243   3.413  16.535  0.00  0.00    +0.000 C 
BRANCH  21  22
ATOM     22  C   UNL     1       3.863   3.195  17.163  0.00  0.00    +0.000 C 
BRANCH  22  24
ATOM     23  N   UNL     1       2.844   4.082  19.181  0.00  0.00    +0.000 N 
ATOM     24  C   UNL     1       3.925   3.405  18.659  0.00  0.00    +0.000 C 
ATOM     25  O   UNL     1       4.852   2.990  19.348  0.00  0.00    +0.000 OA
ATOM     26  H   UNL     1       2.222   4.568  18.546  0.00  0.00    +0.000 HD
BRANCH  23  27
ATOM     27  C   UNL     1       2.752   4.373  20.609  0.00  0.00    +0.000 C 
ATOM     28  C   UNL     1       1.603   5.345  20.880  0.00  0.00    +0.000 C 
BRANCH  27  30
ATOM     29  C   UNL     1       1.124   2.733  21.683  0.00  0.00    +0.000 C 
ATOM     30  C   UNL     1       2.584   3.094  21.440  0.00  0.00    +0.000 C 
ENDBRANCH  27  30
ENDBRANCH  23  27
ENDBRANCH  22  24
ENDBRANCH  21  22
ENDBRANCH   1  21
TORSDOF 7
ENDMDL
MODEL 4
REMARK VINA RESULT:      -7.8      1.357      2.160
REMARK  Name = 
REMARK  10 active torsions:
REMARK  status: ('A' for Active; 'I' for Inactive)
REMARK    1  A    between atoms: C_1  and  C_2
REMARK    2  A    between atoms: C_2  and  C_3
REMARK    3  A    between atoms: C_3  and  C_4
REMARK    4  A    between atoms: C_3  and  N_5
REMARK    5  A    between atoms: C_6  and  C_8
REMARK    6  A    between atoms: C_8  and  C_9
REMARK    7  A    between atoms: C_9  and  C_10
REMARK    8  A    between atoms: C_16  and  C_17
REMARK    9  A    between atoms: C_20  and  O_21
REMARK   10  A    between atoms: O_21  and  C_22
REMARK                            x       y       z     vdW  Elec       q    Type
REMARK                         _______ _______ _______ _____ _____    ______ ____
ROOT
ATOM      1  C   UNL     1       3.907   4.554  18.437  0.00  0.00    +0.000 A 
ATOM      2  N   UNL     1       3.637   4.039  19.625  0.00  0.00    +0.000 NA
ATOM      3  N   UNL     1       2.925   4.963  20.358  0.00  0.00    +0.000 NA
ATOM      4  C   UNL     1       2.776   6.016  19.597  0.00  0.00    +0.000 A 
ATOM      5  C   UNL     1       2.124   7.250  19.867  0.00  0.00    +0.000 A 
ATOM      6  C   UNL     1       1.481   7.763  20.956  0.00  0.00    +0.000 A 
ATOM      7  C   UNL     1       1.054   9.053  20.548  0.00  0.00    +0.000 A 
ATOM      8  N   UNL     1       1.441   9.320  19.286  0.00  0.00    +0.000 NA
ATOM      9  N   UNL     1       2.097   8.212  18.867  0.00  0.00    +0.000 N 
ATOM     10  C   UNL     1       2.708   7.978  17.617  0.00  0.00    +0.000 A 
ATOM     11  C   UNL     1       3.337   6.807  17.364  0.00  0.00    +0.000 A 
ATOM     12  N   UNL     1       3.369   5.822  18.363  0.00  0.00    +0.000 N 
ENDROOT
BRANCH   7  13
ATOM     13  C   UNL     1       0.300  10.019  21.350  0.00  0.00    +0.000 A 
ATOM     14  C   UNL     1      -0.387   9.620  22.501  0.00  0.00    +0.000 A 
ATOM     15  C   UNL     1      -1.129  10.542  23.241  0.00  0.00    +0.000 A 
ATOM     16  C   UNL     1      -1.183  11.885  22.860  0.00  0.00    +0.000 A 
ATOM     17  C   UNL     1      -0.505  12.294  21.712  0.00  0.00    +0.000 A 
ATOM     18  C   UNL     1       0.233  11.368  20.965  0.00  0.00    +0.000 A 
BRANCH  16  19
ATOM     19  O   UNL     1      -1.966  12.687  23.639  0.00  0.00    +0.000 OA
ATOM     20  C   UNL     1      -1.970  14.070  23.301  0.00  0.00    +0.000 C 
ENDBRANCH  16  19
ENDBRANCH   7  13
BRANCH   1  21
ATOM     21  C   UNL     1       4.670   3.899  17.340  0.00  0.00    +0.000 C 
BRANCH  21  22
ATOM     22  C   UNL     1       5.998   4.606  17.053  0.00  0.00    +0.000 C 
BRANCH  22  24
ATOM     23  N   UNL     1       6.367   4.135  14.700  0.00  0.00    +0.000 N 
ATOM     24  C   UNL     1       6.036   5.101  15.625  0.00  0.00    +0.000 C 
ATOM     25  O   UNL     1       5.776   6.261  15.320  0.00  0.00    +0.000 OA
ATOM     26  H   UNL     1       6.762   3.263  15.029  0.00  0.00    +0.000 HD
BRANCH  23  27
ATOM     27  C   UNL     1       6.454   4.450  13.277  0.00  0.00    +0.000 C 
ATOM     28  C   UNL     1       7.847   4.979  12.934  0.00  0.00    +0.000 C 
BRANCH  27  30
ATOM     29  C   UNL     1       4.709   3.320  11.804  0.00  0.00    +0.000 C 
ATOM     30  C   UNL     1       6.107   3.237  12.403  0.00  0.00    +0.000 C 
ENDBRANCH  27  30
ENDBRANCH  23  27
ENDBRANCH  22  24
ENDBRANCH  21  22
ENDBRANCH   1  21
TORSDOF 7
ENDMDL
MODEL 5
REMARK VINA RESULT:      -7.8      5.378      7.718
REMARK  Name = 
REMARK  10 active torsions:
REMARK  status: ('A' for Active; 'I' for Inactive)
REMARK    1  A    between atoms: C_1  and  C_2
REMARK    2  A    between atoms: C_2  and  C_3
REMARK    3  A    between atoms: C_3  and  C_4
REMARK    4  A    between atoms: C_3  and  N_5
REMARK    5  A    between atoms: C_6  and  C_8
REMARK    6  A    between atoms: C_8  and  C_9
REMARK    7  A    between atoms: C_9  and  C_10
REMARK    8  A    between atoms: C_16  and  C_17
REMARK    9  A    between atoms: C_20  and  O_21
REMARK   10  A    between atoms: O_21  and  C_22
REMARK                            x       y       z     vdW  Elec       q    Type
REMARK                         _______ _______ _______ _____ _____    ______ ____
ROOT
ATOM      1  C   UNL     1       5.475   4.799  16.344  0.00  0.00    +0.000 A 
ATOM      2  N   UNL     1       5.045   5.739  15.520  0.00  0.00    +0.000 NA
ATOM      3  N   UNL     1       5.660   6.928  15.844  0.00  0.00    +0.000 NA
ATOM      4  C   UNL     1       6.451   6.682  16.856  0.00  0.00    +0.000 A 
ATOM      5  C   UNL     1       7.308   7.558  17.576  0.00  0.00    +0.000 A 
ATOM      6  C   UNL     1       7.581   8.893  17.497  0.00  0.00    +0.000 A 
ATOM      7  C   UNL     1       8.543   9.125  18.514  0.00  0.00    +0.000 A 
ATOM      8  N   UNL     1       8.821   7.995  19.192  0.00  0.00    +0.000 NA
ATOM      9  N   UNL     1       8.063   7.032  18.615  0.00  0.00    +0.000 N 
ATOM     10  C   UNL     1       7.977   5.666  18.956  0.00  0.00    +0.000 A 
ATOM     11  C   UNL     1       7.154   4.834  18.276  0.00  0.00    +0.000 A 
ATOM     12  N   UNL     1       6.387   5.350  17.220  0.00  0.00    +0.000 N 
ENDROOT
BRANCH   7  13
ATOM     13  C   UNL     1       9.180  10.403  18.841  0.00  0.00    +0.000 A 
ATOM     14  C   UNL     1       9.415  11.365  17.853  0.00  0.00    +0.000 A 
ATOM     15  C   UNL     1      10.051  12.566  18.168  0.00  0.00    +0.000 A 
ATOM     16  C   UNL     1      10.445  12.842  19.480  0.00  0.00    +0.000 A 
ATOM     17  C   UNL     1      10.218  11.890  20.473  0.00  0.00    +0.000 A 
ATOM     18  C   UNL     1       9.588  10.680  20.156  0.00  0.00    +0.000 A 
BRANCH  16  19
ATOM     19  O   UNL     1      11.088  14.033  19.664  0.00  0.00    +0.000 OA
ATOM     20  C   UNL     1      10.742  14.750  20.844  0.00  0.00    +0.000 C 
ENDBRANCH  16  19
ENDBRANCH   7  13
BRANCH   1  21
ATOM     21  C   UNL     1       5.056   3.370  16.355  0.00  0.00    +0.000 C 
BRANCH  21  22
ATOM     22  C   UNL     1       4.250   3.011  17.606  0.00  0.00    +0.000 C 
BRANCH  22  24
ATOM     23  N   UNL     1       3.306   4.932  18.755  0.00  0.00    +0.000 N 
ATOM     24  C   UNL     1       3.098   3.973  17.787  0.00  0.00    +0.000 C 
ATOM     25  O   UNL     1       2.073   3.913  17.113  0.00  0.00    +0.000 OA
ATOM     26  H   UNL     1       4.073   4.807  19.405  0.00  0.00    +0.000 HD
BRANCH  23  27
ATOM     27  C   UNL     1       2.289   5.934  19.058  0.00  0.00    +0.000 C 
ATOM     28  C   UNL     1       1.775   5.754  20.487  0.00  0.00    +0.000 C 
BRANCH  27  30
ATOM     29  C   UNL     1       2.007   8.144  17.823  0.00  0.00    +0.000 C 
ATOM     30  C   UNL     1       2.814   7.361  18.849  0.00  0.00    +0.000 C 
ENDBRANCH  27  30
ENDBRANCH  23  27
ENDBRANCH  22  24
ENDBRANCH  21  22
ENDBRANCH   1  21
TORSDOF 7
ENDMDL
MODEL 6
REMARK VINA RESULT:      -7.7      2.836     11.023
REMARK  Name = 
REMARK  10 active torsions:
REMARK  status: ('A' for Active; 'I' for Inactive)
REMARK    1  A    between atoms: C_1  and  C_2
REMARK    2  A    between atoms: C_2  and  C_3
REMARK    3  A    between atoms: C_3  and  C_4
REMARK    4  A    between atoms: C_3  and  N_5
REMARK    5  A    between atoms: C_6  and  C_8
REMARK    6  A    between atoms: C_8  and  C_9
REMARK    7  A    between atoms: C_9  and  C_10
REMARK    8  A    between atoms: C_16  and  C_17
REMARK    9  A    between atoms: C_20  and  O_21
REMARK   10  A    between atoms: O_21  and  C_22
REMARK                            x       y       z     vdW  Elec       q    Type
REMARK                         _______ _______ _______ _____ _____    ______ ____
ROOT
ATOM      1  C   UNL     1      -0.244  10.554  21.749  0.00  0.00    +0.000 A 
ATOM      2  N   UNL     1       0.027   9.567  22.587  0.00  0.00    +0.000 NA
ATOM      3  N   UNL     1       0.797   8.630  21.935  0.00  0.00    +0.000 NA
ATOM      4  C   UNL     1       0.978   9.070  20.716  0.00  0.00    +0.000 A 
ATOM      5  C   UNL     1       1.692   8.488  19.634  0.00  0.00    +0.000 A 
ATOM      6  C   UNL     1       2.382   7.321  19.473  0.00  0.00    +0.000 A 
ATOM      7  C   UNL     1       2.859   7.366  18.137  0.00  0.00    +0.000 A 
ATOM      8  N   UNL     1       2.458   8.489  17.512  0.00  0.00    +0.000 NA
ATOM      9  N   UNL     1       1.742   9.179  18.431  0.00  0.00    +0.000 N 
ATOM     10  C   UNL     1       1.093  10.423  18.281  0.00  0.00    +0.000 A 
ATOM     11  C   UNL     1       0.406  10.972  19.309  0.00  0.00    +0.000 A 
ATOM     12  N   UNL     1       0.350  10.288  20.533  0.00  0.00    +0.000 N 
ENDROOT
BRANCH   7  13
ATOM     13  C   UNL     1       3.674   6.352  17.465  0.00  0.00    +0.000 A 
ATOM     14  C   UNL     1       4.727   6.719  16.619  0.00  0.00    +0.000 A 
ATOM     15  C   UNL     1       5.479   5.747  15.959  0.00  0.00    +0.000 A 
ATOM     16  C   UNL     1       5.210   4.389  16.144  0.00  0.00    +0.000 A 
ATOM     17  C   UNL     1       4.162   4.011  16.982  0.00  0.00    +0.000 A 
ATOM     18  C   UNL     1       3.401   4.986  17.639  0.00  0.00    +0.000 A 
BRANCH  16  19
ATOM     19  O   UNL     1       5.988   3.530  15.421  0.00  0.00    +0.000 OA
ATOM     20  C   UNL     1       6.371   3.980  14.125  0.00  0.00    +0.000 C 
ENDBRANCH  16  19
ENDBRANCH   7  13
BRANCH   1  21
ATOM     21  C   UNL     1      -1.061  11.764  22.040  0.00  0.00    +0.000 C 
BRANCH  21  22
ATOM     22  C   UNL     1      -1.842  11.636  23.350  0.00  0.00    +0.000 C 
BRANCH  22  24
ATOM     23  N   UNL     1      -3.521  12.657  21.922  0.00  0.00    +0.000 N 
ATOM     24  C   UNL     1      -3.238  12.197  23.190  0.00  0.00    +0.000 C 
ATOM     25  O   UNL     1      -4.051  12.221  24.109  0.00  0.00    +0.000 OA
ATOM     26  H   UNL     1      -2.756  12.793  21.273  0.00  0.00    +0.000 HD
BRANCH  23  27
ATOM     27  C   UNL     1      -4.823  13.234  21.601  0.00  0.00    +0.000 C 
ATOM     28  C   UNL     1      -4.648  14.597  20.929  0.00  0.00    +0.000 C 
BRANCH  27  30
ATOM     29  C   UNL     1      -5.692  12.737  19.258  0.00  0.00    +0.000 C 
ATOM     30  C   UNL     1      -5.659  12.299  20.716  0.00  0.00    +0.000 C 
ENDBRANCH  27  30
ENDBRANCH  23  27
ENDBRANCH  22  24
ENDBRANCH  21  22
ENDBRANCH   1  21
TORSDOF 7
ENDMDL
MODEL 7
REMARK VINA RESULT:      -7.5      5.705      8.076
REMARK  Name = 
REMARK  10 active torsions:
REMARK  status: ('A' for Active; 'I' for Inactive)
REMARK    1  A    between atoms: C_1  and  C_2
REMARK    2  A    between atoms: C_2  and  C_3
REMARK    3  A    between atoms: C_3  and  C_4
REMARK    4  A    between atoms: C_3  and  N_5
REMARK    5  A    between atoms: C_6  and  C_8
REMARK    6  A    between atoms: C_8  and  C_9
REMARK    7  A    between atoms: C_9  and  C_10
REMARK    8  A    between atoms: C_16  and  C_17
REMARK    9  A    between atoms: C_20  and  O_21
REMARK   10  A    between atoms: O_21  and  C_22
REMARK                            x       y       z     vdW  Elec       q    Type
REMARK                         _______ _______ _______ _____ _____    ______ ____
ROOT
ATOM      1  C   UNL     1       5.347   5.057  17.078  0.00  0.00    +0.000 A 
ATOM      2  N   UNL     1       4.846   5.877  16.169  0.00  0.00    +0.000 NA
ATOM      3  N   UNL     1       5.501   7.085  16.252  0.00  0.00    +0.000 NA
ATOM      4  C   UNL     1       6.387   6.970  17.208  0.00  0.00    +0.000 A 
ATOM      5  C   UNL     1       7.320   7.921  17.704  0.00  0.00    +0.000 A 
ATOM      6  C   UNL     1       7.596   9.223  17.403  0.00  0.00    +0.000 A 
ATOM      7  C   UNL     1       8.657   9.579  18.276  0.00  0.00    +0.000 A 
ATOM      8  N   UNL     1       8.990   8.553  19.083  0.00  0.00    +0.000 NA
ATOM      9  N   UNL     1       8.170   7.535  18.731  0.00  0.00    +0.000 N 
ATOM     10  C   UNL     1       8.105   6.236  19.277  0.00  0.00    +0.000 A 
ATOM     11  C   UNL     1       7.210   5.334  18.811  0.00  0.00    +0.000 A 
ATOM     12  N   UNL     1       6.347   5.708  17.769  0.00  0.00    +0.000 N 
ENDROOT
BRANCH   7  13
ATOM     13  C   UNL     1       9.335  10.875  18.347  0.00  0.00    +0.000 A 
ATOM     14  C   UNL     1      10.537  11.021  19.048  0.00  0.00    +0.000 A 
ATOM     15  C   UNL     1      11.160  12.267  19.136  0.00  0.00    +0.000 A 
ATOM     16  C   UNL     1      10.608  13.387  18.510  0.00  0.00    +0.000 A 
ATOM     17  C   UNL     1       9.409  13.254  17.811  0.00  0.00    +0.000 A 
ATOM     18  C   UNL     1       8.779  12.006  17.728  0.00  0.00    +0.000 A 
BRANCH  16  19
ATOM     19  O   UNL     1      11.287  14.558  18.693  0.00  0.00    +0.000 OA
ATOM     20  C   UNL     1      11.293  15.072  20.021  0.00  0.00    +0.000 C 
ENDBRANCH  16  19
ENDBRANCH   7  13
BRANCH   1  21
ATOM     21  C   UNL     1       4.918   3.656  17.341  0.00  0.00    +0.000 C 
BRANCH  21  22
ATOM     22  C   UNL     1       3.555   3.339  16.718  0.00  0.00    +0.000 C 
BRANCH  22  24
ATOM     23  N   UNL     1       2.897   3.354  19.056  0.00  0.00    +0.000 N 
ATOM     24  C   UNL     1       2.568   2.927  17.787  0.00  0.00    +0.000 C 
ATOM     25  O   UNL     1       1.553   2.284  17.538  0.00  0.00    +0.000 OA
ATOM     26  H   UNL     1       3.834   3.699  19.224  0.00  0.00    +0.000 HD
BRANCH  23  27
ATOM     27  C   UNL     1       2.052   3.035  20.202  0.00  0.00    +0.000 C 
ATOM     28  C   UNL     1       2.913   2.654  21.407  0.00  0.00    +0.000 C 
BRANCH  27  30
ATOM     29  C   UNL     1       1.804   5.551  20.522  0.00  0.00    +0.000 C 
ATOM     30  C   UNL     1       1.111   4.194  20.557  0.00  0.00    +0.000 C 
ENDBRANCH  27  30
ENDBRANCH  23  27
ENDBRANCH  22  24
ENDBRANCH  21  22
ENDBRANCH   1  21
TORSDOF 7
ENDMDL
MODEL 8
REMARK VINA RESULT:      -7.5      1.199      2.022
REMARK  Name = 
REMARK  10 active torsions:
REMARK  status: ('A' for Active; 'I' for Inactive)
REMARK    1  A    between atoms: C_1  and  C_2
REMARK    2  A    between atoms: C_2  and  C_3
REMARK    3  A    between atoms: C_3  and  C_4
REMARK    4  A    between atoms: C_3  and  N_5
REMARK    5  A    between atoms: C_6  and  C_8
REMARK    6  A    between atoms: C_8  and  C_9
REMARK    7  A    between atoms: C_9  and  C_10
REMARK    8  A    between atoms: C_16  and  C_17
REMARK    9  A    between atoms: C_20  and  O_21
REMARK   10  A    between atoms: O_21  and  C_22
REMARK                            x       y       z     vdW  Elec       q    Type
REMARK                         _______ _______ _______ _____ _____    ______ ____
ROOT
ATOM      1  C   UNL     1       4.388   4.165  17.815  0.00  0.00    +0.000 A 
ATOM      2  N   UNL     1       4.032   3.530  18.920  0.00  0.00    +0.000 NA
ATOM      3  N   UNL     1       3.290   4.386  19.703  0.00  0.00    +0.000 NA
ATOM      4  C   UNL     1       3.211   5.520  19.056  0.00  0.00    +0.000 A 
ATOM      5  C   UNL     1       2.567   6.733  19.420  0.00  0.00    +0.000 A 
ATOM      6  C   UNL     1       1.863   7.140  20.516  0.00  0.00    +0.000 A 
ATOM      7  C   UNL     1       1.488   8.478  20.228  0.00  0.00    +0.000 A 
ATOM      8  N   UNL     1       1.961   8.871  19.029  0.00  0.00    +0.000 NA
ATOM      9  N   UNL     1       2.623   7.799  18.532  0.00  0.00    +0.000 N 
ATOM     10  C   UNL     1       3.310   7.687  17.305  0.00  0.00    +0.000 A 
ATOM     11  C   UNL     1       3.932   6.535  16.964  0.00  0.00    +0.000 A 
ATOM     12  N   UNL     1       3.880   5.446  17.848  0.00  0.00    +0.000 N 
ENDROOT
BRANCH   7  13
ATOM     13  C   UNL     1       0.701   9.370  21.082  0.00  0.00    +0.000 A 
ATOM     14  C   UNL     1       0.459  10.697  20.709  0.00  0.00    +0.000 A 
ATOM     15  C   UNL     1      -0.265  11.548  21.544  0.00  0.00    +0.000 A 
ATOM     16  C   UNL     1      -0.782  11.088  22.758  0.00  0.00    +0.000 A 
ATOM     17  C   UNL     1      -0.545   9.768  23.141  0.00  0.00    +0.000 A 
ATOM     18  C   UNL     1       0.189   8.916  22.308  0.00  0.00    +0.000 A 
BRANCH  16  19
ATOM     19  O   UNL     1      -1.444  12.019  23.507  0.00  0.00    +0.000 OA
ATOM     20  C   UNL     1      -2.802  12.254  23.148  0.00  0.00    +0.000 C 
ENDBRANCH  16  19
ENDBRANCH   7  13
BRANCH   1  21
ATOM     21  C   UNL     1       5.209   3.614  16.702  0.00  0.00    +0.000 C 
BRANCH  21  22
ATOM     22  C   UNL     1       6.485   4.426  16.464  0.00  0.00    +0.000 C 
BRANCH  22  24
ATOM     23  N   UNL     1       5.836   3.970  14.169  0.00  0.00    +0.000 N 
ATOM     24  C   UNL     1       6.672   4.698  14.989  0.00  0.00    +0.000 C 
ATOM     25  O   UNL     1       7.487   5.511  14.563  0.00  0.00    +0.000 OA
ATOM     26  H   UNL     1       5.337   3.181  14.561  0.00  0.00    +0.000 HD
BRANCH  23  27
ATOM     27  C   UNL     1       5.893   4.110  12.717  0.00  0.00    +0.000 C 
ATOM     28  C   UNL     1       7.326   3.917  12.220  0.00  0.00    +0.000 C 
BRANCH  27  30
ATOM     29  C   UNL     1       5.668   1.956  11.375  0.00  0.00    +0.000 C 
ATOM     30  C   UNL     1       4.942   3.133  12.013  0.00  0.00    +0.000 C 
ENDBRANCH  27  30
ENDBRANCH  23  27
ENDBRANCH  22  24
ENDBRANCH  21  22
ENDBRANCH   1  21
TORSDOF 7
ENDMDL
MODEL 9
REMARK VINA RESULT:      -7.5      5.485      8.044
REMARK  Name = 
REMARK  10 active torsions:
REMARK  status: ('A' for Active; 'I' for Inactive)
REMARK    1  A    between atoms: C_1  and  C_2
REMARK    2  A    between atoms: C_2  and  C_3
REMARK    3  A    between atoms: C_3  and  C_4
REMARK    4  A    between atoms: C_3  and  N_5
REMARK    5  A    between atoms: C_6  and  C_8
REMARK    6  A    between atoms: C_8  and  C_9
REMARK    7  A    between atoms: C_9  and  C_10
REMARK    8  A    between atoms: C_16  and  C_17
REMARK    9  A    between atoms: C_20  and  O_21
REMARK   10  A    between atoms: O_21  and  C_22
REMARK                            x       y       z     vdW  Elec       q    Type
REMARK                         _______ _______ _______ _____ _____    ______ ____
ROOT
ATOM      1  C   UNL     1       5.303   4.734  16.589  0.00  0.00    +0.000 A 
ATOM      2  N   UNL     1       4.822   5.649  15.763  0.00  0.00    +0.000 NA
ATOM      3  N   UNL     1       5.453   6.847  16.015  0.00  0.00    +0.000 NA
ATOM      4  C   UNL     1       6.302   6.632  16.985  0.00  0.00    +0.000 A 
ATOM      5  C   UNL     1       7.198   7.530  17.628  0.00  0.00    +0.000 A 
ATOM      6  C   UNL     1       7.462   8.862  17.493  0.00  0.00    +0.000 A 
ATOM      7  C   UNL     1       8.481   9.126  18.444  0.00  0.00    +0.000 A 
ATOM      8  N   UNL     1       8.801   8.017  19.138  0.00  0.00    +0.000 NA
ATOM      9  N   UNL     1       8.014   7.036  18.636  0.00  0.00    +0.000 N 
ATOM     10  C   UNL     1       7.951   5.681  19.022  0.00  0.00    +0.000 A 
ATOM     11  C   UNL     1       7.092   4.829  18.417  0.00  0.00    +0.000 A 
ATOM     12  N   UNL     1       6.263   5.312  17.392  0.00  0.00    +0.000 N 
ENDROOT
BRANCH   7  13
ATOM     13  C   UNL     1       9.133  10.413  18.695  0.00  0.00    +0.000 A 
ATOM     14  C   UNL     1       9.062  11.451  17.760  0.00  0.00    +0.000 A 
ATOM     15  C   UNL     1       9.712  12.664  17.994  0.00  0.00    +0.000 A 
ATOM     16  C   UNL     1      10.428  12.873  19.175  0.00  0.00    +0.000 A 
ATOM     17  C   UNL     1      10.507  11.845  20.114  0.00  0.00    +0.000 A 
ATOM     18  C   UNL     1       9.862  10.626  19.876  0.00  0.00    +0.000 A 
BRANCH  16  19
ATOM     19  O   UNL     1      11.050  14.085  19.280  0.00  0.00    +0.000 OA
ATOM     20  C   UNL     1      12.333  14.179  18.669  0.00  0.00    +0.000 C 
ENDBRANCH  16  19
ENDBRANCH   7  13
BRANCH   1  21
ATOM     21  C   UNL     1       4.889   3.306  16.667  0.00  0.00    +0.000 C 
BRANCH  21  22
ATOM     22  C   UNL     1       4.610   2.860  18.105  0.00  0.00    +0.000 C 
BRANCH  22  24
ATOM     23  N   UNL     1       2.831   3.160  19.731  0.00  0.00    +0.000 N 
ATOM     24  C   UNL     1       3.130   2.938  18.404  0.00  0.00    +0.000 C 
ATOM     25  O   UNL     1       2.272   2.830  17.533  0.00  0.00    +0.000 OA
ATOM     26  H   UNL     1       3.563   3.039  20.420  0.00  0.00    +0.000 HD
BRANCH  23  27
ATOM     27  C   UNL     1       1.448   3.255  20.189  0.00  0.00    +0.000 C 
ATOM     28  C   UNL     1       1.292   2.583  21.553  0.00  0.00    +0.000 C 
BRANCH  27  30
ATOM     29  C   UNL     1       2.099   5.700  20.494  0.00  0.00    +0.000 C 
ATOM     30  C   UNL     1       0.967   4.711  20.247  0.00  0.00    +0.000 C 
ENDBRANCH  27  30
ENDBRANCH  23  27
ENDBRANCH  22  24
ENDBRANCH  21  22
ENDBRANCH   1  21
TORSDOF 7
ENDMDL
