MODEL 1
REMARK VINA RESULT:      -7.5      0.000      0.000
REMARK  Name = 
REMARK  6 active torsions:
REMARK  status: ('A' for Active; 'I' for Inactive)
REMARK    1  A    between atoms: C_1  and  C_2
REMARK    2  A    between atoms: C_2  and  C_3
REMARK    3  A    between atoms: C_3  and  N_4
REMARK    4  A    between atoms: C_3  and  C_5
REMARK    5  A    between atoms: C_10  and  C_11
REMARK    6  A    between atoms: C_11  and  C_13
REMARK                            x       y       z     vdW  Elec       q    Type
REMARK                         _______ _______ _______ _____ _____    ______ ____
ROOT
ATOM      1  C   UNL     1       5.447   5.065  16.538  0.00  0.00    +0.000 A 
ATOM      2  C   UNL     1       5.455   6.460  16.660  0.00  0.00    +0.000 A 
ATOM      3  C   UNL     1       4.404   7.122  17.295  0.00  0.00    +0.000 A 
ATOM      4  C   UNL     1       3.325   6.403  17.826  0.00  0.00    +0.000 A 
ATOM      5 CL   UNL     1       2.126   7.340  18.649  0.00  0.00    +0.000 Cl
ATOM      6  C   UNL     1       3.272   5.008  17.691  0.00  0.00    +0.000 A 
ATOM      7  C   UNL     1       4.327   4.365  17.024  0.00  0.00    +0.000 A 
ATOM      8  F   UNL     1       4.261   3.048  16.769  0.00  0.00    +0.000 F 
ENDROOT
BRANCH   6   9
ATOM      9  C   UNL     1       2.080   4.221  18.116  0.00  0.00    +0.000 C 
ATOM     10  O   UNL     1       1.201   4.041  17.274  0.00  0.00    +0.000 OA
BRANCH   9  11
ATOM     11  C   UNL     1       2.029   3.646  19.453  0.00  0.00    +0.000 A 
ATOM     12  N   UNL     1       0.989   3.719  20.271  0.00  0.00    +0.000 NA
ATOM     13  C   UNL     1       1.320   3.127  21.479  0.00  0.00    +0.000 A 
ATOM     14  C   UNL     1       2.585   2.590  21.559  0.00  0.00    +0.000 A 
ATOM     15  S   UNL     1       3.397   2.803  20.070  0.00  0.00    +0.000 S 
ENDBRANCH   9  11
ENDBRANCH   6   9
BRANCH   1  16
ATOM     16  C   UNL     1       6.582   4.298  15.876  0.00  0.00    +0.000 C 
BRANCH  16  17
ATOM     17  N   UNL     1       7.843   4.461  16.614  0.00  0.00    +0.000 NA
ATOM     18  H   UNL     1       7.652   4.480  17.614  0.00  0.00    +0.000 HD
ATOM     19  H   UNL     1       8.241   5.373  16.398  0.00  0.00    +0.000 HD
ENDBRANCH  16  17
BRANCH  16  21
ATOM     20  C   UNL     1       5.968   3.811  13.435  0.00  0.00    +0.000 C 
ATOM     21  C   UNL     1       6.737   4.708  14.399  0.00  0.00    +0.000 C 
ENDBRANCH  16  21
ENDBRANCH   1  16
TORSDOF 5
ENDMDL
MODEL 2
REMARK VINA RESULT:      -6.8      2.263      5.901
REMARK  Name = 
REMARK  6 active torsions:
REMARK  status: ('A' for Active; 'I' for Inactive)
REMARK    1  A    between atoms: C_1  and  C_2
REMARK    2  A    between atoms: C_2  and  C_3
REMARK    3  A    between atoms: C_3  and  N_4
REMARK    4  A    between atoms: C_3  and  C_5
REMARK    5  A    between atoms: C_10  and  C_11
REMARK    6  A    between atoms: C_11  and  C_13
REMARK                            x       y       z     vdW  Elec       q    Type
REMARK                         _______ _______ _______ _____ _____    ______ ____
ROOT
ATOM      1  C   UNL     1       2.475   3.716  18.821  0.00  0.00    +0.000 A 
ATOM      2  C   UNL     1       1.835   4.959  18.746  0.00  0.00    +0.000 A 
ATOM      3  C   UNL     1       2.505   6.072  18.237  0.00  0.00    +0.000 A 
ATOM      4  C   UNL     1       3.827   5.963  17.787  0.00  0.00    +0.000 A 
ATOM      5 CL   UNL     1       4.515   7.402  17.114  0.00  0.00    +0.000 Cl
ATOM      6  C   UNL     1       4.506   4.740  17.879  0.00  0.00    +0.000 A 
ATOM      7  C   UNL     1       3.822   3.640  18.421  0.00  0.00    +0.000 A 
ATOM      8  F   UNL     1       4.469   2.483  18.636  0.00  0.00    +0.000 F 
ENDROOT
BRANCH   6   9
ATOM      9  C   UNL     1       5.953   4.616  17.543  0.00  0.00    +0.000 C 
ATOM     10  O   UNL     1       6.733   4.469  18.484  0.00  0.00    +0.000 OA
BRANCH   9  11
ATOM     11  C   UNL     1       6.377   4.601  16.151  0.00  0.00    +0.000 A 
ATOM     12  N   UNL     1       7.336   5.358  15.640  0.00  0.00    +0.000 NA
ATOM     13  C   UNL     1       7.418   5.130  14.276  0.00  0.00    +0.000 A 
ATOM     14  C   UNL     1       6.547   4.190  13.771  0.00  0.00    +0.000 A 
ATOM     15  S   UNL     1       5.601   3.541  15.038  0.00  0.00    +0.000 S 
ENDBRANCH   9  11
ENDBRANCH   6   9
BRANCH   1  16
ATOM     16  C   UNL     1       1.778   2.470  19.346  0.00  0.00    +0.000 C 
BRANCH  16  17
ATOM     17  N   UNL     1       0.755   1.990  18.405  0.00  0.00    +0.000 NA
ATOM     18  H   UNL     1       0.124   2.754  18.169  0.00  0.00    +0.000 HD
ATOM     19  H   UNL     1       0.173   1.295  18.871  0.00  0.00    +0.000 HD
ENDBRANCH  16  17
BRANCH  16  21
ATOM     20  C   UNL     1       2.238   2.943  21.823  0.00  0.00    +0.000 C 
ATOM     21  C   UNL     1       1.183   2.718  20.745  0.00  0.00    +0.000 C 
ENDBRANCH  16  21
ENDBRANCH   1  16
TORSDOF 5
ENDMDL
MODEL 3
REMARK VINA RESULT:      -6.7      1.811      2.029
REMARK  Name = 
REMARK  6 active torsions:
REMARK  status: ('A' for Active; 'I' for Inactive)
REMARK    1  A    between atoms: C_1  and  C_2
REMARK    2  A    between atoms: C_2  and  C_3
REMARK    3  A    between atoms: C_3  and  N_4
REMARK    4  A    between atoms: C_3  and  C_5
REMARK    5  A    between atoms: C_10  and  C_11
REMARK    6  A    between atoms: C_11  and  C_13
REMARK                            x       y       z     vdW  Elec       q    Type
REMARK                         _______ _______ _______ _____ _____    ______ ____
ROOT
ATOM      1  C   UNL     1       5.758   5.038  15.578  0.00  0.00    +0.000 A 
ATOM      2  C   UNL     1       5.261   6.348  15.575  0.00  0.00    +0.000 A 
ATOM      3  C   UNL     1       4.524   6.828  16.657  0.00  0.00    +0.000 A 
ATOM      4  C   UNL     1       4.272   6.012  17.768  0.00  0.00    +0.000 A 
ATOM      5 CL   UNL     1       3.407   6.755  19.070  0.00  0.00    +0.000 Cl
ATOM      6  C   UNL     1       4.727   4.686  17.787  0.00  0.00    +0.000 A 
ATOM      7  C   UNL     1       5.443   4.214  16.675  0.00  0.00    +0.000 A 
ATOM      8  F   UNL     1       5.796   2.920  16.600  0.00  0.00    +0.000 F 
ENDROOT
BRANCH   6   9
ATOM      9  C   UNL     1       4.363   3.744  18.883  0.00  0.00    +0.000 C 
ATOM     10  O   UNL     1       5.267   3.394  19.641  0.00  0.00    +0.000 OA
BRANCH   9  11
ATOM     11  C   UNL     1       2.976   3.337  19.060  0.00  0.00    +0.000 A 
ATOM     12  N   UNL     1       2.221   3.644  20.104  0.00  0.00    +0.000 NA
ATOM     13  C   UNL     1       0.987   3.031  19.968  0.00  0.00    +0.000 A 
ATOM     14  C   UNL     1       0.806   2.292  18.820  0.00  0.00    +0.000 A 
ATOM     15  S   UNL     1       2.212   2.377  17.852  0.00  0.00    +0.000 S 
ENDBRANCH   9  11
ENDBRANCH   6   9
BRANCH   1  16
ATOM     16  C   UNL     1       6.587   4.478  14.433  0.00  0.00    +0.000 C 
BRANCH  16  17
ATOM     17  N   UNL     1       7.572   5.458  13.953  0.00  0.00    +0.000 NA
ATOM     18  H   UNL     1       8.073   5.854  14.746  0.00  0.00    +0.000 HD
ATOM     19  H   UNL     1       7.081   6.242  13.524  0.00  0.00    +0.000 HD
ENDBRANCH  16  17
BRANCH  16  21
ATOM     20  C   UNL     1       6.457   3.379  12.121  0.00  0.00    +0.000 C 
ATOM     21  C   UNL     1       5.683   3.981  13.288  0.00  0.00    +0.000 C 
ENDBRANCH  16  21
ENDBRANCH   1  16
TORSDOF 5
ENDMDL
MODEL 4
REMARK VINA RESULT:      -6.7      3.004      5.986
REMARK  Name = 
REMARK  6 active torsions:
REMARK  status: ('A' for Active; 'I' for Inactive)
REMARK    1  A    between atoms: C_1  and  C_2
REMARK    2  A    between atoms: C_2  and  C_3
REMARK    3  A    between atoms: C_3  and  N_4
REMARK    4  A    between atoms: C_3  and  C_5
REMARK    5  A    between atoms: C_10  and  C_11
REMARK    6  A    between atoms: C_11  and  C_13
REMARK                            x       y       z     vdW  Elec       q    Type
REMARK                         _______ _______ _______ _____ _____    ______ ____
ROOT
ATOM      1  C   UNL     1       2.845   4.541  18.554  0.00  0.00    +0.000 A 
ATOM      2  C   UNL     1       2.969   3.251  18.023  0.00  0.00    +0.000 A 
ATOM      3  C   UNL     1       3.918   2.978  17.038  0.00  0.00    +0.000 A 
ATOM      4  C   UNL     1       4.767   3.988  16.567  0.00  0.00    +0.000 A 
ATOM      5 CL   UNL     1       5.945   3.497  15.397  0.00  0.00    +0.000 Cl
ATOM      6  C   UNL     1       4.646   5.296  17.054  0.00  0.00    +0.000 A 
ATOM      7  C   UNL     1       3.665   5.555  18.025  0.00  0.00    +0.000 A 
ATOM      8  F   UNL     1       3.436   6.814  18.433  0.00  0.00    +0.000 F 
ENDROOT
BRANCH   6   9
ATOM      9  C   UNL     1       5.432   6.426  16.481  0.00  0.00    +0.000 C 
ATOM     10  O   UNL     1       5.071   6.858  15.387  0.00  0.00    +0.000 OA
BRANCH   9  11
ATOM     11  C   UNL     1       6.526   7.011  17.245  0.00  0.00    +0.000 A 
ATOM     12  N   UNL     1       6.975   8.249  17.101  0.00  0.00    +0.000 NA
ATOM     13  C   UNL     1       8.064   8.435  17.937  0.00  0.00    +0.000 A 
ATOM     14  C   UNL     1       8.413   7.358  18.721  0.00  0.00    +0.000 A 
ATOM     15  S   UNL     1       7.335   6.063  18.433  0.00  0.00    +0.000 S 
ENDBRANCH   9  11
ENDBRANCH   6   9
BRANCH   1  16
ATOM     16  C   UNL     1       1.842   4.881  19.646  0.00  0.00    +0.000 C 
BRANCH  16  17
ATOM     17  N   UNL     1       2.514   5.366  20.860  0.00  0.00    +0.000 NA
ATOM     18  H   UNL     1       2.358   4.707  21.621  0.00  0.00    +0.000 HD
ATOM     19  H   UNL     1       2.073   6.234  21.161  0.00  0.00    +0.000 HD
ENDBRANCH  16  17
BRANCH  16  21
ATOM     20  C   UNL     1       1.277   2.963  21.250  0.00  0.00    +0.000 C 
ATOM     21  C   UNL     1       0.928   3.678  19.950  0.00  0.00    +0.000 C 
ENDBRANCH  16  21
ENDBRANCH   1  16
TORSDOF 5
ENDMDL
MODEL 5
REMARK VINA RESULT:      -6.6      2.778      6.158
REMARK  Name = 
REMARK  6 active torsions:
REMARK  status: ('A' for Active; 'I' for Inactive)
REMARK    1  A    between atoms: C_1  and  C_2
REMARK    2  A    between atoms: C_2  and  C_3
REMARK    3  A    between atoms: C_3  and  N_4
REMARK    4  A    between atoms: C_3  and  C_5
REMARK    5  A    between atoms: C_10  and  C_11
REMARK    6  A    between atoms: C_11  and  C_13
REMARK                            x       y       z     vdW  Elec       q    Type
REMARK                         _______ _______ _______ _____ _____    ______ ____
ROOT
ATOM      1  C   UNL     1       3.431   4.534  17.588  0.00  0.00    +0.000 A 
ATOM      2  C   UNL     1       3.283   5.824  18.113  0.00  0.00    +0.000 A 
ATOM      3  C   UNL     1       4.302   6.766  17.977  0.00  0.00    +0.000 A 
ATOM      4  C   UNL     1       5.489   6.441  17.308  0.00  0.00    +0.000 A 
ATOM      5 CL   UNL     1       6.640   7.723  17.147  0.00  0.00    +0.000 Cl
ATOM      6  C   UNL     1       5.681   5.149  16.799  0.00  0.00    +0.000 A 
ATOM      7  C   UNL     1       4.654   4.207  16.972  0.00  0.00    +0.000 A 
ATOM      8  F   UNL     1       4.842   2.929  16.606  0.00  0.00    +0.000 F 
ENDROOT
BRANCH   6   9
ATOM      9  C   UNL     1       6.980   4.721  16.206  0.00  0.00    +0.000 C 
ATOM     10  O   UNL     1       7.831   4.286  16.982  0.00  0.00    +0.000 OA
BRANCH   9  11
ATOM     11  C   UNL     1       7.169   4.764  14.763  0.00  0.00    +0.000 A 
ATOM     12  N   UNL     1       8.050   5.528  14.134  0.00  0.00    +0.000 NA
ATOM     13  C   UNL     1       7.900   5.362  12.767  0.00  0.00    +0.000 A 
ATOM     14  C   UNL     1       6.936   4.462  12.372  0.00  0.00    +0.000 A 
ATOM     15  S   UNL     1       6.196   3.770  13.749  0.00  0.00    +0.000 S 
ENDBRANCH   9  11
ENDBRANCH   6   9
BRANCH   1  16
ATOM     16  C   UNL     1       2.338   3.481  17.690  0.00  0.00    +0.000 C 
BRANCH  16  17
ATOM     17  N   UNL     1       1.026   4.029  17.317  0.00  0.00    +0.000 NA
ATOM     18  H   UNL     1       1.000   5.024  17.533  0.00  0.00    +0.000 HD
ATOM     19  H   UNL     1       0.309   3.607  17.905  0.00  0.00    +0.000 HD
ENDBRANCH  16  17
BRANCH  16  21
ATOM     20  C   UNL     1       1.135   3.328  19.949  0.00  0.00    +0.000 C 
ATOM     21  C   UNL     1       2.307   2.853  19.097  0.00  0.00    +0.000 C 
ENDBRANCH  16  21
ENDBRANCH   1  16
TORSDOF 5
ENDMDL
MODEL 6
REMARK VINA RESULT:      -6.6      2.582      5.172
REMARK  Name = 
REMARK  6 active torsions:
REMARK  status: ('A' for Active; 'I' for Inactive)
REMARK    1  A    between atoms: C_1  and  C_2
REMARK    2  A    between atoms: C_2  and  C_3
REMARK    3  A    between atoms: C_3  and  N_4
REMARK    4  A    between atoms: C_3  and  C_5
REMARK    5  A    between atoms: C_10  and  C_11
REMARK    6  A    between atoms: C_11  and  C_13
REMARK                            x       y       z     vdW  Elec       q    Type
REMARK                         _______ _______ _______ _____ _____    ______ ____
ROOT
ATOM      1  C   UNL     1       2.849   3.678  17.899  0.00  0.00    +0.000 A 
ATOM      2  C   UNL     1       1.965   4.514  18.593  0.00  0.00    +0.000 A 
ATOM      3  C   UNL     1       2.120   5.899  18.552  0.00  0.00    +0.000 A 
ATOM      4  C   UNL     1       3.159   6.479  17.812  0.00  0.00    +0.000 A 
ATOM      5 CL   UNL     1       3.193   8.209  17.788  0.00  0.00    +0.000 Cl
ATOM      6  C   UNL     1       4.080   5.669  17.133  0.00  0.00    +0.000 A 
ATOM      7  C   UNL     1       3.922   4.276  17.211  0.00  0.00    +0.000 A 
ATOM      8  F   UNL     1       4.846   3.461  16.676  0.00  0.00    +0.000 F 
ENDROOT
BRANCH   6   9
ATOM      9  C   UNL     1       5.277   6.237  16.452  0.00  0.00    +0.000 C 
ATOM     10  O   UNL     1       5.233   6.321  15.225  0.00  0.00    +0.000 OA
BRANCH   9  11
ATOM     11  C   UNL     1       6.398   6.727  17.242  0.00  0.00    +0.000 A 
ATOM     12  N   UNL     1       6.976   7.909  17.090  0.00  0.00    +0.000 NA
ATOM     13  C   UNL     1       8.050   8.005  17.960  0.00  0.00    +0.000 A 
ATOM     14  C   UNL     1       8.260   6.917  18.778  0.00  0.00    +0.000 A 
ATOM     15  S   UNL     1       7.066   5.732  18.478  0.00  0.00    +0.000 S 
ENDBRANCH   9  11
ENDBRANCH   6   9
BRANCH   1  16
ATOM     16  C   UNL     1       2.706   2.164  17.894  0.00  0.00    +0.000 C 
BRANCH  16  17
ATOM     17  N   UNL     1       1.418   1.744  18.465  0.00  0.00    +0.000 NA
ATOM     18  H   UNL     1       0.695   1.795  17.749  0.00  0.00    +0.000 HD
ATOM     19  H   UNL     1       1.136   2.412  19.181  0.00  0.00    +0.000 HD
ENDBRANCH  16  17
BRANCH  16  21
ATOM     20  C   UNL     1       4.222   2.141  19.961  0.00  0.00    +0.000 C 
ATOM     21  C   UNL     1       3.888   1.495  18.621  0.00  0.00    +0.000 C 
ENDBRANCH  16  21
ENDBRANCH   1  16
TORSDOF 5
ENDMDL
MODEL 7
REMARK VINA RESULT:      -6.4      1.086      1.449
REMARK  Name = 
REMARK  6 active torsions:
REMARK  status: ('A' for Active; 'I' for Inactive)
REMARK    1  A    between atoms: C_1  and  C_2
REMARK    2  A    between atoms: C_2  and  C_3
REMARK    3  A    between atoms: C_3  and  N_4
REMARK    4  A    between atoms: C_3  and  C_5
REMARK    5  A    between atoms: C_10  and  C_11
REMARK    6  A    between atoms: C_11  and  C_13
REMARK                            x       y       z     vdW  Elec       q    Type
REMARK                         _______ _______ _______ _____ _____    ______ ____
ROOT
ATOM      1  C   UNL     1       5.060   5.687  16.492  0.00  0.00    +0.000 A 
ATOM      2  C   UNL     1       4.977   7.029  16.885  0.00  0.00    +0.000 A 
ATOM      3  C   UNL     1       3.961   7.454  17.742  0.00  0.00    +0.000 A 
ATOM      4  C   UNL     1       3.011   6.547  18.227  0.00  0.00    +0.000 A 
ATOM      5 CL   UNL     1       1.850   7.192  19.337  0.00  0.00    +0.000 Cl
ATOM      6  C   UNL     1       3.048   5.204  17.827  0.00  0.00    +0.000 A 
ATOM      7  C   UNL     1       4.062   4.803  16.942  0.00  0.00    +0.000 A 
ATOM      8  F   UNL     1       4.066   3.557  16.441  0.00  0.00    +0.000 F 
ENDROOT
BRANCH   6   9
ATOM      9  C   UNL     1       1.978   4.239  18.207  0.00  0.00    +0.000 C 
ATOM     10  O   UNL     1       1.136   3.973  17.350  0.00  0.00    +0.000 OA
BRANCH   9  11
ATOM     11  C   UNL     1       2.003   3.606  19.519  0.00  0.00    +0.000 A 
ATOM     12  N   UNL     1       1.005   3.623  20.389  0.00  0.00    +0.000 NA
ATOM     13  C   UNL     1       1.406   2.986  21.552  0.00  0.00    +0.000 A 
ATOM     14  C   UNL     1       2.683   2.471  21.546  0.00  0.00    +0.000 A 
ATOM     15  S   UNL     1       3.415   2.765  20.030  0.00  0.00    +0.000 S 
ENDBRANCH   9  11
ENDBRANCH   6   9
BRANCH   1  16
ATOM     16  C   UNL     1       6.163   5.171  15.580  0.00  0.00    +0.000 C 
BRANCH  16  17
ATOM     17  N   UNL     1       5.613   4.582  14.351  0.00  0.00    +0.000 NA
ATOM     18  H   UNL     1       4.615   4.419  14.469  0.00  0.00    +0.000 HD
ATOM     19  H   UNL     1       6.022   3.659  14.212  0.00  0.00    +0.000 HD
ENDBRANCH  16  17
BRANCH  16  21
ATOM     20  C   UNL     1       7.593   4.704  17.657  0.00  0.00    +0.000 C 
ATOM     21  C   UNL     1       7.074   4.175  16.324  0.00  0.00    +0.000 C 
ENDBRANCH  16  21
ENDBRANCH   1  16
TORSDOF 5
ENDMDL
MODEL 8
REMARK VINA RESULT:      -6.3      2.299      5.520
REMARK  Name = 
REMARK  6 active torsions:
REMARK  status: ('A' for Active; 'I' for Inactive)
REMARK    1  A    between atoms: C_1  and  C_2
REMARK    2  A    between atoms: C_2  and  C_3
REMARK    3  A    between atoms: C_3  and  N_4
REMARK    4  A    between atoms: C_3  and  C_5
REMARK    5  A    between atoms: C_10  and  C_11
REMARK    6  A    between atoms: C_11  and  C_13
REMARK                            x       y       z     vdW  Elec       q    Type
REMARK                         _______ _______ _______ _____ _____    ______ ____
ROOT
ATOM      1  C   UNL     1       2.340   3.845  18.849  0.00  0.00    +0.000 A 
ATOM      2  C   UNL     1       1.604   4.956  19.280  0.00  0.00    +0.000 A 
ATOM      3  C   UNL     1       1.950   6.241  18.862  0.00  0.00    +0.000 A 
ATOM      4  C   UNL     1       3.037   6.443  18.001  0.00  0.00    +0.000 A 
ATOM      5 CL   UNL     1       3.312   8.078  17.505  0.00  0.00    +0.000 Cl
ATOM      6  C   UNL     1       3.813   5.355  17.579  0.00  0.00    +0.000 A 
ATOM      7  C   UNL     1       3.465   4.073  18.033  0.00  0.00    +0.000 A 
ATOM      8  F   UNL     1       4.248   3.020  17.749  0.00  0.00    +0.000 F 
ENDROOT
BRANCH   6   9
ATOM      9  C   UNL     1       5.057   5.539  16.778  0.00  0.00    +0.000 C 
ATOM     10  O   UNL     1       5.042   5.122  15.620  0.00  0.00    +0.000 OA
BRANCH   9  11
ATOM     11  C   UNL     1       6.192   6.249  17.352  0.00  0.00    +0.000 A 
ATOM     12  N   UNL     1       6.692   7.384  16.887  0.00  0.00    +0.000 NA
ATOM     13  C   UNL     1       7.806   7.729  17.634  0.00  0.00    +0.000 A 
ATOM     14  C   UNL     1       8.123   6.878  18.669  0.00  0.00    +0.000 A 
ATOM     15  S   UNL     1       6.984   5.606  18.739  0.00  0.00    +0.000 S 
ENDBRANCH   9  11
ENDBRANCH   6   9
BRANCH   1  16
ATOM     16  C   UNL     1       1.986   2.423  19.258  0.00  0.00    +0.000 C 
BRANCH  16  17
ATOM     17  N   UNL     1       1.030   1.817  18.320  0.00  0.00    +0.000 NA
ATOM     18  H   UNL     1       1.537   1.393  17.544  0.00  0.00    +0.000 HD
ATOM     19  H   UNL     1       0.461   2.552  17.901  0.00  0.00    +0.000 HD
ENDBRANCH  16  17
BRANCH  16  21
ATOM     20  C   UNL     1       2.522   2.706  21.748  0.00  0.00    +0.000 C 
ATOM     21  C   UNL     1       1.459   2.380  20.705  0.00  0.00    +0.000 C 
ENDBRANCH  16  21
ENDBRANCH   1  16
TORSDOF 5
ENDMDL
MODEL 9
REMARK VINA RESULT:      -6.3      2.417      5.651
REMARK  Name = 
REMARK  6 active torsions:
REMARK  status: ('A' for Active; 'I' for Inactive)
REMARK    1  A    between atoms: C_1  and  C_2
REMARK    2  A    between atoms: C_2  and  C_3
REMARK    3  A    between atoms: C_3  and  N_4
REMARK    4  A    between atoms: C_3  and  C_5
REMARK    5  A    between atoms: C_10  and  C_11
REMARK    6  A    between atoms: C_11  and  C_13
REMARK                            x       y       z     vdW  Elec       q    Type
REMARK                         _______ _______ _______ _____ _____    ______ ____
ROOT
ATOM      1  C   UNL     1       2.744   4.260  19.899  0.00  0.00    +0.000 A 
ATOM      2  C   UNL     1       2.190   5.535  19.724  0.00  0.00    +0.000 A 
ATOM      3  C   UNL     1       2.859   6.502  18.974  0.00  0.00    +0.000 A 
ATOM      4  C   UNL     1       4.094   6.215  18.379  0.00  0.00    +0.000 A 
ATOM      5 CL   UNL     1       4.780   7.480  17.418  0.00  0.00    +0.000 Cl
ATOM      6  C   UNL     1       4.691   4.960  18.562  0.00  0.00    +0.000 A 
ATOM      7  C   UNL     1       4.013   4.010  19.344  0.00  0.00    +0.000 A 
ATOM      8  F   UNL     1       4.601   2.840  19.642  0.00  0.00    +0.000 F 
ENDROOT
BRANCH   6   9
ATOM      9  C   UNL     1       6.064   4.660  18.065  0.00  0.00    +0.000 C 
ATOM     10  O   UNL     1       6.938   4.485  18.913  0.00  0.00    +0.000 OA
BRANCH   9  11
ATOM     11  C   UNL     1       6.304   4.518  16.636  0.00  0.00    +0.000 A 
ATOM     12  N   UNL     1       7.342   5.022  15.986  0.00  0.00    +0.000 NA
ATOM     13  C   UNL     1       7.206   4.753  14.634  0.00  0.00    +0.000 A 
ATOM     14  C   UNL     1       6.091   4.030  14.275  0.00  0.00    +0.000 A 
ATOM     15  S   UNL     1       5.180   3.643  15.668  0.00  0.00    +0.000 S 
ENDBRANCH   9  11
ENDBRANCH   6   9
BRANCH   1  16
ATOM     16  C   UNL     1       2.041   3.166  20.687  0.00  0.00    +0.000 C 
BRANCH  16  17
ATOM     17  N   UNL     1       2.845   2.731  21.838  0.00  0.00    +0.000 NA
ATOM     18  H   UNL     1       3.820   2.983  21.687  0.00  0.00    +0.000 HD
ATOM     19  H   UNL     1       2.834   1.713  21.888  0.00  0.00    +0.000 HD
ENDBRANCH  16  17
BRANCH  16  21
ATOM     20  C   UNL     1       0.647   2.329  18.705  0.00  0.00    +0.000 C 
ATOM     21  C   UNL     1       1.674   1.979  19.775  0.00  0.00    +0.000 C 
ENDBRANCH  16  21
ENDBRANCH   1  16
TORSDOF 5
ENDMDL
