MODEL 1
REMARK VINA RESULT:      -7.7      0.000      0.000
REMARK  Name = 
REMARK  19 active torsions:
REMARK  status: ('A' for Active; 'I' for Inactive)
REMARK    1  A    between atoms: C_1  and  C_2
REMARK    2  A    between atoms: C_2  and  C_3
REMARK    3  A    between atoms: C_2  and  C_4
REMARK    4  A    between atoms: C_4  and  C_5
REMARK    5  A    between atoms: C_5  and  O_6
REMARK    6  A    between atoms: C_5  and  C_7
REMARK    7  A    between atoms: C_5  and  C_11
REMARK    8  A    between atoms: C_7  and  C_8
REMARK    9  A    between atoms: C_8  and  O_10
REMARK   10  A    between atoms: C_11  and  O_13
REMARK   11  A    between atoms: O_13  and  C_14
REMARK   12  A    between atoms: C_14  and  C_15
REMARK   13  A    between atoms: C_18  and  O_19
REMARK   14  A    between atoms: O_19  and  C_20
REMARK   15  A    between atoms: C_22  and  C_23
REMARK   16  A    between atoms: C_23  and  O_24
REMARK   17  A    between atoms: C_25  and  O_26
REMARK   18  A    between atoms: C_27  and  O_28
REMARK   19  A    between atoms: C_29  and  O_30
REMARK                            x       y       z     vdW  Elec       q    Type
REMARK                         _______ _______ _______ _____ _____    ______ ____
ROOT
ATOM      1  C   UNL     1       2.126   7.258  18.963  0.00  0.00    +0.000 A 
ATOM      2  C   UNL     1       1.964   8.191  17.939  0.00  0.00    +0.000 A 
ATOM      3  C   UNL     1       1.442   9.447  18.224  0.00  0.00    +0.000 A 
ATOM      4  C   UNL     1       1.059   9.792  19.529  0.00  0.00    +0.000 A 
ATOM      5  C   UNL     1       1.199   8.858  20.550  0.00  0.00    +0.000 A 
ATOM      6  C   UNL     1       1.733   7.596  20.268  0.00  0.00    +0.000 A 
ENDROOT
BRANCH   1   7
ATOM      7  C   UNL     1       2.781   5.930  18.681  0.00  0.00    +0.000 C 
BRANCH   7   8
ATOM      8  O   UNL     1       4.102   6.173  18.190  0.00  0.00    +0.000 OA
BRANCH   8   9
ATOM      9  C   UNL     1       4.496   5.419  17.126  0.00  0.00    +0.000 C 
ATOM     10  O   UNL     1       3.957   4.385  16.780  0.00  0.00    +0.000 OA
BRANCH   9  11
ATOM     11  C   UNL     1       5.674   6.095  16.378  0.00  0.00    +0.000 C 
BRANCH  11  12
ATOM     12  O   UNL     1       5.188   6.643  15.140  0.00  0.00    +0.000 OA
ATOM     13  H   UNL     1       5.889   6.602  14.466  0.00  0.00    +0.000 HD
ENDBRANCH  11  12
BRANCH  11  14
ATOM     14  C   UNL     1       6.715   5.019  16.038  0.00  0.00    +0.000 C 
BRANCH  14  15
ATOM     15  C   UNL     1       6.923   4.749  14.573  0.00  0.00    +0.000 C 
ATOM     16  O   UNL     1       6.325   3.873  13.966  0.00  0.00    +0.000 OA
BRANCH  15  17
ATOM     17  O   UNL     1       7.866   5.518  13.991  0.00  0.00    +0.000 OA
ATOM     18  H   UNL     1       7.833   6.477  14.183  0.00  0.00    +0.000 HD
ENDBRANCH  15  17
ENDBRANCH  14  15
ENDBRANCH  11  14
BRANCH  11  19
ATOM     19  C   UNL     1       6.171   7.264  17.255  0.00  0.00    +0.000 C 
BRANCH  19  21
ATOM     20  C   UNL     1       8.200   8.729  17.930  0.00  0.00    +0.000 C 
ATOM     21  C   UNL     1       7.674   7.324  17.620  0.00  0.00    +0.000 C 
ATOM     22  C   UNL     1       7.930   6.457  18.863  0.00  0.00    +0.000 C 
ENDBRANCH  19  21
ENDBRANCH  11  19
ENDBRANCH   9  11
ENDBRANCH   8   9
ENDBRANCH   7   8
ENDBRANCH   1   7
BRANCH   4  23
ATOM     23  O   UNL     1       0.597  11.062  19.659  0.00  0.00    +0.000 OA
BRANCH  23  24
ATOM     24  C   UNL     1       0.909  12.048  18.655  0.00  0.00    +0.000 C 
ATOM     25  O   UNL     1       2.131  12.722  18.972  0.00  0.00    +0.000 OA
ATOM     26  C   UNL     1       2.278  13.959  18.268  0.00  0.00    +0.000 C 
ATOM     27  C   UNL     1       1.298  14.918  18.924  0.00  0.00    +0.000 C 
ATOM     28  C   UNL     1      -0.116  14.474  18.562  0.00  0.00    +0.000 C 
ATOM     29  C   UNL     1      -0.358  12.960  18.627  0.00  0.00    +0.000 C 
BRANCH  29  30
ATOM     30  O   UNL     1      -1.158  12.617  17.470  0.00  0.00    +0.000 OA
ATOM     31  H   UNL     1      -0.621  12.046  16.895  0.00  0.00    +0.000 HD
ENDBRANCH  29  30
BRANCH  28  32
ATOM     32  O   UNL     1      -1.040  15.182  19.417  0.00  0.00    +0.000 OA
ATOM     33  H   UNL     1      -1.652  15.685  18.853  0.00  0.00    +0.000 HD
ENDBRANCH  28  32
BRANCH  27  34
ATOM     34  O   UNL     1       1.502  16.267  18.499  0.00  0.00    +0.000 OA
ATOM     35  H   UNL     1       0.708  16.535  17.997  0.00  0.00    +0.000 HD
ENDBRANCH  27  34
BRANCH  26  36
ATOM     36  C   UNL     1       3.711  14.496  18.365  0.00  0.00    +0.000 C 
BRANCH  36  37
ATOM     37  O   UNL     1       4.044  15.265  17.208  0.00  0.00    +0.000 OA
ATOM     38  H   UNL     1       3.364  15.065  16.544  0.00  0.00    +0.000 HD
ENDBRANCH  36  37
ENDBRANCH  26  36
ENDBRANCH  23  24
ENDBRANCH   4  23
TORSDOF 17
ENDMDL
MODEL 2
REMARK VINA RESULT:      -7.4      2.458      2.965
REMARK  Name = 
REMARK  19 active torsions:
REMARK  status: ('A' for Active; 'I' for Inactive)
REMARK    1  A    between atoms: C_1  and  C_2
REMARK    2  A    between atoms: C_2  and  C_3
REMARK    3  A    between atoms: C_2  and  C_4
REMARK    4  A    between atoms: C_4  and  C_5
REMARK    5  A    between atoms: C_5  and  O_6
REMARK    6  A    between atoms: C_5  and  C_7
REMARK    7  A    between atoms: C_5  and  C_11
REMARK    8  A    between atoms: C_7  and  C_8
REMARK    9  A    between atoms: C_8  and  O_10
REMARK   10  A    between atoms: C_11  and  O_13
REMARK   11  A    between atoms: O_13  and  C_14
REMARK   12  A    between atoms: C_14  and  C_15
REMARK   13  A    between atoms: C_18  and  O_19
REMARK   14  A    between atoms: O_19  and  C_20
REMARK   15  A    between atoms: C_22  and  C_23
REMARK   16  A    between atoms: C_23  and  O_24
REMARK   17  A    between atoms: C_25  and  O_26
REMARK   18  A    between atoms: C_27  and  O_28
REMARK   19  A    between atoms: C_29  and  O_30
REMARK                            x       y       z     vdW  Elec       q    Type
REMARK                         _______ _______ _______ _____ _____    ______ ____
ROOT
ATOM      1  C   UNL     1       2.504   6.342  18.965  0.00  0.00    +0.000 A 
ATOM      2  C   UNL     1       2.452   7.460  18.133  0.00  0.00    +0.000 A 
ATOM      3  C   UNL     1       1.940   8.658  18.614  0.00  0.00    +0.000 A 
ATOM      4  C   UNL     1       1.457   8.763  19.928  0.00  0.00    +0.000 A 
ATOM      5  C   UNL     1       1.488   7.645  20.756  0.00  0.00    +0.000 A 
ATOM      6  C   UNL     1       2.012   6.440  20.276  0.00  0.00    +0.000 A 
ENDROOT
BRANCH   1   7
ATOM      7  C   UNL     1       3.147   5.067  18.483  0.00  0.00    +0.000 C 
BRANCH   7   8
ATOM      8  O   UNL     1       3.624   5.277  17.151  0.00  0.00    +0.000 OA
BRANCH   8   9
ATOM      9  C   UNL     1       4.764   4.615  16.809  0.00  0.00    +0.000 C 
ATOM     10  O   UNL     1       4.917   3.413  16.912  0.00  0.00    +0.000 OA
BRANCH   9  11
ATOM     11  C   UNL     1       5.807   5.591  16.206  0.00  0.00    +0.000 C 
BRANCH  11  12
ATOM     12  O   UNL     1       5.226   6.252  15.069  0.00  0.00    +0.000 OA
ATOM     13  H   UNL     1       4.719   5.612  14.540  0.00  0.00    +0.000 HD
ENDBRANCH  11  12
BRANCH  11  14
ATOM     14  C   UNL     1       7.007   4.773  15.710  0.00  0.00    +0.000 C 
BRANCH  14  15
ATOM     15  C   UNL     1       7.178   4.698  14.218  0.00  0.00    +0.000 C 
ATOM     16  O   UNL     1       7.857   5.493  13.585  0.00  0.00    +0.000 OA
BRANCH  15  17
ATOM     17  O   UNL     1       6.477   3.711  13.624  0.00  0.00    +0.000 OA
ATOM     18  H   UNL     1       6.917   3.237  12.889  0.00  0.00    +0.000 HD
ENDBRANCH  15  17
ENDBRANCH  14  15
ENDBRANCH  11  14
BRANCH  11  19
ATOM     19  C   UNL     1       6.113   6.662  17.276  0.00  0.00    +0.000 C 
BRANCH  19  21
ATOM     20  C   UNL     1       7.938   8.420  17.817  0.00  0.00    +0.000 C 
ATOM     21  C   UNL     1       7.592   6.938  17.638  0.00  0.00    +0.000 C 
ATOM     22  C   UNL     1       7.934   6.228  18.957  0.00  0.00    +0.000 C 
ENDBRANCH  19  21
ENDBRANCH  11  19
ENDBRANCH   9  11
ENDBRANCH   8   9
ENDBRANCH   7   8
ENDBRANCH   1   7
BRANCH   4  23
ATOM     23  O   UNL     1       1.018  10.002  20.265  0.00  0.00    +0.000 OA
BRANCH  23  24
ATOM     24  C   UNL     1      -0.396  10.267  20.349  0.00  0.00    +0.000 C 
ATOM     25  O   UNL     1      -0.893  10.760  19.101  0.00  0.00    +0.000 OA
ATOM     26  C   UNL     1      -2.157  11.418  19.231  0.00  0.00    +0.000 C 
ATOM     27  C   UNL     1      -1.855  12.745  19.911  0.00  0.00    +0.000 C 
ATOM     28  C   UNL     1      -1.457  12.460  21.355  0.00  0.00    +0.000 C 
ATOM     29  C   UNL     1      -0.515  11.263  21.546  0.00  0.00    +0.000 C 
BRANCH  29  30
ATOM     30  O   UNL     1      -0.985  10.545  22.711  0.00  0.00    +0.000 OA
ATOM     31  H   UNL     1      -1.926  10.760  22.834  0.00  0.00    +0.000 HD
ENDBRANCH  29  30
BRANCH  28  32
ATOM     32  O   UNL     1      -0.882  13.663  21.907  0.00  0.00    +0.000 OA
ATOM     33  H   UNL     1      -0.186  13.406  22.537  0.00  0.00    +0.000 HD
ENDBRANCH  28  32
BRANCH  27  34
ATOM     34  O   UNL     1      -2.978  13.628  19.885  0.00  0.00    +0.000 OA
ATOM     35  H   UNL     1      -3.688  13.177  19.388  0.00  0.00    +0.000 HD
ENDBRANCH  27  34
BRANCH  26  36
ATOM     36  C   UNL     1      -2.817  11.645  17.866  0.00  0.00    +0.000 C 
BRANCH  36  37
ATOM     37  O   UNL     1      -1.836  11.936  16.870  0.00  0.00    +0.000 OA
ATOM     38  H   UNL     1      -1.830  11.176  16.264  0.00  0.00    +0.000 HD
ENDBRANCH  36  37
ENDBRANCH  26  36
ENDBRANCH  23  24
ENDBRANCH   4  23
TORSDOF 17
ENDMDL
MODEL 3
REMARK VINA RESULT:      -7.3      2.285      3.055
REMARK  Name = 
REMARK  19 active torsions:
REMARK  status: ('A' for Active; 'I' for Inactive)
REMARK    1  A    between atoms: C_1  and  C_2
REMARK    2  A    between atoms: C_2  and  C_3
REMARK    3  A    between atoms: C_2  and  C_4
REMARK    4  A    between atoms: C_4  and  C_5
REMARK    5  A    between atoms: C_5  and  O_6
REMARK    6  A    between atoms: C_5  and  C_7
REMARK    7  A    between atoms: C_5  and  C_11
REMARK    8  A    between atoms: C_7  and  C_8
REMARK    9  A    between atoms: C_8  and  O_10
REMARK   10  A    between atoms: C_11  and  O_13
REMARK   11  A    between atoms: O_13  and  C_14
REMARK   12  A    between atoms: C_14  and  C_15
REMARK   13  A    between atoms: C_18  and  O_19
REMARK   14  A    between atoms: O_19  and  C_20
REMARK   15  A    between atoms: C_22  and  C_23
REMARK   16  A    between atoms: C_23  and  O_24
REMARK   17  A    between atoms: C_25  and  O_26
REMARK   18  A    between atoms: C_27  and  O_28
REMARK   19  A    between atoms: C_29  and  O_30
REMARK                            x       y       z     vdW  Elec       q    Type
REMARK                         _______ _______ _______ _____ _____    ______ ____
ROOT
ATOM      1  C   UNL     1       2.141   5.811  19.107  0.00  0.00    +0.000 A 
ATOM      2  C   UNL     1       1.670   5.975  20.409  0.00  0.00    +0.000 A 
ATOM      3  C   UNL     1       1.395   7.248  20.891  0.00  0.00    +0.000 A 
ATOM      4  C   UNL     1       1.598   8.384  20.091  0.00  0.00    +0.000 A 
ATOM      5  C   UNL     1       2.088   8.228  18.799  0.00  0.00    +0.000 A 
ATOM      6  C   UNL     1       2.357   6.945  18.308  0.00  0.00    +0.000 A 
ENDROOT
BRANCH   1   7
ATOM      7  C   UNL     1       2.349   4.429  18.544  0.00  0.00    +0.000 C 
BRANCH   7   8
ATOM      8  O   UNL     1       3.072   4.545  17.316  0.00  0.00    +0.000 OA
BRANCH   8   9
ATOM      9  C   UNL     1       4.231   3.834  17.231  0.00  0.00    +0.000 C 
ATOM     10  O   UNL     1       4.317   2.635  17.420  0.00  0.00    +0.000 OA
BRANCH   9  11
ATOM     11  C   UNL     1       5.405   4.746  16.792  0.00  0.00    +0.000 C 
BRANCH  11  12
ATOM     12  O   UNL     1       4.904   5.757  15.899  0.00  0.00    +0.000 OA
ATOM     13  H   UNL     1       3.977   5.568  15.678  0.00  0.00    +0.000 HD
ENDBRANCH  11  12
BRANCH  11  14
ATOM     14  C   UNL     1       6.417   3.893  16.014  0.00  0.00    +0.000 C 
BRANCH  14  15
ATOM     15  C   UNL     1       6.814   4.418  14.661  0.00  0.00    +0.000 C 
ATOM     16  O   UNL     1       7.430   5.462  14.506  0.00  0.00    +0.000 OA
BRANCH  15  17
ATOM     17  O   UNL     1       6.387   3.669  13.624  0.00  0.00    +0.000 OA
ATOM     18  H   UNL     1       5.460   3.798  13.338  0.00  0.00    +0.000 HD
ENDBRANCH  15  17
ENDBRANCH  14  15
ENDBRANCH  11  14
BRANCH  11  19
ATOM     19  C   UNL     1       5.944   5.450  18.056  0.00  0.00    +0.000 C 
BRANCH  19  21
ATOM     20  C   UNL     1       7.602   7.385  17.581  0.00  0.00    +0.000 C 
ATOM     21  C   UNL     1       7.412   5.941  18.056  0.00  0.00    +0.000 C 
ATOM     22  C   UNL     1       7.978   5.851  19.482  0.00  0.00    +0.000 C 
ENDBRANCH  19  21
ENDBRANCH  11  19
ENDBRANCH   9  11
ENDBRANCH   8   9
ENDBRANCH   7   8
ENDBRANCH   1   7
BRANCH   4  23
ATOM     23  O   UNL     1       1.255   9.555  20.686  0.00  0.00    +0.000 OA
BRANCH  23  24
ATOM     24  C   UNL     1      -0.103  10.032  20.607  0.00  0.00    +0.000 C 
ATOM     25  O   UNL     1      -0.355  10.630  19.332  0.00  0.00    +0.000 OA
ATOM     26  C   UNL     1      -1.513  11.471  19.336  0.00  0.00    +0.000 C 
ATOM     27  C   UNL     1      -1.106  12.716  20.109  0.00  0.00    +0.000 C 
ATOM     28  C   UNL     1      -0.945  12.334  21.576  0.00  0.00    +0.000 C 
ATOM     29  C   UNL     1      -0.224  11.001  21.826  0.00  0.00    +0.000 C 
BRANCH  29  30
ATOM     30  O   UNL     1      -0.942  10.333  22.889  0.00  0.00    +0.000 OA
ATOM     31  H   UNL     1      -0.407  10.397  23.698  0.00  0.00    +0.000 HD
ENDBRANCH  29  30
BRANCH  28  32
ATOM     32  O   UNL     1      -0.272  13.418  22.251  0.00  0.00    +0.000 OA
ATOM     33  H   UNL     1       0.262  13.900  21.595  0.00  0.00    +0.000 HD
ENDBRANCH  28  32
BRANCH  27  34
ATOM     34  O   UNL     1      -2.072  13.762  19.987  0.00  0.00    +0.000 OA
ATOM     35  H   UNL     1      -2.897  13.442  20.402  0.00  0.00    +0.000 HD
ENDBRANCH  27  34
BRANCH  26  36
ATOM     36  C   UNL     1      -1.951  11.834  17.913  0.00  0.00    +0.000 C 
BRANCH  36  37
ATOM     37  O   UNL     1      -1.109  12.851  17.367  0.00  0.00    +0.000 OA
ATOM     38  H   UNL     1      -1.491  13.085  16.504  0.00  0.00    +0.000 HD
ENDBRANCH  36  37
ENDBRANCH  26  36
ENDBRANCH  23  24
ENDBRANCH   4  23
TORSDOF 17
ENDMDL
MODEL 4
REMARK VINA RESULT:      -7.1      1.969      9.213
REMARK  Name = 
REMARK  19 active torsions:
REMARK  status: ('A' for Active; 'I' for Inactive)
REMARK    1  A    between atoms: C_1  and  C_2
REMARK    2  A    between atoms: C_2  and  C_3
REMARK    3  A    between atoms: C_2  and  C_4
REMARK    4  A    between atoms: C_4  and  C_5
REMARK    5  A    between atoms: C_5  and  O_6
REMARK    6  A    between atoms: C_5  and  C_7
REMARK    7  A    between atoms: C_5  and  C_11
REMARK    8  A    between atoms: C_7  and  C_8
REMARK    9  A    between atoms: C_8  and  O_10
REMARK   10  A    between atoms: C_11  and  O_13
REMARK   11  A    between atoms: O_13  and  C_14
REMARK   12  A    between atoms: C_14  and  C_15
REMARK   13  A    between atoms: C_18  and  O_19
REMARK   14  A    between atoms: O_19  and  C_20
REMARK   15  A    between atoms: C_22  and  C_23
REMARK   16  A    between atoms: C_23  and  O_24
REMARK   17  A    between atoms: C_25  and  O_26
REMARK   18  A    between atoms: C_27  and  O_28
REMARK   19  A    between atoms: C_29  and  O_30
REMARK                            x       y       z     vdW  Elec       q    Type
REMARK                         _______ _______ _______ _____ _____    ______ ____
ROOT
ATOM      1  C   UNL     1       1.851   7.094  20.146  0.00  0.00    +0.000 A 
ATOM      2  C   UNL     1       1.928   5.842  20.754  0.00  0.00    +0.000 A 
ATOM      3  C   UNL     1       2.606   4.807  20.124  0.00  0.00    +0.000 A 
ATOM      4  C   UNL     1       3.208   4.994  18.870  0.00  0.00    +0.000 A 
ATOM      5  C   UNL     1       3.117   6.235  18.249  0.00  0.00    +0.000 A 
ATOM      6  C   UNL     1       2.442   7.282  18.886  0.00  0.00    +0.000 A 
ENDROOT
BRANCH   1   7
ATOM      7  C   UNL     1       1.202   8.248  20.866  0.00  0.00    +0.000 C 
BRANCH   7   8
ATOM      8  O   UNL     1       1.110   9.352  19.961  0.00  0.00    +0.000 OA
BRANCH   8   9
ATOM      9  C   UNL     1       0.800  10.558  20.512  0.00  0.00    +0.000 C 
ATOM     10  O   UNL     1       1.140  10.911  21.626  0.00  0.00    +0.000 OA
BRANCH   9  11
ATOM     11  C   UNL     1       0.022  11.441  19.504  0.00  0.00    +0.000 C 
BRANCH  11  12
ATOM     12  O   UNL     1       0.793  11.563  18.296  0.00  0.00    +0.000 OA
ATOM     13  H   UNL     1       0.228  11.385  17.526  0.00  0.00    +0.000 HD
ENDBRANCH  11  12
BRANCH  11  14
ATOM     14  C   UNL     1      -0.133  12.845  20.106  0.00  0.00    +0.000 C 
BRANCH  14  15
ATOM     15  C   UNL     1       0.297  13.986  19.225  0.00  0.00    +0.000 C 
ATOM     16  O   UNL     1       1.413  14.481  19.274  0.00  0.00    +0.000 OA
BRANCH  15  17
ATOM     17  O   UNL     1      -0.669  14.458  18.410  0.00  0.00    +0.000 OA
ATOM     18  H   UNL     1      -1.497  14.758  18.835  0.00  0.00    +0.000 HD
ENDBRANCH  15  17
ENDBRANCH  14  15
ENDBRANCH  11  14
BRANCH  11  19
ATOM     19  C   UNL     1      -1.291  10.705  19.159  0.00  0.00    +0.000 C 
BRANCH  19  21
ATOM     20  C   UNL     1      -2.117   9.924  16.830  0.00  0.00    +0.000 C 
ATOM     21  C   UNL     1      -2.016  11.071  17.841  0.00  0.00    +0.000 C 
ATOM     22  C   UNL     1      -3.448  11.526  18.159  0.00  0.00    +0.000 C 
ENDBRANCH  19  21
ENDBRANCH  11  19
ENDBRANCH   9  11
ENDBRANCH   8   9
ENDBRANCH   7   8
ENDBRANCH   1   7
BRANCH   4  23
ATOM     23  O   UNL     1       3.861   3.903  18.394  0.00  0.00    +0.000 OA
BRANCH  23  24
ATOM     24  C   UNL     1       5.254   3.996  18.037  0.00  0.00    +0.000 C 
ATOM     25  O   UNL     1       5.925   4.950  18.867  0.00  0.00    +0.000 OA
ATOM     26  C   UNL     1       7.170   5.386  18.311  0.00  0.00    +0.000 C 
ATOM     27  C   UNL     1       6.799   6.296  17.150  0.00  0.00    +0.000 C 
ATOM     28  C   UNL     1       6.202   5.434  16.042  0.00  0.00    +0.000 C 
ATOM     29  C   UNL     1       5.223   4.351  16.517  0.00  0.00    +0.000 C 
BRANCH  29  30
ATOM     30  O   UNL     1       5.518   3.160  15.750  0.00  0.00    +0.000 OA
ATOM     31  H   UNL     1       4.909   3.134  14.992  0.00  0.00    +0.000 HD
ENDBRANCH  29  30
BRANCH  28  32
ATOM     32  O   UNL     1       5.575   6.311  15.081  0.00  0.00    +0.000 OA
ATOM     33  H   UNL     1       5.490   7.192  15.483  0.00  0.00    +0.000 HD
ENDBRANCH  28  32
BRANCH  27  34
ATOM     34  O   UNL     1       7.928   7.012  16.648  0.00  0.00    +0.000 OA
ATOM     35  H   UNL     1       8.648   6.911  17.301  0.00  0.00    +0.000 HD
ENDBRANCH  27  34
BRANCH  26  36
ATOM     36  C   UNL     1       8.015   6.140  19.344  0.00  0.00    +0.000 C 
BRANCH  36  37
ATOM     37  O   UNL     1       8.055   5.430  20.583  0.00  0.00    +0.000 OA
ATOM     38  H   UNL     1       7.637   4.569  20.416  0.00  0.00    +0.000 HD
ENDBRANCH  36  37
ENDBRANCH  26  36
ENDBRANCH  23  24
ENDBRANCH   4  23
TORSDOF 17
ENDMDL
MODEL 5
REMARK VINA RESULT:      -7.1      2.077      3.237
REMARK  Name = 
REMARK  19 active torsions:
REMARK  status: ('A' for Active; 'I' for Inactive)
REMARK    1  A    between atoms: C_1  and  C_2
REMARK    2  A    between atoms: C_2  and  C_3
REMARK    3  A    between atoms: C_2  and  C_4
REMARK    4  A    between atoms: C_4  and  C_5
REMARK    5  A    between atoms: C_5  and  O_6
REMARK    6  A    between atoms: C_5  and  C_7
REMARK    7  A    between atoms: C_5  and  C_11
REMARK    8  A    between atoms: C_7  and  C_8
REMARK    9  A    between atoms: C_8  and  O_10
REMARK   10  A    between atoms: C_11  and  O_13
REMARK   11  A    between atoms: O_13  and  C_14
REMARK   12  A    between atoms: C_14  and  C_15
REMARK   13  A    between atoms: C_18  and  O_19
REMARK   14  A    between atoms: O_19  and  C_20
REMARK   15  A    between atoms: C_22  and  C_23
REMARK   16  A    between atoms: C_23  and  O_24
REMARK   17  A    between atoms: C_25  and  O_26
REMARK   18  A    between atoms: C_27  and  O_28
REMARK   19  A    between atoms: C_29  and  O_30
REMARK                            x       y       z     vdW  Elec       q    Type
REMARK                         _______ _______ _______ _____ _____    ______ ____
ROOT
ATOM      1  C   UNL     1       2.050   7.226  19.479  0.00  0.00    +0.000 A 
ATOM      2  C   UNL     1       1.495   7.781  20.631  0.00  0.00    +0.000 A 
ATOM      3  C   UNL     1       1.015   9.084  20.609  0.00  0.00    +0.000 A 
ATOM      4  C   UNL     1       1.092   9.864  19.445  0.00  0.00    +0.000 A 
ATOM      5  C   UNL     1       1.664   9.322  18.299  0.00  0.00    +0.000 A 
ATOM      6  C   UNL     1       2.139   8.006  18.315  0.00  0.00    +0.000 A 
ENDROOT
BRANCH   1   7
ATOM      7  C   UNL     1       2.483   5.782  19.466  0.00  0.00    +0.000 C 
BRANCH   7   8
ATOM      8  O   UNL     1       2.478   5.321  18.112  0.00  0.00    +0.000 OA
BRANCH   8   9
ATOM      9  C   UNL     1       2.587   3.975  17.935  0.00  0.00    +0.000 C 
ATOM     10  O   UNL     1       1.641   3.218  17.825  0.00  0.00    +0.000 OA
BRANCH   9  11
ATOM     11  C   UNL     1       4.074   3.554  17.819  0.00  0.00    +0.000 C 
BRANCH  11  12
ATOM     12  O   UNL     1       4.141   2.191  17.362  0.00  0.00    +0.000 OA
ATOM     13  H   UNL     1       3.665   1.614  17.983  0.00  0.00    +0.000 HD
ENDBRANCH  11  12
BRANCH  11  14
ATOM     14  C   UNL     1       4.705   3.610  19.218  0.00  0.00    +0.000 C 
BRANCH  14  15
ATOM     15  C   UNL     1       4.376   2.461  20.132  0.00  0.00    +0.000 C 
ATOM     16  O   UNL     1       5.138   1.525  20.325  0.00  0.00    +0.000 OA
BRANCH  15  17
ATOM     17  O   UNL     1       3.146   2.520  20.683  0.00  0.00    +0.000 OA
ATOM     18  H   UNL     1       2.491   1.864  20.371  0.00  0.00    +0.000 HD
ENDBRANCH  15  17
ENDBRANCH  14  15
ENDBRANCH  11  14
BRANCH  11  19
ATOM     19  C   UNL     1       4.729   4.450  16.746  0.00  0.00    +0.000 C 
BRANCH  19  21
ATOM     20  C   UNL     1       5.975   4.206  14.487  0.00  0.00    +0.000 C 
ATOM     21  C   UNL     1       5.966   3.909  15.990  0.00  0.00    +0.000 C 
ATOM     22  C   UNL     1       7.238   4.533  16.585  0.00  0.00    +0.000 C 
ENDBRANCH  19  21
ENDBRANCH  11  19
ENDBRANCH   9  11
ENDBRANCH   8   9
ENDBRANCH   7   8
ENDBRANCH   1   7
BRANCH   4  23
ATOM     23  O   UNL     1       0.555  11.105  19.566  0.00  0.00    +0.000 OA
BRANCH  23  24
ATOM     24  C   UNL     1       0.859  12.120  18.589  0.00  0.00    +0.000 C 
ATOM     25  O   UNL     1       2.085  12.783  18.915  0.00  0.00    +0.000 OA
ATOM     26  C   UNL     1       2.227  14.040  18.245  0.00  0.00    +0.000 C 
ATOM     27  C   UNL     1       1.253  14.981  18.938  0.00  0.00    +0.000 C 
ATOM     28  C   UNL     1      -0.164  14.549  18.577  0.00  0.00    +0.000 C 
ATOM     29  C   UNL     1      -0.407  13.033  18.599  0.00  0.00    +0.000 C 
BRANCH  29  30
ATOM     30  O   UNL     1      -1.218  12.726  17.441  0.00  0.00    +0.000 OA
ATOM     31  H   UNL     1      -0.669  12.858  16.649  0.00  0.00    +0.000 HD
ENDBRANCH  29  30
BRANCH  28  32
ATOM     32  O   UNL     1      -1.079  15.231  19.461  0.00  0.00    +0.000 OA
ATOM     33  H   UNL     1      -1.843  15.529  18.937  0.00  0.00    +0.000 HD
ENDBRANCH  28  32
BRANCH  27  34
ATOM     34  O   UNL     1       1.456  16.341  18.552  0.00  0.00    +0.000 OA
ATOM     35  H   UNL     1       1.203  16.414  17.611  0.00  0.00    +0.000 HD
ENDBRANCH  27  34
BRANCH  26  36
ATOM     36  C   UNL     1       3.661  14.573  18.345  0.00  0.00    +0.000 C 
BRANCH  36  37
ATOM     37  O   UNL     1       4.018  15.293  17.164  0.00  0.00    +0.000 OA
ATOM     38  H   UNL     1       3.522  14.883  16.436  0.00  0.00    +0.000 HD
ENDBRANCH  36  37
ENDBRANCH  26  36
ENDBRANCH  23  24
ENDBRANCH   4  23
TORSDOF 17
ENDMDL
MODEL 6
REMARK VINA RESULT:      -7.1      1.359      2.457
REMARK  Name = 
REMARK  19 active torsions:
REMARK  status: ('A' for Active; 'I' for Inactive)
REMARK    1  A    between atoms: C_1  and  C_2
REMARK    2  A    between atoms: C_2  and  C_3
REMARK    3  A    between atoms: C_2  and  C_4
REMARK    4  A    between atoms: C_4  and  C_5
REMARK    5  A    between atoms: C_5  and  O_6
REMARK    6  A    between atoms: C_5  and  C_7
REMARK    7  A    between atoms: C_5  and  C_11
REMARK    8  A    between atoms: C_7  and  C_8
REMARK    9  A    between atoms: C_8  and  O_10
REMARK   10  A    between atoms: C_11  and  O_13
REMARK   11  A    between atoms: O_13  and  C_14
REMARK   12  A    between atoms: C_14  and  C_15
REMARK   13  A    between atoms: C_18  and  O_19
REMARK   14  A    between atoms: O_19  and  C_20
REMARK   15  A    between atoms: C_22  and  C_23
REMARK   16  A    between atoms: C_23  and  O_24
REMARK   17  A    between atoms: C_25  and  O_26
REMARK   18  A    between atoms: C_27  and  O_28
REMARK   19  A    between atoms: C_29  and  O_30
REMARK                            x       y       z     vdW  Elec       q    Type
REMARK                         _______ _______ _______ _____ _____    ______ ____
ROOT
ATOM      1  C   UNL     1       2.180   6.683  18.784  0.00  0.00    +0.000 A 
ATOM      2  C   UNL     1       2.080   7.703  17.839  0.00  0.00    +0.000 A 
ATOM      3  C   UNL     1       1.712   8.982  18.237  0.00  0.00    +0.000 A 
ATOM      4  C   UNL     1       1.422   9.266  19.581  0.00  0.00    +0.000 A 
ATOM      5  C   UNL     1       1.501   8.246  20.525  0.00  0.00    +0.000 A 
ATOM      6  C   UNL     1       1.880   6.960  20.127  0.00  0.00    +0.000 A 
ENDROOT
BRANCH   1   7
ATOM      7  C   UNL     1       2.672   5.318  18.376  0.00  0.00    +0.000 C 
BRANCH   7   8
ATOM      8  O   UNL     1       3.773   5.484  17.479  0.00  0.00    +0.000 OA
BRANCH   8   9
ATOM      9  C   UNL     1       4.615   4.421  17.357  0.00  0.00    +0.000 C 
ATOM     10  O   UNL     1       4.252   3.275  17.166  0.00  0.00    +0.000 OA
BRANCH   9  11
ATOM     11  C   UNL     1       6.095   4.880  17.421  0.00  0.00    +0.000 C 
BRANCH  11  12
ATOM     12  O   UNL     1       6.727   4.265  18.557  0.00  0.00    +0.000 OA
ATOM     13  H   UNL     1       6.190   3.515  18.866  0.00  0.00    +0.000 HD
ENDBRANCH  11  12
BRANCH  11  14
ATOM     14  C   UNL     1       6.123   6.400  17.634  0.00  0.00    +0.000 C 
BRANCH  14  15
ATOM     15  C   UNL     1       7.488   7.021  17.745  0.00  0.00    +0.000 C 
ATOM     16  O   UNL     1       7.975   7.719  16.867  0.00  0.00    +0.000 OA
BRANCH  15  17
ATOM     17  O   UNL     1       8.158   6.703  18.872  0.00  0.00    +0.000 OA
ATOM     18  H   UNL     1       8.656   7.423  19.308  0.00  0.00    +0.000 HD
ENDBRANCH  15  17
ENDBRANCH  14  15
ENDBRANCH  11  14
BRANCH  11  19
ATOM     19  C   UNL     1       6.797   4.363  16.147  0.00  0.00    +0.000 C 
BRANCH  19  21
ATOM     20  C   UNL     1       7.599   5.404  13.913  0.00  0.00    +0.000 C 
ATOM     21  C   UNL     1       6.410   4.992  14.787  0.00  0.00    +0.000 C 
ATOM     22  C   UNL     1       5.579   3.983  13.978  0.00  0.00    +0.000 C 
ENDBRANCH  19  21
ENDBRANCH  11  19
ENDBRANCH   9  11
ENDBRANCH   8   9
ENDBRANCH   7   8
ENDBRANCH   1   7
BRANCH   4  23
ATOM     23  O   UNL     1       1.109  10.564  19.824  0.00  0.00    +0.000 OA
BRANCH  23  24
ATOM     24  C   UNL     1       1.216  11.540  18.769  0.00  0.00    +0.000 C 
ATOM     25  O   UNL     1       2.320  12.420  19.004  0.00  0.00    +0.000 OA
ATOM     26  C   UNL     1       2.233  13.629  18.244  0.00  0.00    +0.000 C 
ATOM     27  C   UNL     1       1.132  14.445  18.904  0.00  0.00    +0.000 C 
ATOM     28  C   UNL     1      -0.201  13.758  18.624  0.00  0.00    +0.000 C 
ATOM     29  C   UNL     1      -0.186  12.229  18.760  0.00  0.00    +0.000 C 
BRANCH  29  30
ATOM     30  O   UNL     1      -0.960  11.705  17.655  0.00  0.00    +0.000 OA
ATOM     31  H   UNL     1      -0.341  11.455  16.949  0.00  0.00    +0.000 HD
ENDBRANCH  29  30
BRANCH  28  32
ATOM     32  O   UNL     1      -1.197  14.343  19.490  0.00  0.00    +0.000 OA
ATOM     33  H   UNL     1      -1.817  14.852  18.940  0.00  0.00    +0.000 HD
ENDBRANCH  28  32
BRANCH  27  34
ATOM     34  O   UNL     1       1.093  15.787  18.417  0.00  0.00    +0.000 OA
ATOM     35  H   UNL     1       1.103  15.740  17.441  0.00  0.00    +0.000 HD
ENDBRANCH  27  34
BRANCH  26  36
ATOM     36  C   UNL     1       3.559  14.399  18.255  0.00  0.00    +0.000 C 
BRANCH  36  37
ATOM     37  O   UNL     1       3.720  15.151  17.052  0.00  0.00    +0.000 OA
ATOM     38  H   UNL     1       3.352  16.033  17.231  0.00  0.00    +0.000 HD
ENDBRANCH  36  37
ENDBRANCH  26  36
ENDBRANCH  23  24
ENDBRANCH   4  23
TORSDOF 17
ENDMDL
MODEL 7
REMARK VINA RESULT:      -7.0      1.276      1.840
REMARK  Name = 
REMARK  19 active torsions:
REMARK  status: ('A' for Active; 'I' for Inactive)
REMARK    1  A    between atoms: C_1  and  C_2
REMARK    2  A    between atoms: C_2  and  C_3
REMARK    3  A    between atoms: C_2  and  C_4
REMARK    4  A    between atoms: C_4  and  C_5
REMARK    5  A    between atoms: C_5  and  O_6
REMARK    6  A    between atoms: C_5  and  C_7
REMARK    7  A    between atoms: C_5  and  C_11
REMARK    8  A    between atoms: C_7  and  C_8
REMARK    9  A    between atoms: C_8  and  O_10
REMARK   10  A    between atoms: C_11  and  O_13
REMARK   11  A    between atoms: O_13  and  C_14
REMARK   12  A    between atoms: C_14  and  C_15
REMARK   13  A    between atoms: C_18  and  O_19
REMARK   14  A    between atoms: O_19  and  C_20
REMARK   15  A    between atoms: C_22  and  C_23
REMARK   16  A    between atoms: C_23  and  O_24
REMARK   17  A    between atoms: C_25  and  O_26
REMARK   18  A    between atoms: C_27  and  O_28
REMARK   19  A    between atoms: C_29  and  O_30
REMARK                            x       y       z     vdW  Elec       q    Type
REMARK                         _______ _______ _______ _____ _____    ______ ____
ROOT
ATOM      1  C   UNL     1       2.402   6.052  19.144  0.00  0.00    +0.000 A 
ATOM      2  C   UNL     1       2.461   7.101  18.227  0.00  0.00    +0.000 A 
ATOM      3  C   UNL     1       1.996   8.360  18.585  0.00  0.00    +0.000 A 
ATOM      4  C   UNL     1       1.450   8.595  19.856  0.00  0.00    +0.000 A 
ATOM      5  C   UNL     1       1.369   7.547  20.768  0.00  0.00    +0.000 A 
ATOM      6  C   UNL     1       1.846   6.280  20.413  0.00  0.00    +0.000 A 
ENDROOT
BRANCH   1   7
ATOM      7  C   UNL     1       2.993   4.709  18.799  0.00  0.00    +0.000 C 
BRANCH   7   8
ATOM      8  O   UNL     1       3.774   4.852  17.609  0.00  0.00    +0.000 OA
BRANCH   8   9
ATOM      9  C   UNL     1       5.067   4.431  17.684  0.00  0.00    +0.000 C 
ATOM     10  O   UNL     1       5.507   3.720  18.568  0.00  0.00    +0.000 OA
BRANCH   9  11
ATOM     11  C   UNL     1       5.877   4.920  16.456  0.00  0.00    +0.000 C 
BRANCH  11  12
ATOM     12  O   UNL     1       5.182   6.021  15.845  0.00  0.00    +0.000 OA
ATOM     13  H   UNL     1       4.663   5.701  15.087  0.00  0.00    +0.000 HD
ENDBRANCH  11  12
BRANCH  11  14
ATOM     14  C   UNL     1       5.941   3.779  15.431  0.00  0.00    +0.000 C 
BRANCH  14  15
ATOM     15  C   UNL     1       6.508   4.138  14.085  0.00  0.00    +0.000 C 
ATOM     16  O   UNL     1       7.084   5.193  13.865  0.00  0.00    +0.000 OA
BRANCH  15  17
ATOM     17  O   UNL     1       6.282   3.222  13.121  0.00  0.00    +0.000 OA
ATOM     18  H   UNL     1       6.651   2.328  13.267  0.00  0.00    +0.000 HD
ENDBRANCH  15  17
ENDBRANCH  14  15
ENDBRANCH  11  14
BRANCH  11  19
ATOM     19  C   UNL     1       7.235   5.441  16.974  0.00  0.00    +0.000 C 
BRANCH  19  21
ATOM     20  C   UNL     1       8.112   6.081  19.328  0.00  0.00    +0.000 C 
ATOM     21  C   UNL     1       7.236   6.469  18.131  0.00  0.00    +0.000 C 
ATOM     22  C   UNL     1       7.748   7.821  17.610  0.00  0.00    +0.000 C 
ENDBRANCH  19  21
ENDBRANCH  11  19
ENDBRANCH   9  11
ENDBRANCH   8   9
ENDBRANCH   7   8
ENDBRANCH   1   7
BRANCH   4  23
ATOM     23  O   UNL     1       1.068   9.879  20.072  0.00  0.00    +0.000 OA
BRANCH  23  24
ATOM     24  C   UNL     1       1.024  10.812  18.974  0.00  0.00    +0.000 C 
ATOM     25  O   UNL     1       1.696  12.028  19.317  0.00  0.00    +0.000 OA
ATOM     26  C   UNL     1       1.340  13.117  18.459  0.00  0.00    +0.000 C 
ATOM     27  C   UNL     1      -0.074  13.503  18.861  0.00  0.00    +0.000 C 
ATOM     28  C   UNL     1      -1.016  12.387  18.421  0.00  0.00    +0.000 C 
ATOM     29  C   UNL     1      -0.502  10.964  18.679  0.00  0.00    +0.000 C 
BRANCH  29  30
ATOM     30  O   UNL     1      -0.834  10.183  17.507  0.00  0.00    +0.000 OA
ATOM     31  H   UNL     1      -0.622   9.253  17.698  0.00  0.00    +0.000 HD
ENDBRANCH  29  30
BRANCH  28  32
ATOM     32  O   UNL     1      -2.292  12.599  19.060  0.00  0.00    +0.000 OA
ATOM     33  H   UNL     1      -2.531  13.537  18.961  0.00  0.00    +0.000 HD
ENDBRANCH  28  32
BRANCH  27  34
ATOM     34  O   UNL     1      -0.481  14.738  18.268  0.00  0.00    +0.000 OA
ATOM     35  H   UNL     1      -0.105  14.763  17.367  0.00  0.00    +0.000 HD
ENDBRANCH  27  34
BRANCH  26  36
ATOM     36  C   UNL     1       2.296  14.303  18.628  0.00  0.00    +0.000 C 
BRANCH  36  37
ATOM     37  O   UNL     1       2.563  14.548  20.010  0.00  0.00    +0.000 OA
ATOM     38  H   UNL     1       1.762  14.282  20.492  0.00  0.00    +0.000 HD
ENDBRANCH  36  37
ENDBRANCH  26  36
ENDBRANCH  23  24
ENDBRANCH   4  23
TORSDOF 17
ENDMDL
MODEL 8
REMARK VINA RESULT:      -7.0      2.784      4.090
REMARK  Name = 
REMARK  19 active torsions:
REMARK  status: ('A' for Active; 'I' for Inactive)
REMARK    1  A    between atoms: C_1  and  C_2
REMARK    2  A    between atoms: C_2  and  C_3
REMARK    3  A    between atoms: C_2  and  C_4
REMARK    4  A    between atoms: C_4  and  C_5
REMARK    5  A    between atoms: C_5  and  O_6
REMARK    6  A    between atoms: C_5  and  C_7
REMARK    7  A    between atoms: C_5  and  C_11
REMARK    8  A    between atoms: C_7  and  C_8
REMARK    9  A    between atoms: C_8  and  O_10
REMARK   10  A    between atoms: C_11  and  O_13
REMARK   11  A    between atoms: O_13  and  C_14
REMARK   12  A    between atoms: C_14  and  C_15
REMARK   13  A    between atoms: C_18  and  O_19
REMARK   14  A    between atoms: O_19  and  C_20
REMARK   15  A    between atoms: C_22  and  C_23
REMARK   16  A    between atoms: C_23  and  O_24
REMARK   17  A    between atoms: C_25  and  O_26
REMARK   18  A    between atoms: C_27  and  O_28
REMARK   19  A    between atoms: C_29  and  O_30
REMARK                            x       y       z     vdW  Elec       q    Type
REMARK                         _______ _______ _______ _____ _____    ______ ____
ROOT
ATOM      1  C   UNL     1       2.552   5.864  18.707  0.00  0.00    +0.000 A 
ATOM      2  C   UNL     1       2.538   7.136  18.135  0.00  0.00    +0.000 A 
ATOM      3  C   UNL     1       2.100   8.224  18.878  0.00  0.00    +0.000 A 
ATOM      4  C   UNL     1       1.654   8.066  20.200  0.00  0.00    +0.000 A 
ATOM      5  C   UNL     1       1.647   6.797  20.769  0.00  0.00    +0.000 A 
ATOM      6  C   UNL     1       2.096   5.700  20.025  0.00  0.00    +0.000 A 
ENDROOT
BRANCH   1   7
ATOM      7  C   UNL     1       3.116   4.695  17.942  0.00  0.00    +0.000 C 
BRANCH   7   8
ATOM      8  O   UNL     1       4.537   4.696  18.098  0.00  0.00    +0.000 OA
BRANCH   8   9
ATOM      9  C   UNL     1       5.257   4.191  17.059  0.00  0.00    +0.000 C 
ATOM     10  O   UNL     1       5.049   3.110  16.539  0.00  0.00    +0.000 OA
BRANCH   9  11
ATOM     11  C   UNL     1       6.326   5.209  16.583  0.00  0.00    +0.000 C 
BRANCH  11  12
ATOM     12  O   UNL     1       7.632   4.634  16.761  0.00  0.00    +0.000 OA
ATOM     13  H   UNL     1       8.274   5.095  16.195  0.00  0.00    +0.000 HD
ENDBRANCH  11  12
BRANCH  11  14
ATOM     14  C   UNL     1       6.238   6.457  17.473  0.00  0.00    +0.000 C 
BRANCH  14  15
ATOM     15  C   UNL     1       7.541   7.153  17.756  0.00  0.00    +0.000 C 
ATOM     16  O   UNL     1       8.037   7.972  16.996  0.00  0.00    +0.000 OA
BRANCH  15  17
ATOM     17  O   UNL     1       8.148   6.761  18.895  0.00  0.00    +0.000 OA
ATOM     18  H   UNL     1       7.685   6.089  19.433  0.00  0.00    +0.000 HD
ENDBRANCH  15  17
ENDBRANCH  14  15
ENDBRANCH  11  14
BRANCH  11  19
ATOM     19  C   UNL     1       6.107   5.438  15.072  0.00  0.00    +0.000 C 
BRANCH  19  21
ATOM     20  C   UNL     1       5.895   3.711  13.151  0.00  0.00    +0.000 C 
ATOM     21  C   UNL     1       6.829   4.502  14.073  0.00  0.00    +0.000 C 
ATOM     22  C   UNL     1       7.757   5.336  13.175  0.00  0.00    +0.000 C 
ENDBRANCH  19  21
ENDBRANCH  11  19
ENDBRANCH   9  11
ENDBRANCH   8   9
ENDBRANCH   7   8
ENDBRANCH   1   7
BRANCH   4  23
ATOM     23  O   UNL     1       1.288   9.222  20.809  0.00  0.00    +0.000 OA
BRANCH  23  24
ATOM     24  C   UNL     1      -0.089   9.647  20.780  0.00  0.00    +0.000 C 
ATOM     25  O   UNL     1      -0.347  10.449  19.623  0.00  0.00    +0.000 OA
ATOM     26  C   UNL     1      -1.543  11.225  19.745  0.00  0.00    +0.000 C 
ATOM     27  C   UNL     1      -1.209  12.331  20.734  0.00  0.00    +0.000 C 
ATOM     28  C   UNL     1      -1.056  11.703  22.116  0.00  0.00    +0.000 C 
ATOM     29  C   UNL     1      -0.277  10.380  22.146  0.00  0.00    +0.000 C 
BRANCH  29  30
ATOM     30  O   UNL     1      -0.982   9.504  23.057  0.00  0.00    +0.000 OA
ATOM     31  H   UNL     1      -0.758   9.773  23.964  0.00  0.00    +0.000 HD
ENDBRANCH  29  30
BRANCH  28  32
ATOM     32  O   UNL     1      -0.447  12.680  22.987  0.00  0.00    +0.000 OA
ATOM     33  H   UNL     1      -0.008  13.350  22.434  0.00  0.00    +0.000 HD
ENDBRANCH  28  32
BRANCH  27  34
ATOM     34  O   UNL     1      -2.221  13.338  20.773  0.00  0.00    +0.000 OA
ATOM     35  H   UNL     1      -2.390  13.542  21.714  0.00  0.00    +0.000 HD
ENDBRANCH  27  34
BRANCH  26  36
ATOM     36  C   UNL     1      -1.973  11.814  18.397  0.00  0.00    +0.000 C 
BRANCH  36  37
ATOM     37  O   UNL     1      -3.357  12.168  18.415  0.00  0.00    +0.000 OA
ATOM     38  H   UNL     1      -3.653  12.150  17.490  0.00  0.00    +0.000 HD
ENDBRANCH  36  37
ENDBRANCH  26  36
ENDBRANCH  23  24
ENDBRANCH   4  23
TORSDOF 17
ENDMDL
MODEL 9
REMARK VINA RESULT:      -7.0      2.586      4.067
REMARK  Name = 
REMARK  19 active torsions:
REMARK  status: ('A' for Active; 'I' for Inactive)
REMARK    1  A    between atoms: C_1  and  C_2
REMARK    2  A    between atoms: C_2  and  C_3
REMARK    3  A    between atoms: C_2  and  C_4
REMARK    4  A    between atoms: C_4  and  C_5
REMARK    5  A    between atoms: C_5  and  O_6
REMARK    6  A    between atoms: C_5  and  C_7
REMARK    7  A    between atoms: C_5  and  C_11
REMARK    8  A    between atoms: C_7  and  C_8
REMARK    9  A    between atoms: C_8  and  O_10
REMARK   10  A    between atoms: C_11  and  O_13
REMARK   11  A    between atoms: O_13  and  C_14
REMARK   12  A    between atoms: C_14  and  C_15
REMARK   13  A    between atoms: C_18  and  O_19
REMARK   14  A    between atoms: O_19  and  C_20
REMARK   15  A    between atoms: C_22  and  C_23
REMARK   16  A    between atoms: C_23  and  O_24
REMARK   17  A    between atoms: C_25  and  O_26
REMARK   18  A    between atoms: C_27  and  O_28
REMARK   19  A    between atoms: C_29  and  O_30
REMARK                            x       y       z     vdW  Elec       q    Type
REMARK                         _______ _______ _______ _____ _____    ______ ____
ROOT
ATOM      1  C   UNL     1       2.599   4.865  19.120  0.00  0.00    +0.000 A 
ATOM      2  C   UNL     1       2.537   5.843  18.128  0.00  0.00    +0.000 A 
ATOM      3  C   UNL     1       2.189   7.146  18.462  0.00  0.00    +0.000 A 
ATOM      4  C   UNL     1       1.882   7.496  19.786  0.00  0.00    +0.000 A 
ATOM      5  C   UNL     1       1.922   6.519  20.776  0.00  0.00    +0.000 A 
ATOM      6  C   UNL     1       2.281   5.208  20.444  0.00  0.00    +0.000 A 
ENDROOT
BRANCH   1   7
ATOM      7  C   UNL     1       3.070   3.473  18.783  0.00  0.00    +0.000 C 
BRANCH   7   8
ATOM      8  O   UNL     1       4.110   3.572  17.807  0.00  0.00    +0.000 OA
BRANCH   8   9
ATOM      9  C   UNL     1       5.323   3.990  18.262  0.00  0.00    +0.000 C 
ATOM     10  O   UNL     1       5.711   3.858  19.407  0.00  0.00    +0.000 OA
BRANCH   9  11
ATOM     11  C   UNL     1       6.167   4.590  17.107  0.00  0.00    +0.000 C 
BRANCH  11  12
ATOM     12  O   UNL     1       7.547   4.236  17.303  0.00  0.00    +0.000 OA
ATOM     13  H   UNL     1       7.881   3.770  16.518  0.00  0.00    +0.000 HD
ENDBRANCH  11  12
BRANCH  11  14
ATOM     14  C   UNL     1       6.061   6.120  17.173  0.00  0.00    +0.000 C 
BRANCH  14  15
ATOM     15  C   UNL     1       7.311   6.846  17.592  0.00  0.00    +0.000 C 
ATOM     16  O   UNL     1       7.862   7.682  16.892  0.00  0.00    +0.000 OA
BRANCH  15  17
ATOM     17  O   UNL     1       7.806   6.461  18.786  0.00  0.00    +0.000 OA
ATOM     18  H   UNL     1       7.962   7.164  19.448  0.00  0.00    +0.000 HD
ENDBRANCH  15  17
ENDBRANCH  14  15
ENDBRANCH  11  14
BRANCH  11  19
ATOM     19  C   UNL     1       5.688   3.934  15.794  0.00  0.00    +0.000 C 
BRANCH  19  21
ATOM     20  C   UNL     1       7.385   4.987  14.142  0.00  0.00    +0.000 C 
ATOM     21  C   UNL     1       5.916   4.695  14.466  0.00  0.00    +0.000 C 
ATOM     22  C   UNL     1       5.349   3.868  13.302  0.00  0.00    +0.000 C 
ENDBRANCH  19  21
ENDBRANCH  11  19
ENDBRANCH   9  11
ENDBRANCH   8   9
ENDBRANCH   7   8
ENDBRANCH   1   7
BRANCH   4  23
ATOM     23  O   UNL     1       1.592   8.810  19.965  0.00  0.00    +0.000 OA
BRANCH  23  24
ATOM     24  C   UNL     1       0.218   9.245  20.007  0.00  0.00    +0.000 C 
ATOM     25  O   UNL     1       0.037  10.426  19.219  0.00  0.00    +0.000 OA
ATOM     26  C   UNL     1      -1.167  11.127  19.543  0.00  0.00    +0.000 C 
ATOM     27  C   UNL     1      -0.906  11.778  20.893  0.00  0.00    +0.000 C 
ATOM     28  C   UNL     1      -0.845  10.677  21.947  0.00  0.00    +0.000 C 
ATOM     29  C   UNL     1      -0.066   9.421  21.533  0.00  0.00    +0.000 C 
BRANCH  29  30
ATOM     30  O   UNL     1      -0.829   8.285  22.003  0.00  0.00    +0.000 OA
ATOM     31  H   UNL     1      -1.768   8.538  22.012  0.00  0.00    +0.000 HD
ENDBRANCH  29  30
BRANCH  28  32
ATOM     32  O   UNL     1      -0.301  11.246  23.158  0.00  0.00    +0.000 OA
ATOM     33  H   UNL     1       0.536  10.792  23.357  0.00  0.00    +0.000 HD
ENDBRANCH  28  32
BRANCH  27  34
ATOM     34  O   UNL     1      -1.921  12.721  21.239  0.00  0.00    +0.000 OA
ATOM     35  H   UNL     1      -1.559  13.288  21.948  0.00  0.00    +0.000 HD
ENDBRANCH  27  34
BRANCH  26  36
ATOM     36  C   UNL     1      -1.505  12.185  18.487  0.00  0.00    +0.000 C 
BRANCH  36  37
ATOM     37  O   UNL     1      -0.341  12.548  17.741  0.00  0.00    +0.000 OA
ATOM     38  H   UNL     1      -0.404  13.506  17.590  0.00  0.00    +0.000 HD
ENDBRANCH  36  37
ENDBRANCH  26  36
ENDBRANCH  23  24
ENDBRANCH   4  23
TORSDOF 17
ENDMDL
