MODEL 1
REMARK VINA RESULT:      -8.0      0.000      0.000
REMARK  Name = 
REMARK  9 active torsions:
REMARK  status: ('A' for Active; 'I' for Inactive)
REMARK    1  A    between atoms: C_1  and  O_2
REMARK    2  A    between atoms: O_2  and  C_3
REMARK    3  A    between atoms: C_5  and  C_6
REMARK    4  A    between atoms: C_6  and  C_8
REMARK    5  A    between atoms: C_9  and  C_10
REMARK    6  A    between atoms: C_13  and  O_14
REMARK    7  A    between atoms: O_14  and  C_15
REMARK    8  A    between atoms: C_20  and  O_21
REMARK    9  A    between atoms: O_21  and  C_22
REMARK                            x       y       z     vdW  Elec       q    Type
REMARK                         _______ _______ _______ _____ _____    ______ ____
ROOT
ATOM      1  C   UNL     1       3.367   3.991  17.372  0.00  0.00    +0.000 C 
ATOM      2  O   UNL     1       2.884   2.875  17.231  0.00  0.00    +0.000 OA
ENDROOT
BRANCH   1   5
ATOM      3  C   UNL     1       6.533   4.522  15.405  0.00  0.00    +0.000 A 
ATOM      4  C   UNL     1       5.191   4.311  15.657  0.00  0.00    +0.000 A 
ATOM      5  C   UNL     1       4.783   4.244  16.991  0.00  0.00    +0.000 A 
ATOM      6  C   UNL     1       5.733   4.365  18.010  0.00  0.00    +0.000 A 
ATOM      7  C   UNL     1       7.047   4.576  17.645  0.00  0.00    +0.000 A 
ATOM      8  N   UNL     1       7.457   4.664  16.369  0.00  0.00    +0.000 NA
BRANCH   3  10
ATOM      9  C   UNL     1       6.130   3.753  13.242  0.00  0.00    +0.000 C 
ATOM     10  O   UNL     1       6.933   4.580  14.086  0.00  0.00    +0.000 OA
ENDBRANCH   3  10
BRANCH   7  11
ATOM     11  O   UNL     1       7.979   4.708  18.653  0.00  0.00    +0.000 OA
ATOM     12  C   UNL     1       7.948   6.009  19.248  0.00  0.00    +0.000 C 
ENDBRANCH   7  11
ENDBRANCH   1   5
BRANCH   1  13
ATOM     13  C   UNL     1       2.588   5.124  17.949  0.00  0.00    +0.000 C 
ATOM     14  C   UNL     1       3.121   6.353  17.989  0.00  0.00    +0.000 C 
BRANCH  14  15
ATOM     15  C   UNL     1       2.393   7.488  18.559  0.00  0.00    +0.000 A 
ATOM     16  C   UNL     1       2.060   8.590  17.766  0.00  0.00    +0.000 A 
ATOM     17  C   UNL     1       1.356   9.665  18.319  0.00  0.00    +0.000 A 
ATOM     18  C   UNL     1       0.973   9.662  19.663  0.00  0.00    +0.000 A 
ATOM     19  C   UNL     1       1.313   8.556  20.445  0.00  0.00    +0.000 A 
ATOM     20  F   UNL     1       0.977   8.482  21.742  0.00  0.00    +0.000 F 
ATOM     21  C   UNL     1       2.015   7.477  19.903  0.00  0.00    +0.000 A 
BRANCH  18  22
ATOM     22  O   UNL     1       0.290  10.781  20.060  0.00  0.00    +0.000 OA
ATOM     23  C   UNL     1       1.014  11.745  20.816  0.00  0.00    +0.000 C 
ENDBRANCH  18  22
ENDBRANCH  14  15
ENDBRANCH   1  13
TORSDOF 6
ENDMDL
MODEL 2
REMARK VINA RESULT:      -7.7      1.668      2.004
REMARK  Name = 
REMARK  9 active torsions:
REMARK  status: ('A' for Active; 'I' for Inactive)
REMARK    1  A    between atoms: C_1  and  O_2
REMARK    2  A    between atoms: O_2  and  C_3
REMARK    3  A    between atoms: C_5  and  C_6
REMARK    4  A    between atoms: C_6  and  C_8
REMARK    5  A    between atoms: C_9  and  C_10
REMARK    6  A    between atoms: C_13  and  O_14
REMARK    7  A    between atoms: O_14  and  C_15
REMARK    8  A    between atoms: C_20  and  O_21
REMARK    9  A    between atoms: O_21  and  C_22
REMARK                            x       y       z     vdW  Elec       q    Type
REMARK                         _______ _______ _______ _____ _____    ______ ____
ROOT
ATOM      1  C   UNL     1       3.606   5.038  17.737  0.00  0.00    +0.000 C 
ATOM      2  O   UNL     1       3.070   3.989  17.402  0.00  0.00    +0.000 OA
ENDROOT
BRANCH   1   5
ATOM      3  C   UNL     1       6.578   5.420  15.457  0.00  0.00    +0.000 A 
ATOM      4  C   UNL     1       5.314   5.054  15.879  0.00  0.00    +0.000 A 
ATOM      5  C   UNL     1       4.933   5.408  17.175  0.00  0.00    +0.000 A 
ATOM      6  C   UNL     1       5.836   6.089  17.997  0.00  0.00    +0.000 A 
ATOM      7  C   UNL     1       7.073   6.408  17.473  0.00  0.00    +0.000 A 
ATOM      8  N   UNL     1       7.451   6.094  16.223  0.00  0.00    +0.000 NA
BRANCH   3  10
ATOM      9  C   UNL     1       6.204   3.946  13.690  0.00  0.00    +0.000 C 
ATOM     10  O   UNL     1       6.953   5.061  14.179  0.00  0.00    +0.000 OA
ENDBRANCH   3  10
BRANCH   7  11
ATOM     11  O   UNL     1       7.956   7.090  18.283  0.00  0.00    +0.000 OA
ATOM     12  C   UNL     1       8.120   8.452  17.873  0.00  0.00    +0.000 C 
ENDBRANCH   7  11
ENDBRANCH   1   5
BRANCH   1  13
ATOM     13  C   UNL     1       2.987   5.962  18.729  0.00  0.00    +0.000 C 
ATOM     14  C   UNL     1       2.479   7.136  18.325  0.00  0.00    +0.000 C 
BRANCH  14  15
ATOM     15  C   UNL     1       1.873   8.075  19.270  0.00  0.00    +0.000 A 
ATOM     16  C   UNL     1       1.722   7.733  20.616  0.00  0.00    +0.000 A 
ATOM     17  C   UNL     1       1.149   8.642  21.513  0.00  0.00    +0.000 A 
ATOM     18  C   UNL     1       0.720   9.902  21.086  0.00  0.00    +0.000 A 
ATOM     19  C   UNL     1       0.875  10.232  19.737  0.00  0.00    +0.000 A 
ATOM     20  F   UNL     1       0.488  11.423  19.257  0.00  0.00    +0.000 F 
ATOM     21  C   UNL     1       1.446   9.332  18.835  0.00  0.00    +0.000 A 
BRANCH  18  22
ATOM     22  O   UNL     1       0.181  10.681  22.075  0.00  0.00    +0.000 OA
ATOM     23  C   UNL     1      -0.514  10.011  23.119  0.00  0.00    +0.000 C 
ENDBRANCH  18  22
ENDBRANCH  14  15
ENDBRANCH   1  13
TORSDOF 6
ENDMDL
MODEL 3
REMARK VINA RESULT:      -7.6      1.231      1.606
REMARK  Name = 
REMARK  9 active torsions:
REMARK  status: ('A' for Active; 'I' for Inactive)
REMARK    1  A    between atoms: C_1  and  O_2
REMARK    2  A    between atoms: O_2  and  C_3
REMARK    3  A    between atoms: C_5  and  C_6
REMARK    4  A    between atoms: C_6  and  C_8
REMARK    5  A    between atoms: C_9  and  C_10
REMARK    6  A    between atoms: C_13  and  O_14
REMARK    7  A    between atoms: O_14  and  C_15
REMARK    8  A    between atoms: C_20  and  O_21
REMARK    9  A    between atoms: O_21  and  C_22
REMARK                            x       y       z     vdW  Elec       q    Type
REMARK                         _______ _______ _______ _____ _____    ______ ____
ROOT
ATOM      1  C   UNL     1       3.331   4.582  17.539  0.00  0.00    +0.000 C 
ATOM      2  O   UNL     1       2.646   3.672  17.090  0.00  0.00    +0.000 OA
ENDROOT
BRANCH   1   5
ATOM      3  C   UNL     1       6.475   4.979  15.507  0.00  0.00    +0.000 A 
ATOM      4  C   UNL     1       5.126   4.893  15.792  0.00  0.00    +0.000 A 
ATOM      5  C   UNL     1       4.754   4.716  17.127  0.00  0.00    +0.000 A 
ATOM      6  C   UNL     1       5.742   4.610  18.110  0.00  0.00    +0.000 A 
ATOM      7  C   UNL     1       7.061   4.714  17.714  0.00  0.00    +0.000 A 
ATOM      8  N   UNL     1       7.439   4.903  16.439  0.00  0.00    +0.000 NA
BRANCH   3  10
ATOM      9  C   UNL     1       6.504   4.009  13.388  0.00  0.00    +0.000 C 
ATOM     10  O   UNL     1       6.838   5.145  14.187  0.00  0.00    +0.000 OA
ENDBRANCH   3  10
BRANCH   7  11
ATOM     11  O   UNL     1       8.032   4.621  18.688  0.00  0.00    +0.000 OA
ATOM     12  C   UNL     1       8.038   5.762  19.553  0.00  0.00    +0.000 C 
ENDBRANCH   7  11
ENDBRANCH   1   5
BRANCH   1  13
ATOM     13  C   UNL     1       2.794   5.563  18.524  0.00  0.00    +0.000 C 
ATOM     14  C   UNL     1       2.475   6.804  18.129  0.00  0.00    +0.000 C 
BRANCH  14  15
ATOM     15  C   UNL     1       1.957   7.800  19.069  0.00  0.00    +0.000 A 
ATOM     16  C   UNL     1       1.857   7.506  20.432  0.00  0.00    +0.000 A 
ATOM     17  C   UNL     1       1.368   8.468  21.323  0.00  0.00    +0.000 A 
ATOM     18  C   UNL     1       0.975   9.733  20.875  0.00  0.00    +0.000 A 
ATOM     19  C   UNL     1       1.079  10.013  19.511  0.00  0.00    +0.000 A 
ATOM     20  F   UNL     1       0.722  11.205  19.009  0.00  0.00    +0.000 F 
ATOM     21  C   UNL     1       1.565   9.060  18.613  0.00  0.00    +0.000 A 
BRANCH  18  22
ATOM     22  O   UNL     1       0.519  10.566  21.862  0.00  0.00    +0.000 OA
ATOM     23  C   UNL     1      -0.476  10.049  22.737  0.00  0.00    +0.000 C 
ENDBRANCH  18  22
ENDBRANCH  14  15
ENDBRANCH   1  13
TORSDOF 6
ENDMDL
MODEL 4
REMARK VINA RESULT:      -7.5      1.073      2.961
REMARK  Name = 
REMARK  9 active torsions:
REMARK  status: ('A' for Active; 'I' for Inactive)
REMARK    1  A    between atoms: C_1  and  O_2
REMARK    2  A    between atoms: O_2  and  C_3
REMARK    3  A    between atoms: C_5  and  C_6
REMARK    4  A    between atoms: C_6  and  C_8
REMARK    5  A    between atoms: C_9  and  C_10
REMARK    6  A    between atoms: C_13  and  O_14
REMARK    7  A    between atoms: O_14  and  C_15
REMARK    8  A    between atoms: C_20  and  O_21
REMARK    9  A    between atoms: O_21  and  C_22
REMARK                            x       y       z     vdW  Elec       q    Type
REMARK                         _______ _______ _______ _____ _____    ______ ____
ROOT
ATOM      1  C   UNL     1       3.180   4.132  17.402  0.00  0.00    +0.000 C 
ATOM      2  O   UNL     1       2.560   3.161  16.988  0.00  0.00    +0.000 OA
ENDROOT
BRANCH   1   5
ATOM      3  C   UNL     1       6.889   4.628  17.815  0.00  0.00    +0.000 A 
ATOM      4  C   UNL     1       5.557   4.508  18.163  0.00  0.00    +0.000 A 
ATOM      5  C   UNL     1       4.640   4.251  17.141  0.00  0.00    +0.000 A 
ATOM      6  C   UNL     1       5.088   4.149  15.821  0.00  0.00    +0.000 A 
ATOM      7  C   UNL     1       6.442   4.284  15.587  0.00  0.00    +0.000 A 
ATOM      8  N   UNL     1       7.343   4.511  16.557  0.00  0.00    +0.000 NA
BRANCH   3  10
ATOM      9  C   UNL     1       8.000   6.291  19.013  0.00  0.00    +0.000 C 
ATOM     10  O   UNL     1       7.790   4.890  18.826  0.00  0.00    +0.000 OA
ENDBRANCH   3  10
BRANCH   7  11
ATOM     11  O   UNL     1       6.882   4.171  14.285  0.00  0.00    +0.000 OA
ATOM     12  C   UNL     1       5.820   3.844  13.383  0.00  0.00    +0.000 C 
ENDBRANCH   7  11
ENDBRANCH   1   5
BRANCH   1  13
ATOM     13  C   UNL     1       2.524   5.207  18.200  0.00  0.00    +0.000 C 
ATOM     14  C   UNL     1       2.850   6.490  17.991  0.00  0.00    +0.000 C 
BRANCH  14  15
ATOM     15  C   UNL     1       2.238   7.573  18.762  0.00  0.00    +0.000 A 
ATOM     16  C   UNL     1       1.975   7.415  20.126  0.00  0.00    +0.000 A 
ATOM     17  C   UNL     1       1.397   8.460  20.856  0.00  0.00    +0.000 A 
ATOM     18  C   UNL     1       1.073   9.675  20.244  0.00  0.00    +0.000 A 
ATOM     19  C   UNL     1       1.339   9.820  18.880  0.00  0.00    +0.000 A 
ATOM     20  F   UNL     1       1.057  10.956  18.226  0.00  0.00    +0.000 F 
ATOM     21  C   UNL     1       1.916   8.783  18.142  0.00  0.00    +0.000 A 
BRANCH  18  22
ATOM     22  O   UNL     1       0.516  10.601  21.084  0.00  0.00    +0.000 OA
ATOM     23  C   UNL     1      -0.857  10.914  20.882  0.00  0.00    +0.000 C 
ENDBRANCH  18  22
ENDBRANCH  14  15
ENDBRANCH   1  13
TORSDOF 6
ENDMDL
MODEL 5
REMARK VINA RESULT:      -7.4      4.942      6.917
REMARK  Name = 
REMARK  9 active torsions:
REMARK  status: ('A' for Active; 'I' for Inactive)
REMARK    1  A    between atoms: C_1  and  O_2
REMARK    2  A    between atoms: O_2  and  C_3
REMARK    3  A    between atoms: C_5  and  C_6
REMARK    4  A    between atoms: C_6  and  C_8
REMARK    5  A    between atoms: C_9  and  C_10
REMARK    6  A    between atoms: C_13  and  O_14
REMARK    7  A    between atoms: O_14  and  C_15
REMARK    8  A    between atoms: C_20  and  O_21
REMARK    9  A    between atoms: O_21  and  C_22
REMARK                            x       y       z     vdW  Elec       q    Type
REMARK                         _______ _______ _______ _____ _____    ______ ____
ROOT
ATOM      1  C   UNL     1       7.372   6.860  17.293  0.00  0.00    +0.000 C 
ATOM      2  O   UNL     1       7.735   6.530  16.171  0.00  0.00    +0.000 OA
ENDROOT
BRANCH   1   5
ATOM      3  C   UNL     1       5.095   4.446  19.072  0.00  0.00    +0.000 A 
ATOM      4  C   UNL     1       6.261   4.977  18.555  0.00  0.00    +0.000 A 
ATOM      5  C   UNL     1       6.182   6.214  17.910  0.00  0.00    +0.000 A 
ATOM      6  C   UNL     1       4.944   6.851  17.790  0.00  0.00    +0.000 A 
ATOM      7  C   UNL     1       3.842   6.232  18.346  0.00  0.00    +0.000 A 
ATOM      8  N   UNL     1       3.900   5.053  18.988  0.00  0.00    +0.000 NA
BRANCH   3  10
ATOM      9  C   UNL     1       4.006   2.429  19.493  0.00  0.00    +0.000 C 
ATOM     10  O   UNL     1       5.176   3.221  19.701  0.00  0.00    +0.000 OA
ENDBRANCH   3  10
BRANCH   7  11
ATOM     11  O   UNL     1       2.625   6.869  18.236  0.00  0.00    +0.000 OA
ATOM     12  C   UNL     1       2.153   7.351  19.499  0.00  0.00    +0.000 C 
ENDBRANCH   7  11
ENDBRANCH   1   5
BRANCH   1  13
ATOM     13  C   UNL     1       8.069   7.924  18.069  0.00  0.00    +0.000 C 
ATOM     14  C   UNL     1       8.039   9.194  17.641  0.00  0.00    +0.000 C 
BRANCH  14  15
ATOM     15  C   UNL     1       8.721  10.266  18.369  0.00  0.00    +0.000 A 
ATOM     16  C   UNL     1       9.279  10.027  19.628  0.00  0.00    +0.000 A 
ATOM     17  C   UNL     1       9.936  11.056  20.312  0.00  0.00    +0.000 A 
ATOM     18  C   UNL     1      10.049  12.334  19.757  0.00  0.00    +0.000 A 
ATOM     19  C   UNL     1       9.486  12.560  18.498  0.00  0.00    +0.000 A 
ATOM     20  F   UNL     1       9.557  13.760  17.903  0.00  0.00    +0.000 F 
ATOM     21  C   UNL     1       8.828  11.540  17.807  0.00  0.00    +0.000 A 
BRANCH  18  22
ATOM     22  O   UNL     1      10.718  13.235  20.541  0.00  0.00    +0.000 OA
ATOM     23  C   UNL     1       9.944  13.980  21.474  0.00  0.00    +0.000 C 
ENDBRANCH  18  22
ENDBRANCH  14  15
ENDBRANCH   1  13
TORSDOF 6
ENDMDL
MODEL 6
REMARK VINA RESULT:      -7.4      1.136      1.136
REMARK  Name = 
REMARK  9 active torsions:
REMARK  status: ('A' for Active; 'I' for Inactive)
REMARK    1  A    between atoms: C_1  and  O_2
REMARK    2  A    between atoms: O_2  and  C_3
REMARK    3  A    between atoms: C_5  and  C_6
REMARK    4  A    between atoms: C_6  and  C_8
REMARK    5  A    between atoms: C_9  and  C_10
REMARK    6  A    between atoms: C_13  and  O_14
REMARK    7  A    between atoms: O_14  and  C_15
REMARK    8  A    between atoms: C_20  and  O_21
REMARK    9  A    between atoms: O_21  and  C_22
REMARK                            x       y       z     vdW  Elec       q    Type
REMARK                         _______ _______ _______ _____ _____    ______ ____
ROOT
ATOM      1  C   UNL     1       3.942   4.512  17.894  0.00  0.00    +0.000 C 
ATOM      2  O   UNL     1       3.726   3.308  17.947  0.00  0.00    +0.000 OA
ENDROOT
BRANCH   1   5
ATOM      3  C   UNL     1       6.808   5.166  15.541  0.00  0.00    +0.000 A 
ATOM      4  C   UNL     1       5.603   4.670  15.999  0.00  0.00    +0.000 A 
ATOM      5  C   UNL     1       5.207   5.016  17.294  0.00  0.00    +0.000 A 
ATOM      6  C   UNL     1       6.040   5.818  18.077  0.00  0.00    +0.000 A 
ATOM      7  C   UNL     1       7.222   6.262  17.519  0.00  0.00    +0.000 A 
ATOM      8  N   UNL     1       7.612   5.957  16.269  0.00  0.00    +0.000 NA
BRANCH   3  10
ATOM      9  C   UNL     1       6.241   3.974  13.620  0.00  0.00    +0.000 C 
ATOM     10  O   UNL     1       7.198   4.815  14.265  0.00  0.00    +0.000 OA
ENDBRANCH   3  10
BRANCH   7  11
ATOM     11  O   UNL     1       8.036   7.064  18.291  0.00  0.00    +0.000 OA
ATOM     12  C   UNL     1       8.063   8.416  17.820  0.00  0.00    +0.000 C 
ENDBRANCH   7  11
ENDBRANCH   1   5
BRANCH   1  13
ATOM     13  C   UNL     1       2.985   5.513  18.445  0.00  0.00    +0.000 C 
ATOM     14  C   UNL     1       3.138   6.814  18.160  0.00  0.00    +0.000 C 
BRANCH  14  15
ATOM     15  C   UNL     1       2.226   7.828  18.692  0.00  0.00    +0.000 A 
ATOM     16  C   UNL     1       1.650   8.780  17.846  0.00  0.00    +0.000 A 
ATOM     17  C   UNL     1       0.773   9.740  18.363  0.00  0.00    +0.000 A 
ATOM     18  C   UNL     1       0.455   9.768  19.724  0.00  0.00    +0.000 A 
ATOM     19  C   UNL     1       1.038   8.812  20.559  0.00  0.00    +0.000 A 
ATOM     20  F   UNL     1       0.779   8.777  21.875  0.00  0.00    +0.000 F 
ATOM     21  C   UNL     1       1.915   7.850  20.053  0.00  0.00    +0.000 A 
BRANCH  18  22
ATOM     22  O   UNL     1      -0.416  10.763  20.082  0.00  0.00    +0.000 OA
ATOM     23  C   UNL     1      -0.005  12.102  19.834  0.00  0.00    +0.000 C 
ENDBRANCH  18  22
ENDBRANCH  14  15
ENDBRANCH   1  13
TORSDOF 6
ENDMDL
MODEL 7
REMARK VINA RESULT:      -7.3      4.872      6.722
REMARK  Name = 
REMARK  9 active torsions:
REMARK  status: ('A' for Active; 'I' for Inactive)
REMARK    1  A    between atoms: C_1  and  O_2
REMARK    2  A    between atoms: O_2  and  C_3
REMARK    3  A    between atoms: C_5  and  C_6
REMARK    4  A    between atoms: C_6  and  C_8
REMARK    5  A    between atoms: C_9  and  C_10
REMARK    6  A    between atoms: C_13  and  O_14
REMARK    7  A    between atoms: O_14  and  C_15
REMARK    8  A    between atoms: C_20  and  O_21
REMARK    9  A    between atoms: O_21  and  C_22
REMARK                            x       y       z     vdW  Elec       q    Type
REMARK                         _______ _______ _______ _____ _____    ______ ____
ROOT
ATOM      1  C   UNL     1       7.097   6.838  17.140  0.00  0.00    +0.000 C 
ATOM      2  O   UNL     1       7.787   6.213  16.345  0.00  0.00    +0.000 OA
ENDROOT
BRANCH   1   5
ATOM      3  C   UNL     1       3.586   6.155  18.317  0.00  0.00    +0.000 A 
ATOM      4  C   UNL     1       4.637   6.812  17.705  0.00  0.00    +0.000 A 
ATOM      5  C   UNL     1       5.893   6.202  17.742  0.00  0.00    +0.000 A 
ATOM      6  C   UNL     1       6.048   4.981  18.404  0.00  0.00    +0.000 A 
ATOM      7  C   UNL     1       4.930   4.411  18.978  0.00  0.00    +0.000 A 
ATOM      8  N   UNL     1       3.709   4.971  18.937  0.00  0.00    +0.000 NA
BRANCH   3  10
ATOM      9  C   UNL     1       2.433   8.139  17.904  0.00  0.00    +0.000 C 
ATOM     10  O   UNL     1       2.349   6.765  18.286  0.00  0.00    +0.000 OA
ENDBRANCH   3  10
BRANCH   7  11
ATOM     11  O   UNL     1       5.084   3.200  19.619  0.00  0.00    +0.000 OA
ATOM     12  C   UNL     1       3.832   2.657  20.053  0.00  0.00    +0.000 C 
ENDBRANCH   7  11
ENDBRANCH   1   5
BRANCH   1  13
ATOM     13  C   UNL     1       7.401   8.248  17.514  0.00  0.00    +0.000 C 
ATOM     14  C   UNL     1       8.502   8.530  18.224  0.00  0.00    +0.000 C 
BRANCH  14  15
ATOM     15  C   UNL     1       8.829   9.901  18.621  0.00  0.00    +0.000 A 
ATOM     16  C   UNL     1       9.423  10.161  19.859  0.00  0.00    +0.000 A 
ATOM     17  C   UNL     1       9.739  11.474  20.225  0.00  0.00    +0.000 A 
ATOM     18  C   UNL     1       9.472  12.546  19.368  0.00  0.00    +0.000 A 
ATOM     19  C   UNL     1       8.878  12.273  18.133  0.00  0.00    +0.000 A 
ATOM     20  F   UNL     1       8.594  13.250  17.260  0.00  0.00    +0.000 F 
ATOM     21  C   UNL     1       8.558  10.966  17.759  0.00  0.00    +0.000 A 
BRANCH  18  22
ATOM     22  O   UNL     1       9.837  13.770  19.862  0.00  0.00    +0.000 OA
ATOM     23  C   UNL     1      11.004  14.367  19.310  0.00  0.00    +0.000 C 
ENDBRANCH  18  22
ENDBRANCH  14  15
ENDBRANCH   1  13
TORSDOF 6
ENDMDL
MODEL 8
REMARK VINA RESULT:      -7.3      1.530      2.968
REMARK  Name = 
REMARK  9 active torsions:
REMARK  status: ('A' for Active; 'I' for Inactive)
REMARK    1  A    between atoms: C_1  and  O_2
REMARK    2  A    between atoms: O_2  and  C_3
REMARK    3  A    between atoms: C_5  and  C_6
REMARK    4  A    between atoms: C_6  and  C_8
REMARK    5  A    between atoms: C_9  and  C_10
REMARK    6  A    between atoms: C_13  and  O_14
REMARK    7  A    between atoms: O_14  and  C_15
REMARK    8  A    between atoms: C_20  and  O_21
REMARK    9  A    between atoms: O_21  and  C_22
REMARK                            x       y       z     vdW  Elec       q    Type
REMARK                         _______ _______ _______ _____ _____    ______ ____
ROOT
ATOM      1  C   UNL     1       3.477   5.448  17.720  0.00  0.00    +0.000 C 
ATOM      2  O   UNL     1       3.043   4.305  17.787  0.00  0.00    +0.000 OA
ENDROOT
BRANCH   1   5
ATOM      3  C   UNL     1       7.063   6.562  17.450  0.00  0.00    +0.000 A 
ATOM      4  C   UNL     1       5.814   6.359  18.004  0.00  0.00    +0.000 A 
ATOM      5  C   UNL     1       4.861   5.692  17.230  0.00  0.00    +0.000 A 
ATOM      6  C   UNL     1       5.189   5.280  15.936  0.00  0.00    +0.000 A 
ATOM      7  C   UNL     1       6.469   5.532  15.483  0.00  0.00    +0.000 A 
ATOM      8  N   UNL     1       7.406   6.154  16.218  0.00  0.00    +0.000 NA
BRANCH   3  10
ATOM      9  C   UNL     1       8.064   8.619  17.897  0.00  0.00    +0.000 C 
ATOM     10  O   UNL     1       7.999   7.228  18.215  0.00  0.00    +0.000 OA
ENDBRANCH   3  10
BRANCH   7  11
ATOM     11  O   UNL     1       6.793   5.113  14.210  0.00  0.00    +0.000 OA
ATOM     12  C   UNL     1       6.190   3.856  13.887  0.00  0.00    +0.000 C 
ENDBRANCH   7  11
ENDBRANCH   1   5
BRANCH   1  13
ATOM     13  C   UNL     1       2.670   6.626  18.146  0.00  0.00    +0.000 C 
ATOM     14  C   UNL     1       2.500   6.886  19.451  0.00  0.00    +0.000 C 
BRANCH  14  15
ATOM     15  C   UNL     1       1.705   8.027  19.909  0.00  0.00    +0.000 A 
ATOM     16  C   UNL     1       1.459   9.109  19.060  0.00  0.00    +0.000 A 
ATOM     17  C   UNL     1       0.691  10.191  19.506  0.00  0.00    +0.000 A 
ATOM     18  C   UNL     1       0.155  10.212  20.797  0.00  0.00    +0.000 A 
ATOM     19  C   UNL     1       0.409   9.124  21.636  0.00  0.00    +0.000 A 
ATOM     20  F   UNL     1      -0.073   9.074  22.887  0.00  0.00    +0.000 F 
ATOM     21  C   UNL     1       1.175   8.040  21.201  0.00  0.00    +0.000 A 
BRANCH  18  22
ATOM     22  O   UNL     1      -0.574  11.333  21.089  0.00  0.00    +0.000 OA
ATOM     23  C   UNL     1      -1.516  11.763  20.114  0.00  0.00    +0.000 C 
ENDBRANCH  18  22
ENDBRANCH  14  15
ENDBRANCH   1  13
TORSDOF 6
ENDMDL
MODEL 9
REMARK VINA RESULT:      -7.3      1.037      2.692
REMARK  Name = 
REMARK  9 active torsions:
REMARK  status: ('A' for Active; 'I' for Inactive)
REMARK    1  A    between atoms: C_1  and  O_2
REMARK    2  A    between atoms: O_2  and  C_3
REMARK    3  A    between atoms: C_5  and  C_6
REMARK    4  A    between atoms: C_6  and  C_8
REMARK    5  A    between atoms: C_9  and  C_10
REMARK    6  A    between atoms: C_13  and  O_14
REMARK    7  A    between atoms: O_14  and  C_15
REMARK    8  A    between atoms: C_20  and  O_21
REMARK    9  A    between atoms: O_21  and  C_22
REMARK                            x       y       z     vdW  Elec       q    Type
REMARK                         _______ _______ _______ _____ _____    ______ ____
ROOT
ATOM      1  C   UNL     1       3.079   4.079  18.833  0.00  0.00    +0.000 C 
ATOM      2  O   UNL     1       2.669   2.983  19.195  0.00  0.00    +0.000 OA
ENDROOT
BRANCH   1   5
ATOM      3  C   UNL     1       6.679   4.487  17.810  0.00  0.00    +0.000 A 
ATOM      4  C   UNL     1       5.577   4.380  18.637  0.00  0.00    +0.000 A 
ATOM      5  C   UNL     1       4.332   4.179  18.037  0.00  0.00    +0.000 A 
ATOM      6  C   UNL     1       4.239   4.119  16.644  0.00  0.00    +0.000 A 
ATOM      7  C   UNL     1       5.405   4.235  15.913  0.00  0.00    +0.000 A 
ATOM      8  N   UNL     1       6.615   4.409  16.471  0.00  0.00    +0.000 NA
BRANCH   3  10
ATOM      9  C   UNL     1       7.864   5.739  19.379  0.00  0.00    +0.000 C 
ATOM     10  O   UNL     1       7.905   4.693  18.406  0.00  0.00    +0.000 OA
ENDBRANCH   3  10
BRANCH   7  11
ATOM     11  O   UNL     1       5.311   4.163  14.540  0.00  0.00    +0.000 OA
ATOM     12  C   UNL     1       6.596   4.207  13.909  0.00  0.00    +0.000 C 
ENDBRANCH   7  11
ENDBRANCH   1   5
BRANCH   1  13
ATOM     13  C   UNL     1       2.376   5.344  19.191  0.00  0.00    +0.000 C 
ATOM     14  C   UNL     1       2.750   6.501  18.625  0.00  0.00    +0.000 C 
BRANCH  14  15
ATOM     15  C   UNL     1       2.093   7.766  18.959  0.00  0.00    +0.000 A 
ATOM     16  C   UNL     1       1.885   8.740  17.979  0.00  0.00    +0.000 A 
ATOM     17  C   UNL     1       1.249   9.942  18.307  0.00  0.00    +0.000 A 
ATOM     18  C   UNL     1       0.810  10.193  19.611  0.00  0.00    +0.000 A 
ATOM     19  C   UNL     1       1.025   9.212  20.581  0.00  0.00    +0.000 A 
ATOM     20  F   UNL     1       0.630   9.383  21.852  0.00  0.00    +0.000 F 
ATOM     21  C   UNL     1       1.659   8.009  20.265  0.00  0.00    +0.000 A 
BRANCH  18  22
ATOM     22  O   UNL     1       0.205  11.410  19.779  0.00  0.00    +0.000 OA
ATOM     23  C   UNL     1      -1.216  11.422  19.850  0.00  0.00    +0.000 C 
ENDBRANCH  18  22
ENDBRANCH  14  15
ENDBRANCH   1  13
TORSDOF 6
ENDMDL
