MODEL 1
REMARK VINA RESULT:      -8.0      0.000      0.000
REMARK  Name = 
REMARK  1 active torsions:
REMARK  status: ('A' for Active; 'I' for Inactive)
REMARK    1  A    between atoms: C_17  and  C_18
REMARK                            x       y       z     vdW  Elec       q    Type
REMARK                         _______ _______ _______ _____ _____    ______ ____
ROOT
ATOM      1  O   UNL     1       5.841   4.676  19.915  0.00  0.00    +0.000 OA
ATOM      2  C   UNL     1       4.918   4.862  19.127  0.00  0.00    +0.000 C 
ATOM      3  C   UNL     1       3.787   3.912  19.112  0.00  0.00    +0.000 A 
ATOM      4  C   UNL     1       4.077   2.572  18.822  0.00  0.00    +0.000 A 
ATOM      5  C   UNL     1       3.035   1.664  18.659  0.00  0.00    +0.000 A 
ATOM      6  C   UNL     1       1.718   2.092  18.807  0.00  0.00    +0.000 A 
ATOM      7  C   UNL     1       1.441   3.423  19.141  0.00  0.00    +0.000 A 
ATOM      8  C   UNL     1       2.472   4.363  19.307  0.00  0.00    +0.000 A 
ATOM      9  C   UNL     1       2.176   5.760  19.680  0.00  0.00    +0.000 A 
ATOM     10  C   UNL     1       1.341   6.048  20.774  0.00  0.00    +0.000 A 
ATOM     11  C   UNL     1       1.053   7.367  21.144  0.00  0.00    +0.000 A 
ATOM     12  C   UNL     1       1.586   8.432  20.419  0.00  0.00    +0.000 A 
ATOM     13  C   UNL     1       2.409   8.176  19.328  0.00  0.00    +0.000 A 
ATOM     14  C   UNL     1       2.710   6.852  18.977  0.00  0.00    +0.000 A 
ATOM     15  C   UNL     1       3.600   6.647  17.817  0.00  0.00    +0.000 C 
ATOM     16  O   UNL     1       3.268   7.169  16.753  0.00  0.00    +0.000 OA
ATOM     17  C   UNL     1       4.930   5.949  18.065  0.00  0.00    +0.000 C 
ENDROOT
BRANCH  17  18
ATOM     18  C   UNL     1       5.567   5.438  16.777  0.00  0.00    +0.000 A 
ATOM     19  C   UNL     1       6.899   5.754  16.474  0.00  0.00    +0.000 A 
ATOM     20  C   UNL     1       7.483   5.303  15.287  0.00  0.00    +0.000 A 
ATOM     21  C   UNL     1       6.751   4.516  14.402  0.00  0.00    +0.000 A 
ATOM     22  C   UNL     1       5.432   4.182  14.696  0.00  0.00    +0.000 A 
ATOM     23  C   UNL     1       4.839   4.648  15.868  0.00  0.00    +0.000 A 
ENDBRANCH  17  18
TORSDOF 1
ENDMDL
MODEL 2
REMARK VINA RESULT:      -8.0      0.027      1.007
REMARK  Name = 
REMARK  1 active torsions:
REMARK  status: ('A' for Active; 'I' for Inactive)
REMARK    1  A    between atoms: C_17  and  C_18
REMARK                            x       y       z     vdW  Elec       q    Type
REMARK                         _______ _______ _______ _____ _____    ______ ____
ROOT
ATOM      1  O   UNL     1       5.845   4.670  19.935  0.00  0.00    +0.000 OA
ATOM      2  C   UNL     1       4.924   4.858  19.144  0.00  0.00    +0.000 C 
ATOM      3  C   UNL     1       3.796   3.904  19.120  0.00  0.00    +0.000 A 
ATOM      4  C   UNL     1       4.092   2.566  18.825  0.00  0.00    +0.000 A 
ATOM      5  C   UNL     1       3.054   1.655  18.653  0.00  0.00    +0.000 A 
ATOM      6  C   UNL     1       1.734   2.079  18.799  0.00  0.00    +0.000 A 
ATOM      7  C   UNL     1       1.451   3.407  19.138  0.00  0.00    +0.000 A 
ATOM      8  C   UNL     1       2.479   4.350  19.313  0.00  0.00    +0.000 A 
ATOM      9  C   UNL     1       2.177   5.743  19.692  0.00  0.00    +0.000 A 
ATOM     10  C   UNL     1       1.337   6.023  20.785  0.00  0.00    +0.000 A 
ATOM     11  C   UNL     1       1.043   7.339  21.160  0.00  0.00    +0.000 A 
ATOM     12  C   UNL     1       1.575   8.409  20.442  0.00  0.00    +0.000 A 
ATOM     13  C   UNL     1       2.403   8.162  19.353  0.00  0.00    +0.000 A 
ATOM     14  C   UNL     1       2.710   6.841  18.996  0.00  0.00    +0.000 A 
ATOM     15  C   UNL     1       3.604   6.645  17.839  0.00  0.00    +0.000 C 
ATOM     16  O   UNL     1       3.275   7.170  16.776  0.00  0.00    +0.000 OA
ATOM     17  C   UNL     1       4.936   5.950  18.088  0.00  0.00    +0.000 C 
ENDROOT
BRANCH  17  18
ATOM     18  C   UNL     1       5.580   5.448  16.800  0.00  0.00    +0.000 A 
ATOM     19  C   UNL     1       4.852   4.642  15.913  0.00  0.00    +0.000 A 
ATOM     20  C   UNL     1       5.443   4.165  14.739  0.00  0.00    +0.000 A 
ATOM     21  C   UNL     1       6.758   4.506  14.430  0.00  0.00    +0.000 A 
ATOM     22  C   UNL     1       7.488   5.317  15.293  0.00  0.00    +0.000 A 
ATOM     23  C   UNL     1       6.909   5.776  16.475  0.00  0.00    +0.000 A 
ENDBRANCH  17  18
TORSDOF 1
ENDMDL
MODEL 3
REMARK VINA RESULT:      -7.9      1.453      5.349
REMARK  Name = 
REMARK  1 active torsions:
REMARK  status: ('A' for Active; 'I' for Inactive)
REMARK    1  A    between atoms: C_17  and  C_18
REMARK                            x       y       z     vdW  Elec       q    Type
REMARK                         _______ _______ _______ _____ _____    ______ ____
ROOT
ATOM      1  O   UNL     1       0.955   4.705  17.231  0.00  0.00    +0.000 OA
ATOM      2  C   UNL     1       2.011   5.063  17.747  0.00  0.00    +0.000 C 
ATOM      3  C   UNL     1       2.732   4.123  18.628  0.00  0.00    +0.000 A 
ATOM      4  C   UNL     1       2.058   3.662  19.767  0.00  0.00    +0.000 A 
ATOM      5  C   UNL     1       2.738   2.886  20.701  0.00  0.00    +0.000 A 
ATOM      6  C   UNL     1       4.074   2.558  20.482  0.00  0.00    +0.000 A 
ATOM      7  C   UNL     1       4.725   2.984  19.318  0.00  0.00    +0.000 A 
ATOM      8  C   UNL     1       4.065   3.773  18.360  0.00  0.00    +0.000 A 
ATOM      9  C   UNL     1       4.750   4.203  17.126  0.00  0.00    +0.000 A 
ATOM     10  C   UNL     1       5.425   3.269  16.319  0.00  0.00    +0.000 A 
ATOM     11  C   UNL     1       6.076   3.659  15.143  0.00  0.00    +0.000 A 
ATOM     12  C   UNL     1       6.076   4.997  14.751  0.00  0.00    +0.000 A 
ATOM     13  C   UNL     1       5.423   5.942  15.533  0.00  0.00    +0.000 A 
ATOM     14  C   UNL     1       4.755   5.541  16.699  0.00  0.00    +0.000 A 
ATOM     15  C   UNL     1       4.070   6.589  17.479  0.00  0.00    +0.000 C 
ATOM     16  O   UNL     1       4.742   7.554  17.840  0.00  0.00    +0.000 OA
ATOM     17  C   UNL     1       2.559   6.476  17.637  0.00  0.00    +0.000 C 
ENDROOT
BRANCH  17  18
ATOM     18  C   UNL     1       2.025   7.352  18.765  0.00  0.00    +0.000 A 
ATOM     19  C   UNL     1       1.525   8.633  18.489  0.00  0.00    +0.000 A 
ATOM     20  C   UNL     1       1.050   9.447  19.521  0.00  0.00    +0.000 A 
ATOM     21  C   UNL     1       1.049   8.982  20.834  0.00  0.00    +0.000 A 
ATOM     22  C   UNL     1       1.528   7.707  21.122  0.00  0.00    +0.000 A 
ATOM     23  C   UNL     1       2.023   6.901  20.098  0.00  0.00    +0.000 A 
ENDBRANCH  17  18
TORSDOF 1
ENDMDL
MODEL 4
REMARK VINA RESULT:      -7.8      1.454      5.350
REMARK  Name = 
REMARK  1 active torsions:
REMARK  status: ('A' for Active; 'I' for Inactive)
REMARK    1  A    between atoms: C_17  and  C_18
REMARK                            x       y       z     vdW  Elec       q    Type
REMARK                         _______ _______ _______ _____ _____    ______ ____
ROOT
ATOM      1  O   UNL     1       0.949   4.719  17.231  0.00  0.00    +0.000 OA
ATOM      2  C   UNL     1       2.004   5.077  17.750  0.00  0.00    +0.000 C 
ATOM      3  C   UNL     1       2.721   4.137  18.636  0.00  0.00    +0.000 A 
ATOM      4  C   UNL     1       2.041   3.681  19.774  0.00  0.00    +0.000 A 
ATOM      5  C   UNL     1       2.716   2.907  20.713  0.00  0.00    +0.000 A 
ATOM      6  C   UNL     1       4.052   2.575  20.500  0.00  0.00    +0.000 A 
ATOM      7  C   UNL     1       4.709   2.997  19.338  0.00  0.00    +0.000 A 
ATOM      8  C   UNL     1       4.054   3.784  18.375  0.00  0.00    +0.000 A 
ATOM      9  C   UNL     1       4.744   4.209  17.141  0.00  0.00    +0.000 A 
ATOM     10  C   UNL     1       5.420   3.272  16.340  0.00  0.00    +0.000 A 
ATOM     11  C   UNL     1       6.076   3.657  15.165  0.00  0.00    +0.000 A 
ATOM     12  C   UNL     1       6.081   4.994  14.769  0.00  0.00    +0.000 A 
ATOM     13  C   UNL     1       5.426   5.942  15.547  0.00  0.00    +0.000 A 
ATOM     14  C   UNL     1       4.753   5.546  16.711  0.00  0.00    +0.000 A 
ATOM     15  C   UNL     1       4.067   6.598  17.486  0.00  0.00    +0.000 C 
ATOM     16  O   UNL     1       4.741   7.562  17.846  0.00  0.00    +0.000 OA
ATOM     17  C   UNL     1       2.556   6.488  17.638  0.00  0.00    +0.000 C 
ENDROOT
BRANCH  17  18
ATOM     18  C   UNL     1       2.019   7.369  18.761  0.00  0.00    +0.000 A 
ATOM     19  C   UNL     1       2.020   6.906  20.085  0.00  0.00    +0.000 A 
ATOM     20  C   UNL     1       1.513   7.702  21.115  0.00  0.00    +0.000 A 
ATOM     21  C   UNL     1       1.021   8.975  20.839  0.00  0.00    +0.000 A 
ATOM     22  C   UNL     1       1.028   9.454  19.532  0.00  0.00    +0.000 A 
ATOM     23  C   UNL     1       1.512   8.655  18.498  0.00  0.00    +0.000 A 
ENDBRANCH  17  18
TORSDOF 1
ENDMDL
MODEL 5
REMARK VINA RESULT:      -7.7      1.630      3.906
REMARK  Name = 
REMARK  1 active torsions:
REMARK  status: ('A' for Active; 'I' for Inactive)
REMARK    1  A    between atoms: C_17  and  C_18
REMARK                            x       y       z     vdW  Elec       q    Type
REMARK                         _______ _______ _______ _____ _____    ______ ____
ROOT
ATOM      1  O   UNL     1       1.910   3.944  16.528  0.00  0.00    +0.000 OA
ATOM      2  C   UNL     1       2.691   4.321  17.398  0.00  0.00    +0.000 C 
ATOM      3  C   UNL     1       2.389   5.559  18.143  0.00  0.00    +0.000 A 
ATOM      4  C   UNL     1       2.270   6.743  17.403  0.00  0.00    +0.000 A 
ATOM      5  C   UNL     1       2.124   7.957  18.068  0.00  0.00    +0.000 A 
ATOM      6  C   UNL     1       2.074   7.978  19.460  0.00  0.00    +0.000 A 
ATOM      7  C   UNL     1       2.147   6.785  20.189  0.00  0.00    +0.000 A 
ATOM      8  C   UNL     1       2.300   5.546  19.545  0.00  0.00    +0.000 A 
ATOM      9  C   UNL     1       2.356   4.289  20.315  0.00  0.00    +0.000 A 
ATOM     10  C   UNL     1       1.375   3.996  21.280  0.00  0.00    +0.000 A 
ATOM     11  C   UNL     1       1.411   2.807  22.017  0.00  0.00    +0.000 A 
ATOM     12  C   UNL     1       2.437   1.885  21.815  0.00  0.00    +0.000 A 
ATOM     13  C   UNL     1       3.423   2.152  20.872  0.00  0.00    +0.000 A 
ATOM     14  C   UNL     1       3.369   3.335  20.122  0.00  0.00    +0.000 A 
ATOM     15  C   UNL     1       4.439   3.555  19.129  0.00  0.00    +0.000 C 
ATOM     16  O   UNL     1       5.600   3.512  19.532  0.00  0.00    +0.000 OA
ATOM     17  C   UNL     1       4.030   3.655  17.666  0.00  0.00    +0.000 C 
ENDROOT
BRANCH  17  18
ATOM     18  C   UNL     1       5.123   4.270  16.798  0.00  0.00    +0.000 A 
ATOM     19  C   UNL     1       5.522   3.640  15.611  0.00  0.00    +0.000 A 
ATOM     20  C   UNL     1       6.535   4.191  14.821  0.00  0.00    +0.000 A 
ATOM     21  C   UNL     1       7.144   5.386  15.196  0.00  0.00    +0.000 A 
ATOM     22  C   UNL     1       6.748   6.031  16.364  0.00  0.00    +0.000 A 
ATOM     23  C   UNL     1       5.754   5.473  17.166  0.00  0.00    +0.000 A 
ENDBRANCH  17  18
TORSDOF 1
ENDMDL
MODEL 6
REMARK VINA RESULT:      -7.6      1.629      3.831
REMARK  Name = 
REMARK  1 active torsions:
REMARK  status: ('A' for Active; 'I' for Inactive)
REMARK    1  A    between atoms: C_17  and  C_18
REMARK                            x       y       z     vdW  Elec       q    Type
REMARK                         _______ _______ _______ _____ _____    ______ ____
ROOT
ATOM      1  O   UNL     1       1.902   3.948  16.526  0.00  0.00    +0.000 OA
ATOM      2  C   UNL     1       2.685   4.324  17.395  0.00  0.00    +0.000 C 
ATOM      3  C   UNL     1       2.383   5.562  18.142  0.00  0.00    +0.000 A 
ATOM      4  C   UNL     1       2.263   6.746  17.403  0.00  0.00    +0.000 A 
ATOM      5  C   UNL     1       2.118   7.960  18.069  0.00  0.00    +0.000 A 
ATOM      6  C   UNL     1       2.070   7.980  19.461  0.00  0.00    +0.000 A 
ATOM      7  C   UNL     1       2.145   6.787  20.189  0.00  0.00    +0.000 A 
ATOM      8  C   UNL     1       2.297   5.547  19.543  0.00  0.00    +0.000 A 
ATOM      9  C   UNL     1       2.355   4.290  20.313  0.00  0.00    +0.000 A 
ATOM     10  C   UNL     1       1.376   3.996  21.279  0.00  0.00    +0.000 A 
ATOM     11  C   UNL     1       1.413   2.806  22.016  0.00  0.00    +0.000 A 
ATOM     12  C   UNL     1       2.439   1.885  21.810  0.00  0.00    +0.000 A 
ATOM     13  C   UNL     1       3.424   2.153  20.867  0.00  0.00    +0.000 A 
ATOM     14  C   UNL     1       3.368   3.337  20.118  0.00  0.00    +0.000 A 
ATOM     15  C   UNL     1       4.436   3.558  19.123  0.00  0.00    +0.000 C 
ATOM     16  O   UNL     1       5.598   3.515  19.524  0.00  0.00    +0.000 OA
ATOM     17  C   UNL     1       4.025   3.659  17.660  0.00  0.00    +0.000 C 
ENDROOT
BRANCH  17  18
ATOM     18  C   UNL     1       5.116   4.275  16.791  0.00  0.00    +0.000 A 
ATOM     19  C   UNL     1       5.708   5.493  17.156  0.00  0.00    +0.000 A 
ATOM     20  C   UNL     1       6.696   6.071  16.354  0.00  0.00    +0.000 A 
ATOM     21  C   UNL     1       7.118   5.429  15.192  0.00  0.00    +0.000 A 
ATOM     22  C   UNL     1       6.550   4.212  14.824  0.00  0.00    +0.000 A 
ATOM     23  C   UNL     1       5.549   3.644  15.610  0.00  0.00    +0.000 A 
ENDBRANCH  17  18
TORSDOF 1
ENDMDL
MODEL 7
REMARK VINA RESULT:      -6.9      2.062      4.239
REMARK  Name = 
REMARK  1 active torsions:
REMARK  status: ('A' for Active; 'I' for Inactive)
REMARK    1  A    between atoms: C_17  and  C_18
REMARK                            x       y       z     vdW  Elec       q    Type
REMARK                         _______ _______ _______ _____ _____    ______ ____
ROOT
ATOM      1  O   UNL     1       4.377   7.271  15.983  0.00  0.00    +0.000 OA
ATOM      2  C   UNL     1       4.867   6.209  16.359  0.00  0.00    +0.000 C 
ATOM      3  C   UNL     1       5.868   6.228  17.444  0.00  0.00    +0.000 A 
ATOM      4  C   UNL     1       7.040   6.965  17.225  0.00  0.00    +0.000 A 
ATOM      5  C   UNL     1       8.074   6.903  18.155  0.00  0.00    +0.000 A 
ATOM      6  C   UNL     1       7.923   6.129  19.303  0.00  0.00    +0.000 A 
ATOM      7  C   UNL     1       6.731   5.433  19.535  0.00  0.00    +0.000 A 
ATOM      8  C   UNL     1       5.672   5.472  18.611  0.00  0.00    +0.000 A 
ATOM      9  C   UNL     1       4.409   4.755  18.870  0.00  0.00    +0.000 A 
ATOM     10  C   UNL     1       3.734   4.911  20.093  0.00  0.00    +0.000 A 
ATOM     11  C   UNL     1       2.533   4.241  20.353  0.00  0.00    +0.000 A 
ATOM     12  C   UNL     1       1.984   3.387  19.398  0.00  0.00    +0.000 A 
ATOM     13  C   UNL     1       2.634   3.208  18.182  0.00  0.00    +0.000 A 
ATOM     14  C   UNL     1       3.826   3.899  17.920  0.00  0.00    +0.000 A 
ATOM     15  C   UNL     1       4.461   3.676  16.608  0.00  0.00    +0.000 C 
ATOM     16  O   UNL     1       4.718   2.514  16.295  0.00  0.00    +0.000 OA
ATOM     17  C   UNL     1       4.600   4.876  15.680  0.00  0.00    +0.000 C 
ENDROOT
BRANCH  17  18
ATOM     18  C   UNL     1       5.604   4.630  14.558  0.00  0.00    +0.000 A 
ATOM     19  C   UNL     1       5.256   3.833  13.459  0.00  0.00    +0.000 A 
ATOM     20  C   UNL     1       6.178   3.590  12.438  0.00  0.00    +0.000 A 
ATOM     21  C   UNL     1       7.448   4.159  12.492  0.00  0.00    +0.000 A 
ATOM     22  C   UNL     1       7.804   4.966  13.569  0.00  0.00    +0.000 A 
ATOM     23  C   UNL     1       6.895   5.191  14.601  0.00  0.00    +0.000 A 
ENDBRANCH  17  18
TORSDOF 1
ENDMDL
MODEL 8
REMARK VINA RESULT:      -6.9      2.064      4.111
REMARK  Name = 
REMARK  1 active torsions:
REMARK  status: ('A' for Active; 'I' for Inactive)
REMARK    1  A    between atoms: C_17  and  C_18
REMARK                            x       y       z     vdW  Elec       q    Type
REMARK                         _______ _______ _______ _____ _____    ______ ____
ROOT
ATOM      1  O   UNL     1       4.355   7.262  16.019  0.00  0.00    +0.000 OA
ATOM      2  C   UNL     1       4.847   6.199  16.391  0.00  0.00    +0.000 C 
ATOM      3  C   UNL     1       5.853   6.216  17.472  0.00  0.00    +0.000 A 
ATOM      4  C   UNL     1       7.024   6.953  17.251  0.00  0.00    +0.000 A 
ATOM      5  C   UNL     1       8.061   6.890  18.176  0.00  0.00    +0.000 A 
ATOM      6  C   UNL     1       7.915   6.113  19.323  0.00  0.00    +0.000 A 
ATOM      7  C   UNL     1       6.723   5.417  19.558  0.00  0.00    +0.000 A 
ATOM      8  C   UNL     1       5.661   5.458  18.639  0.00  0.00    +0.000 A 
ATOM      9  C   UNL     1       4.399   4.739  18.900  0.00  0.00    +0.000 A 
ATOM     10  C   UNL     1       3.728   4.893  20.127  0.00  0.00    +0.000 A 
ATOM     11  C   UNL     1       2.528   4.222  20.390  0.00  0.00    +0.000 A 
ATOM     12  C   UNL     1       1.976   3.371  19.435  0.00  0.00    +0.000 A 
ATOM     13  C   UNL     1       2.622   3.194  18.216  0.00  0.00    +0.000 A 
ATOM     14  C   UNL     1       3.812   3.886  17.952  0.00  0.00    +0.000 A 
ATOM     15  C   UNL     1       4.442   3.666  16.636  0.00  0.00    +0.000 C 
ATOM     16  O   UNL     1       4.698   2.505  16.320  0.00  0.00    +0.000 OA
ATOM     17  C   UNL     1       4.578   4.868  15.710  0.00  0.00    +0.000 C 
ENDROOT
BRANCH  17  18
ATOM     18  C   UNL     1       5.578   4.625  14.584  0.00  0.00    +0.000 A 
ATOM     19  C   UNL     1       6.849   5.214  14.628  0.00  0.00    +0.000 A 
ATOM     20  C   UNL     1       7.763   5.009  13.591  0.00  0.00    +0.000 A 
ATOM     21  C   UNL     1       7.424   4.197  12.511  0.00  0.00    +0.000 A 
ATOM     22  C   UNL     1       6.171   3.593  12.460  0.00  0.00    +0.000 A 
ATOM     23  C   UNL     1       5.249   3.814  13.482  0.00  0.00    +0.000 A 
ENDBRANCH  17  18
TORSDOF 1
ENDMDL
MODEL 9
REMARK VINA RESULT:      -6.7      8.924     11.310
REMARK  Name = 
REMARK  1 active torsions:
REMARK  status: ('A' for Active; 'I' for Inactive)
REMARK    1  A    between atoms: C_17  and  C_18
REMARK                            x       y       z     vdW  Elec       q    Type
REMARK                         _______ _______ _______ _____ _____    ______ ____
ROOT
ATOM      1  O   UNL     1       9.859  15.183  22.262  0.00  0.00    +0.000 OA
ATOM      2  C   UNL     1       9.272  14.268  21.690  0.00  0.00    +0.000 C 
ATOM      3  C   UNL     1       8.279  14.598  20.647  0.00  0.00    +0.000 A 
ATOM      4  C   UNL     1       7.181  15.381  21.029  0.00  0.00    +0.000 A 
ATOM      5  C   UNL     1       6.149  15.604  20.123  0.00  0.00    +0.000 A 
ATOM      6  C   UNL     1       6.228  15.065  18.841  0.00  0.00    +0.000 A 
ATOM      7  C   UNL     1       7.350  14.322  18.455  0.00  0.00    +0.000 A 
ATOM      8  C   UNL     1       8.406  14.077  19.350  0.00  0.00    +0.000 A 
ATOM      9  C   UNL     1       9.596  13.312  18.932  0.00  0.00    +0.000 A 
ATOM     10  C   UNL     1      10.286  13.647  17.753  0.00  0.00    +0.000 A 
ATOM     11  C   UNL     1      11.419  12.934  17.344  0.00  0.00    +0.000 A 
ATOM     12  C   UNL     1      11.883  11.859  18.100  0.00  0.00    +0.000 A 
ATOM     13  C   UNL     1      11.216  11.501  19.266  0.00  0.00    +0.000 A 
ATOM     14  C   UNL     1      10.095  12.233  19.681  0.00  0.00    +0.000 A 
ATOM     15  C   UNL     1       9.438  11.811  20.933  0.00  0.00    +0.000 C 
ATOM     16  O   UNL     1       9.073  10.639  21.011  0.00  0.00    +0.000 OA
ATOM     17  C   UNL     1       9.410  12.807  22.084  0.00  0.00    +0.000 C 
ENDROOT
BRANCH  17  18
ATOM     18  C   UNL     1       8.385  12.436  23.150  0.00  0.00    +0.000 A 
ATOM     19  C   UNL     1       8.759  12.375  24.500  0.00  0.00    +0.000 A 
ATOM     20  C   UNL     1       7.828  12.019  25.479  0.00  0.00    +0.000 A 
ATOM     21  C   UNL     1       6.511  11.741  25.124  0.00  0.00    +0.000 A 
ATOM     22  C   UNL     1       6.120  11.812  23.790  0.00  0.00    +0.000 A 
ATOM     23  C   UNL     1       7.051  12.145  22.808  0.00  0.00    +0.000 A 
ENDBRANCH  17  18
TORSDOF 1
ENDMDL
