MODEL 1
REMARK VINA RESULT:      -8.5      0.000      0.000
REMARK  Name = 
REMARK  6 active torsions:
REMARK  status: ('A' for Active; 'I' for Inactive)
REMARK    1  A    between atoms: C_1  and  C_2
REMARK    2  A    between atoms: C_5  and  C_6
REMARK    3  A    between atoms: N_7  and  O_8
REMARK    4  A    between atoms: N_13  and  C_14
REMARK    5  A    between atoms: C_17  and  O_18
REMARK    6  A    between atoms: O_18  and  C_19
REMARK                            x       y       z     vdW  Elec       q    Type
REMARK                         _______ _______ _______ _____ _____    ______ ____
ROOT
ATOM      1  C   UNL     1      -2.772   9.791  15.760  0.00  0.00    +0.000 C 
ATOM      2  C   UNL     1      -2.336  10.420  17.047  0.00  0.00    +0.000 A 
ATOM      3  C   UNL     1      -3.221  11.132  17.840  0.00  0.00    +0.000 A 
ATOM      4  C   UNL     1      -2.750  11.671  19.037  0.00  0.00    +0.000 A 
ATOM      5  C   UNL     1      -1.412  11.495  19.427  0.00  0.00    +0.000 A 
ATOM      6  C   UNL     1      -0.598  10.756  18.574  0.00  0.00    +0.000 A 
ATOM      7  N   UNL     1      -1.046  10.230  17.398  0.00  0.00    +0.000 NA
ENDROOT
BRANCH   5   8
ATOM      8  C   UNL     1      -0.963  12.215  20.676  0.00  0.00    +0.000 C 
ATOM      9  N   UNL     1      -0.919  11.427  21.720  0.00  0.00    +0.000 NA
ATOM     10  N   UNL     1      -0.654  13.581  20.628  0.00  0.00    +0.000 N 
ATOM     11  C   UNL     1      -1.204  14.468  21.659  0.00  0.00    +0.000 C 
ATOM     12  C   UNL     1      -0.710  15.906  21.635  0.00  0.00    +0.000 C 
ATOM     13  C   UNL     1      -1.089  16.628  20.354  0.00  0.00    +0.000 C 
ATOM     14  N   UNL     1      -0.129  16.491  19.255  0.00  0.00    +0.000 NA
ATOM     15  C   UNL     1      -0.666  17.219  18.090  0.00  0.00    +0.000 C 
ATOM     16  C   UNL     1       0.205  15.112  18.849  0.00  0.00    +0.000 C 
ATOM     17  C   UNL     1       0.545  14.044  19.914  0.00  0.00    +0.000 C 
BRANCH   9  18
ATOM     18  O   UNL     1      -0.384  12.017  22.865  0.00  0.00    +0.000 OA
ATOM     19  H   UNL     1       0.576  11.921  22.712  0.00  0.00    +0.000 HD
ENDBRANCH   9  18
ENDBRANCH   5   8
BRANCH   6  20
ATOM     20  O   UNL     1       0.753  10.606  18.836  0.00  0.00    +0.000 OA
BRANCH  20  21
ATOM     21  C   UNL     1       1.223   9.320  19.072  0.00  0.00    +0.000 A 
ATOM     22  C   UNL     1       0.933   8.618  20.254  0.00  0.00    +0.000 A 
ATOM     23  C   UNL     1       1.576   7.419  20.566  0.00  0.00    +0.000 A 
ATOM     24  C   UNL     1       2.513   6.966  19.647  0.00  0.00    +0.000 A 
ATOM     25  O   UNL     1       3.309   5.881  19.831  0.00  0.00    +0.000 OA
ATOM     26  C   UNL     1       4.075   5.753  18.716  0.00  0.00    +0.000 A 
ATOM     27  C   UNL     1       5.050   4.778  18.527  0.00  0.00    +0.000 A 
ATOM     28  C   UNL     1       5.693   4.771  17.287  0.00  0.00    +0.000 A 
ATOM     29  C   UNL     1       5.355   5.699  16.298  0.00  0.00    +0.000 A 
ATOM     30  C   UNL     1       4.392   6.696  16.532  0.00  0.00    +0.000 A 
ATOM     31  C   UNL     1       3.746   6.736  17.784  0.00  0.00    +0.000 A 
ATOM     32  C   UNL     1       2.783   7.577  18.426  0.00  0.00    +0.000 A 
ATOM     33  C   UNL     1       2.128   8.796  18.132  0.00  0.00    +0.000 A 
ENDBRANCH  20  21
ENDBRANCH   6  20
TORSDOF 4
ENDMDL
MODEL 2
REMARK VINA RESULT:      -8.2      1.933      2.640
REMARK  Name = 
REMARK  6 active torsions:
REMARK  status: ('A' for Active; 'I' for Inactive)
REMARK    1  A    between atoms: C_1  and  C_2
REMARK    2  A    between atoms: C_5  and  C_6
REMARK    3  A    between atoms: N_7  and  O_8
REMARK    4  A    between atoms: N_13  and  C_14
REMARK    5  A    between atoms: C_17  and  O_18
REMARK    6  A    between atoms: O_18  and  C_19
REMARK                            x       y       z     vdW  Elec       q    Type
REMARK                         _______ _______ _______ _____ _____    ______ ____
ROOT
ATOM      1  C   UNL     1      -2.179   9.658  16.665  0.00  0.00    +0.000 C 
ATOM      2  C   UNL     1      -1.710  10.495  17.813  0.00  0.00    +0.000 A 
ATOM      3  C   UNL     1      -2.239  11.751  18.057  0.00  0.00    +0.000 A 
ATOM      4  C   UNL     1      -1.770  12.464  19.160  0.00  0.00    +0.000 A 
ATOM      5  C   UNL     1      -0.785  11.921  20.001  0.00  0.00    +0.000 A 
ATOM      6  C   UNL     1      -0.319  10.648  19.687  0.00  0.00    +0.000 A 
ATOM      7  N   UNL     1      -0.766   9.943  18.607  0.00  0.00    +0.000 NA
ENDROOT
BRANCH   5   8
ATOM      8  C   UNL     1      -0.252  12.812  21.098  0.00  0.00    +0.000 C 
ATOM      9  N   UNL     1      -0.879  12.640  22.232  0.00  0.00    +0.000 NA
ATOM     10  N   UNL     1       0.799  13.701  20.833  0.00  0.00    +0.000 N 
ATOM     11  C   UNL     1       0.683  15.090  21.290  0.00  0.00    +0.000 C 
ATOM     12  C   UNL     1       1.917  15.959  21.103  0.00  0.00    +0.000 C 
ATOM     13  C   UNL     1       2.288  16.132  19.641  0.00  0.00    +0.000 C 
ATOM     14  N   UNL     1       3.178  15.101  19.098  0.00  0.00    +0.000 NA
ATOM     15  C   UNL     1       3.404  15.404  17.672  0.00  0.00    +0.000 C 
ATOM     16  C   UNL     1       2.714  13.706  19.227  0.00  0.00    +0.000 C 
ATOM     17  C   UNL     1       2.152  13.190  20.572  0.00  0.00    +0.000 C 
BRANCH   9  18
ATOM     18  O   UNL     1      -0.335  13.346  23.305  0.00  0.00    +0.000 OA
ATOM     19  H   UNL     1      -0.649  14.254  23.129  0.00  0.00    +0.000 HD
ENDBRANCH   9  18
ENDBRANCH   5   8
BRANCH   6  20
ATOM     20  O   UNL     1       0.711  10.071  20.409  0.00  0.00    +0.000 OA
BRANCH  20  21
ATOM     21  C   UNL     1       1.442   9.063  19.793  0.00  0.00    +0.000 A 
ATOM     22  C   UNL     1       1.977   9.202  18.501  0.00  0.00    +0.000 A 
ATOM     23  C   UNL     1       2.527   8.117  17.819  0.00  0.00    +0.000 A 
ATOM     24  C   UNL     1       2.513   6.898  18.486  0.00  0.00    +0.000 A 
ATOM     25  O   UNL     1       2.906   5.718  17.941  0.00  0.00    +0.000 OA
ATOM     26  C   UNL     1       2.758   4.767  18.900  0.00  0.00    +0.000 A 
ATOM     27  C   UNL     1       3.023   3.411  18.724  0.00  0.00    +0.000 A 
ATOM     28  C   UNL     1       2.870   2.596  19.847  0.00  0.00    +0.000 A 
ATOM     29  C   UNL     1       2.476   3.132  21.077  0.00  0.00    +0.000 A 
ATOM     30  C   UNL     1       2.180   4.499  21.213  0.00  0.00    +0.000 A 
ATOM     31  C   UNL     1       2.308   5.339  20.088  0.00  0.00    +0.000 A 
ATOM     32  C   UNL     1       2.069   6.719  19.792  0.00  0.00    +0.000 A 
ATOM     33  C   UNL     1       1.507   7.829  20.464  0.00  0.00    +0.000 A 
ENDBRANCH  20  21
ENDBRANCH   6  20
TORSDOF 4
ENDMDL
MODEL 3
REMARK VINA RESULT:      -8.1      1.163      1.274
REMARK  Name = 
REMARK  6 active torsions:
REMARK  status: ('A' for Active; 'I' for Inactive)
REMARK    1  A    between atoms: C_1  and  C_2
REMARK    2  A    between atoms: C_5  and  C_6
REMARK    3  A    between atoms: N_7  and  O_8
REMARK    4  A    between atoms: N_13  and  C_14
REMARK    5  A    between atoms: C_17  and  O_18
REMARK    6  A    between atoms: O_18  and  C_19
REMARK                            x       y       z     vdW  Elec       q    Type
REMARK                         _______ _______ _______ _____ _____    ______ ____
ROOT
ATOM      1  C   UNL     1      -3.427  10.122  17.317  0.00  0.00    +0.000 C 
ATOM      2  C   UNL     1      -2.405  10.889  18.097  0.00  0.00    +0.000 A 
ATOM      3  C   UNL     1      -2.768  11.921  18.945  0.00  0.00    +0.000 A 
ATOM      4  C   UNL     1      -1.765  12.576  19.659  0.00  0.00    +0.000 A 
ATOM      5  C   UNL     1      -0.419  12.198  19.518  0.00  0.00    +0.000 A 
ATOM      6  C   UNL     1      -0.148  11.142  18.652  0.00  0.00    +0.000 A 
ATOM      7  N   UNL     1      -1.121  10.498  17.945  0.00  0.00    +0.000 NA
ENDROOT
BRANCH   5   8
ATOM      8  C   UNL     1       0.608  13.040  20.235  0.00  0.00    +0.000 C 
ATOM      9  N   UNL     1       1.498  12.318  20.865  0.00  0.00    +0.000 NA
ATOM     10  N   UNL     1       0.532  14.439  20.180  0.00  0.00    +0.000 N 
ATOM     11  C   UNL     1       0.670  15.204  21.424  0.00  0.00    +0.000 C 
ATOM     12  C   UNL     1       0.728  16.717  21.275  0.00  0.00    +0.000 C 
ATOM     13  C   UNL     1      -0.548  17.290  20.684  0.00  0.00    +0.000 C 
ATOM     14  N   UNL     1      -0.586  17.347  19.219  0.00  0.00    +0.000 NA
ATOM     15  C   UNL     1      -1.897  17.893  18.820  0.00  0.00    +0.000 C 
ATOM     16  C   UNL     1      -0.358  16.072  18.511  0.00  0.00    +0.000 C 
ATOM     17  C   UNL     1       0.810  15.146  18.922  0.00  0.00    +0.000 C 
BRANCH   9  18
ATOM     18  O   UNL     1       2.540  13.051  21.431  0.00  0.00    +0.000 OA
ATOM     19  H   UNL     1       2.742  12.530  22.232  0.00  0.00    +0.000 HD
ENDBRANCH   9  18
ENDBRANCH   5   8
BRANCH   6  20
ATOM     20  O   UNL     1       1.155  10.759  18.387  0.00  0.00    +0.000 OA
BRANCH  20  21
ATOM     21  C   UNL     1       1.523   9.460  18.716  0.00  0.00    +0.000 A 
ATOM     22  C   UNL     1       1.146   8.855  19.926  0.00  0.00    +0.000 A 
ATOM     23  C   UNL     1       1.690   7.635  20.332  0.00  0.00    +0.000 A 
ATOM     24  C   UNL     1       2.620   7.060  19.474  0.00  0.00    +0.000 A 
ATOM     25  O   UNL     1       3.328   5.935  19.751  0.00  0.00    +0.000 OA
ATOM     26  C   UNL     1       4.117   5.685  18.673  0.00  0.00    +0.000 A 
ATOM     27  C   UNL     1       5.024   4.633  18.577  0.00  0.00    +0.000 A 
ATOM     28  C   UNL     1       5.702   4.503  17.364  0.00  0.00    +0.000 A 
ATOM     29  C   UNL     1       5.464   5.391  16.309  0.00  0.00    +0.000 A 
ATOM     30  C   UNL     1       4.570   6.466  16.450  0.00  0.00    +0.000 A 
ATOM     31  C   UNL     1       3.889   6.629  17.673  0.00  0.00    +0.000 A 
ATOM     32  C   UNL     1       2.971   7.574  18.230  0.00  0.00    +0.000 A 
ATOM     33  C   UNL     1       2.416   8.816  17.841  0.00  0.00    +0.000 A 
ENDBRANCH  20  21
ENDBRANCH   6  20
TORSDOF 4
ENDMDL
MODEL 4
REMARK VINA RESULT:      -8.0      2.109      3.158
REMARK  Name = 
REMARK  6 active torsions:
REMARK  status: ('A' for Active; 'I' for Inactive)
REMARK    1  A    between atoms: C_1  and  C_2
REMARK    2  A    between atoms: C_5  and  C_6
REMARK    3  A    between atoms: N_7  and  O_8
REMARK    4  A    between atoms: N_13  and  C_14
REMARK    5  A    between atoms: C_17  and  O_18
REMARK    6  A    between atoms: O_18  and  C_19
REMARK                            x       y       z     vdW  Elec       q    Type
REMARK                         _______ _______ _______ _____ _____    ______ ____
ROOT
ATOM      1  C   UNL     1      -3.255   9.648  17.984  0.00  0.00    +0.000 C 
ATOM      2  C   UNL     1      -2.066  10.532  18.194  0.00  0.00    +0.000 A 
ATOM      3  C   UNL     1      -1.986  11.787  17.613  0.00  0.00    +0.000 A 
ATOM      4  C   UNL     1      -0.858  12.565  17.871  0.00  0.00    +0.000 A 
ATOM      5  C   UNL     1       0.171  12.087  18.699  0.00  0.00    +0.000 A 
ATOM      6  C   UNL     1       0.001  10.820  19.250  0.00  0.00    +0.000 A 
ATOM      7  N   UNL     1      -1.096  10.047  18.999  0.00  0.00    +0.000 NA
ENDROOT
BRANCH   5   8
ATOM      8  C   UNL     1       1.406  12.947  18.825  0.00  0.00    +0.000 C 
ATOM      9  N   UNL     1       2.385  12.532  18.064  0.00  0.00    +0.000 NA
ATOM     10  N   UNL     1       1.411  14.047  19.694  0.00  0.00    +0.000 N 
ATOM     11  C   UNL     1       2.552  14.228  20.598  0.00  0.00    +0.000 C 
ATOM     12  C   UNL     1       2.565  15.518  21.405  0.00  0.00    +0.000 C 
ATOM     13  C   UNL     1       1.383  15.621  22.353  0.00  0.00    +0.000 C 
ATOM     14  N   UNL     1       0.177  16.226  21.781  0.00  0.00    +0.000 NA
ATOM     15  C   UNL     1      -0.871  16.216  22.818  0.00  0.00    +0.000 C 
ATOM     16  C   UNL     1      -0.351  15.595  20.555  0.00  0.00    +0.000 C 
ATOM     17  C   UNL     1       0.598  15.233  19.390  0.00  0.00    +0.000 C 
BRANCH   9  18
ATOM     18  O   UNL     1       3.499  13.372  18.048  0.00  0.00    +0.000 OA
ATOM     19  H   UNL     1       3.801  13.325  18.975  0.00  0.00    +0.000 HD
ENDBRANCH   9  18
ENDBRANCH   5   8
BRANCH   6  20
ATOM     20  O   UNL     1       1.000  10.235  20.007  0.00  0.00    +0.000 OA
BRANCH  20  21
ATOM     21  C   UNL     1       1.650   9.130  19.471  0.00  0.00    +0.000 A 
ATOM     22  C   UNL     1       2.168   9.122  18.165  0.00  0.00    +0.000 A 
ATOM     23  C   UNL     1       2.632   7.948  17.571  0.00  0.00    +0.000 A 
ATOM     24  C   UNL     1       2.549   6.794  18.342  0.00  0.00    +0.000 A 
ATOM     25  O   UNL     1       2.852   5.548  17.896  0.00  0.00    +0.000 OA
ATOM     26  C   UNL     1       2.659   4.694  18.935  0.00  0.00    +0.000 A 
ATOM     27  C   UNL     1       2.829   3.314  18.874  0.00  0.00    +0.000 A 
ATOM     28  C   UNL     1       2.644   2.609  20.065  0.00  0.00    +0.000 A 
ATOM     29  C   UNL     1       2.310   3.275  21.249  0.00  0.00    +0.000 A 
ATOM     30  C   UNL     1       2.109   4.665  21.270  0.00  0.00    +0.000 A 
ATOM     31  C   UNL     1       2.271   5.395  20.076  0.00  0.00    +0.000 A 
ATOM     32  C   UNL     1       2.119   6.758  19.665  0.00  0.00    +0.000 A 
ATOM     33  C   UNL     1       1.645   7.957  20.246  0.00  0.00    +0.000 A 
ENDBRANCH  20  21
ENDBRANCH   6  20
TORSDOF 4
ENDMDL
MODEL 5
REMARK VINA RESULT:      -7.9      1.303      1.460
REMARK  Name = 
REMARK  6 active torsions:
REMARK  status: ('A' for Active; 'I' for Inactive)
REMARK    1  A    between atoms: C_1  and  C_2
REMARK    2  A    between atoms: C_5  and  C_6
REMARK    3  A    between atoms: N_7  and  O_8
REMARK    4  A    between atoms: N_13  and  C_14
REMARK    5  A    between atoms: C_17  and  O_18
REMARK    6  A    between atoms: O_18  and  C_19
REMARK                            x       y       z     vdW  Elec       q    Type
REMARK                         _______ _______ _______ _____ _____    ______ ____
ROOT
ATOM      1  C   UNL     1      -2.309   9.736  16.387  0.00  0.00    +0.000 C 
ATOM      2  C   UNL     1      -1.845  10.470  17.605  0.00  0.00    +0.000 A 
ATOM      3  C   UNL     1      -2.626  11.444  18.205  0.00  0.00    +0.000 A 
ATOM      4  C   UNL     1      -2.139  12.071  19.352  0.00  0.00    +0.000 A 
ATOM      5  C   UNL     1      -0.886  11.723  19.883  0.00  0.00    +0.000 A 
ATOM      6  C   UNL     1      -0.175  10.726  19.223  0.00  0.00    +0.000 A 
ATOM      7  N   UNL     1      -0.639  10.110  18.096  0.00  0.00    +0.000 NA
ENDROOT
BRANCH   5   8
ATOM      8  C   UNL     1      -0.389  12.537  21.054  0.00  0.00    +0.000 C 
ATOM      9  N   UNL     1      -0.992  12.227  22.172  0.00  0.00    +0.000 NA
ATOM     10  N   UNL     1       0.610  13.502  20.865  0.00  0.00    +0.000 N 
ATOM     11  C   UNL     1       0.426  14.834  21.450  0.00  0.00    +0.000 C 
ATOM     12  C   UNL     1       1.610  15.782  21.335  0.00  0.00    +0.000 C 
ATOM     13  C   UNL     1       1.954  16.109  19.893  0.00  0.00    +0.000 C 
ATOM     14  N   UNL     1       2.890  15.182  19.250  0.00  0.00    +0.000 NA
ATOM     15  C   UNL     1       3.084  15.626  17.857  0.00  0.00    +0.000 C 
ATOM     16  C   UNL     1       2.503  13.758  19.254  0.00  0.00    +0.000 C 
ATOM     17  C   UNL     1       1.986  13.090  20.548  0.00  0.00    +0.000 C 
BRANCH   9  18
ATOM     18  O   UNL     1      -0.474  12.860  23.301  0.00  0.00    +0.000 OA
ATOM     19  H   UNL     1      -1.268  12.958  23.861  0.00  0.00    +0.000 HD
ENDBRANCH   9  18
ENDBRANCH   5   8
BRANCH   6  20
ATOM     20  O   UNL     1       1.103  10.380  19.626  0.00  0.00    +0.000 OA
BRANCH  20  21
ATOM     21  C   UNL     1       1.447   9.034  19.588  0.00  0.00    +0.000 A 
ATOM     22  C   UNL     1       1.076   8.134  20.602  0.00  0.00    +0.000 A 
ATOM     23  C   UNL     1       1.599   6.841  20.656  0.00  0.00    +0.000 A 
ATOM     24  C   UNL     1       2.502   6.500  19.657  0.00  0.00    +0.000 A 
ATOM     25  O   UNL     1       3.190   5.330  19.609  0.00  0.00    +0.000 OA
ATOM     26  C   UNL     1       3.956   5.363  18.487  0.00  0.00    +0.000 A 
ATOM     27  C   UNL     1       4.837   4.359  18.095  0.00  0.00    +0.000 A 
ATOM     28  C   UNL     1       5.493   4.547  16.877  0.00  0.00    +0.000 A 
ATOM     29  C   UNL     1       5.259   5.687  16.103  0.00  0.00    +0.000 A 
ATOM     30  C   UNL     1       4.391   6.701  16.543  0.00  0.00    +0.000 A 
ATOM     31  C   UNL     1       3.733   6.543  17.780  0.00  0.00    +0.000 A 
ATOM     32  C   UNL     1       2.845   7.322  18.588  0.00  0.00    +0.000 A 
ATOM     33  C   UNL     1       2.312   8.631  18.556  0.00  0.00    +0.000 A 
ENDBRANCH  20  21
ENDBRANCH   6  20
TORSDOF 4
ENDMDL
MODEL 6
REMARK VINA RESULT:      -7.8      1.376      2.113
REMARK  Name = 
REMARK  6 active torsions:
REMARK  status: ('A' for Active; 'I' for Inactive)
REMARK    1  A    between atoms: C_1  and  C_2
REMARK    2  A    between atoms: C_5  and  C_6
REMARK    3  A    between atoms: N_7  and  O_8
REMARK    4  A    between atoms: N_13  and  C_14
REMARK    5  A    between atoms: C_17  and  O_18
REMARK    6  A    between atoms: O_18  and  C_19
REMARK                            x       y       z     vdW  Elec       q    Type
REMARK                         _______ _______ _______ _____ _____    ______ ____
ROOT
ATOM      1  C   UNL     1      -2.381   9.621  16.545  0.00  0.00    +0.000 C 
ATOM      2  C   UNL     1      -2.050  10.450  17.746  0.00  0.00    +0.000 A 
ATOM      3  C   UNL     1      -2.884  11.468  18.174  0.00  0.00    +0.000 A 
ATOM      4  C   UNL     1      -2.523  12.184  19.316  0.00  0.00    +0.000 A 
ATOM      5  C   UNL     1      -1.341  11.879  20.011  0.00  0.00    +0.000 A 
ATOM      6  C   UNL     1      -0.570  10.832  19.515  0.00  0.00    +0.000 A 
ATOM      7  N   UNL     1      -0.910  10.129  18.396  0.00  0.00    +0.000 NA
ENDROOT
BRANCH   5   8
ATOM      8  C   UNL     1      -0.971  12.783  21.162  0.00  0.00    +0.000 C 
ATOM      9  N   UNL     1      -0.958  12.155  22.309  0.00  0.00    +0.000 NA
ATOM     10  N   UNL     1      -0.693  14.138  20.931  0.00  0.00    +0.000 N 
ATOM     11  C   UNL     1      -1.314  15.145  21.797  0.00  0.00    +0.000 C 
ATOM     12  C   UNL     1      -0.855  16.580  21.587  0.00  0.00    +0.000 C 
ATOM     13  C   UNL     1      -1.188  17.099  20.200  0.00  0.00    +0.000 C 
ATOM     14  N   UNL     1      -0.173  16.835  19.175  0.00  0.00    +0.000 NA
ATOM     15  C   UNL     1      -0.670  17.372  17.895  0.00  0.00    +0.000 C 
ATOM     16  C   UNL     1       0.214  15.423  18.989  0.00  0.00    +0.000 C 
ATOM     17  C   UNL     1       0.528  14.530  20.211  0.00  0.00    +0.000 C 
BRANCH   9  18
ATOM     18  O   UNL     1      -0.494  12.919  23.380  0.00  0.00    +0.000 OA
ATOM     19  H   UNL     1      -1.282  12.961  23.955  0.00  0.00    +0.000 HD
ENDBRANCH   9  18
ENDBRANCH   5   8
BRANCH   6  20
ATOM     20  O   UNL     1       0.652  10.518  20.086  0.00  0.00    +0.000 OA
BRANCH  20  21
ATOM     21  C   UNL     1       1.375   9.475  19.523  0.00  0.00    +0.000 A 
ATOM     22  C   UNL     1       1.926   9.551  18.232  0.00  0.00    +0.000 A 
ATOM     23  C   UNL     1       2.468   8.429  17.604  0.00  0.00    +0.000 A 
ATOM     24  C   UNL     1       2.430   7.242  18.323  0.00  0.00    +0.000 A 
ATOM     25  O   UNL     1       2.813   6.034  17.835  0.00  0.00    +0.000 OA
ATOM     26  C   UNL     1       2.642   5.127  18.833  0.00  0.00    +0.000 A 
ATOM     27  C   UNL     1       2.890   3.762  18.719  0.00  0.00    +0.000 A 
ATOM     28  C   UNL     1       2.713   2.998  19.874  0.00  0.00    +0.000 A 
ATOM     29  C   UNL     1       2.314   3.593  21.075  0.00  0.00    +0.000 A 
ATOM     30  C   UNL     1       2.035   4.969  21.148  0.00  0.00    +0.000 A 
ATOM     31  C   UNL     1       2.186   5.756  19.989  0.00  0.00    +0.000 A 
ATOM     32  C   UNL     1       1.970   7.125  19.631  0.00  0.00    +0.000 A 
ATOM     33  C   UNL     1       1.416   8.271  20.248  0.00  0.00    +0.000 A 
ENDBRANCH  20  21
ENDBRANCH   6  20
TORSDOF 4
ENDMDL
MODEL 7
REMARK VINA RESULT:      -7.7      4.134      9.616
REMARK  Name = 
REMARK  6 active torsions:
REMARK  status: ('A' for Active; 'I' for Inactive)
REMARK    1  A    between atoms: C_1  and  C_2
REMARK    2  A    between atoms: C_5  and  C_6
REMARK    3  A    between atoms: N_7  and  O_8
REMARK    4  A    between atoms: N_13  and  C_14
REMARK    5  A    between atoms: C_17  and  O_18
REMARK    6  A    between atoms: O_18  and  C_19
REMARK                            x       y       z     vdW  Elec       q    Type
REMARK                         _______ _______ _______ _____ _____    ______ ____
ROOT
ATOM      1  C   UNL     1       0.615   3.605  20.459  0.00  0.00    +0.000 C 
ATOM      2  C   UNL     1       2.007   3.923  20.010  0.00  0.00    +0.000 A 
ATOM      3  C   UNL     1       3.015   2.975  20.052  0.00  0.00    +0.000 A 
ATOM      4  C   UNL     1       4.283   3.336  19.595  0.00  0.00    +0.000 A 
ATOM      5  C   UNL     1       4.529   4.629  19.106  0.00  0.00    +0.000 A 
ATOM      6  C   UNL     1       3.454   5.513  19.090  0.00  0.00    +0.000 A 
ATOM      7  N   UNL     1       2.211   5.173  19.540  0.00  0.00    +0.000 NA
ENDROOT
BRANCH   5   8
ATOM      8  C   UNL     1       5.956   4.966  18.747  0.00  0.00    +0.000 C 
ATOM      9  N   UNL     1       6.652   5.366  19.779  0.00  0.00    +0.000 NA
ATOM     10  N   UNL     1       6.397   4.840  17.422  0.00  0.00    +0.000 N 
ATOM     11  C   UNL     1       7.162   5.938  16.823  0.00  0.00    +0.000 C 
ATOM     12  C   UNL     1       7.735   5.675  15.439  0.00  0.00    +0.000 C 
ATOM     13  C   UNL     1       6.654   5.433  14.400  0.00  0.00    +0.000 C 
ATOM     14  N   UNL     1       6.220   4.039  14.266  0.00  0.00    +0.000 NA
ATOM     15  C   UNL     1       5.154   3.992  13.249  0.00  0.00    +0.000 C 
ATOM     16  C   UNL     1       5.740   3.385  15.499  0.00  0.00    +0.000 C 
ATOM     17  C   UNL     1       6.543   3.509  16.815  0.00  0.00    +0.000 C 
BRANCH   9  18
ATOM     18  O   UNL     1       8.008   5.561  19.520  0.00  0.00    +0.000 OA
ATOM     19  H   UNL     1       8.031   5.556  18.544  0.00  0.00    +0.000 HD
ENDBRANCH   9  18
ENDBRANCH   5   8
BRANCH   6  20
ATOM     20  O   UNL     1       3.625   6.832  18.705  0.00  0.00    +0.000 OA
BRANCH  20  21
ATOM     21  C   UNL     1       2.520   7.671  18.779  0.00  0.00    +0.000 A 
ATOM     22  C   UNL     1       1.999   8.330  17.653  0.00  0.00    +0.000 A 
ATOM     23  C   UNL     1       1.026   9.323  17.775  0.00  0.00    +0.000 A 
ATOM     24  C   UNL     1       0.608   9.621  19.066  0.00  0.00    +0.000 A 
ATOM     25  O   UNL     1      -0.247  10.626  19.386  0.00  0.00    +0.000 OA
ATOM     26  C   UNL     1      -0.419  10.591  20.733  0.00  0.00    +0.000 A 
ATOM     27  C   UNL     1      -1.201  11.485  21.459  0.00  0.00    +0.000 A 
ATOM     28  C   UNL     1      -1.304  11.251  22.832  0.00  0.00    +0.000 A 
ATOM     29  C   UNL     1      -0.653  10.166  23.426  0.00  0.00    +0.000 A 
ATOM     30  C   UNL     1       0.160   9.302  22.672  0.00  0.00    +0.000 A 
ATOM     31  C   UNL     1       0.296   9.531  21.288  0.00  0.00    +0.000 A 
ATOM     32  C   UNL     1       1.032   8.948  20.208  0.00  0.00    +0.000 A 
ATOM     33  C   UNL     1       2.025   7.951  20.065  0.00  0.00    +0.000 A 
ENDBRANCH  20  21
ENDBRANCH   6  20
TORSDOF 4
ENDMDL
MODEL 8
REMARK VINA RESULT:      -7.6      1.617      2.425
REMARK  Name = 
REMARK  6 active torsions:
REMARK  status: ('A' for Active; 'I' for Inactive)
REMARK    1  A    between atoms: C_1  and  C_2
REMARK    2  A    between atoms: C_5  and  C_6
REMARK    3  A    between atoms: N_7  and  O_8
REMARK    4  A    between atoms: N_13  and  C_14
REMARK    5  A    between atoms: C_17  and  O_18
REMARK    6  A    between atoms: O_18  and  C_19
REMARK                            x       y       z     vdW  Elec       q    Type
REMARK                         _______ _______ _______ _____ _____    ______ ____
ROOT
ATOM      1  C   UNL     1      -2.716   9.625  15.938  0.00  0.00    +0.000 C 
ATOM      2  C   UNL     1      -2.185  10.330  17.147  0.00  0.00    +0.000 A 
ATOM      3  C   UNL     1      -2.988  11.159  17.912  0.00  0.00    +0.000 A 
ATOM      4  C   UNL     1      -2.431  11.764  19.038  0.00  0.00    +0.000 A 
ATOM      5  C   UNL     1      -1.089  11.539  19.386  0.00  0.00    +0.000 A 
ATOM      6  C   UNL     1      -0.360  10.681  18.566  0.00  0.00    +0.000 A 
ATOM      7  N   UNL     1      -0.893  10.088  17.459  0.00  0.00    +0.000 NA
ENDROOT
BRANCH   5   8
ATOM      8  C   UNL     1      -0.540  12.329  20.549  0.00  0.00    +0.000 C 
ATOM      9  N   UNL     1       0.767  12.347  20.571  0.00  0.00    +0.000 NA
ATOM     10  N   UNL     1      -1.414  12.938  21.460  0.00  0.00    +0.000 N 
ATOM     11  C   UNL     1      -1.166  12.774  22.897  0.00  0.00    +0.000 C 
ATOM     12  C   UNL     1      -2.061  13.581  23.825  0.00  0.00    +0.000 C 
ATOM     13  C   UNL     1      -3.524  13.191  23.705  0.00  0.00    +0.000 C 
ATOM     14  N   UNL     1      -4.279  13.912  22.676  0.00  0.00    +0.000 NA
ATOM     15  C   UNL     1      -5.657  13.388  22.674  0.00  0.00    +0.000 C 
ATOM     16  C   UNL     1      -3.737  13.849  21.304  0.00  0.00    +0.000 C 
ATOM     17  C   UNL     1      -2.231  14.088  21.046  0.00  0.00    +0.000 C 
BRANCH   9  18
ATOM     18  O   UNL     1       1.317  13.173  21.551  0.00  0.00    +0.000 OA
ATOM     19  H   UNL     1       0.581  13.248  22.189  0.00  0.00    +0.000 HD
ENDBRANCH   9  18
ENDBRANCH   5   8
BRANCH   6  20
ATOM     20  O   UNL     1       0.990  10.469  18.784  0.00  0.00    +0.000 OA
BRANCH  20  21
ATOM     21  C   UNL     1       1.402   9.169  19.049  0.00  0.00    +0.000 A 
ATOM     22  C   UNL     1       1.078   8.506  20.244  0.00  0.00    +0.000 A 
ATOM     23  C   UNL     1       1.666   7.287  20.584  0.00  0.00    +0.000 A 
ATOM     24  C   UNL     1       2.585   6.772  19.678  0.00  0.00    +0.000 A 
ATOM     25  O   UNL     1       3.331   5.657  19.888  0.00  0.00    +0.000 OA
ATOM     26  C   UNL     1       4.094   5.472  18.778  0.00  0.00    +0.000 A 
ATOM     27  C   UNL     1       5.025   4.450  18.614  0.00  0.00    +0.000 A 
ATOM     28  C   UNL     1       5.669   4.388  17.377  0.00  0.00    +0.000 A 
ATOM     29  C   UNL     1       5.376   5.310  16.366  0.00  0.00    +0.000 A 
ATOM     30  C   UNL     1       4.458   6.353  16.576  0.00  0.00    +0.000 A 
ATOM     31  C   UNL     1       3.810   6.448  17.825  0.00  0.00    +0.000 A 
ATOM     32  C   UNL     1       2.884   7.345  18.446  0.00  0.00    +0.000 A 
ATOM     33  C   UNL     1       2.285   8.585  18.124  0.00  0.00    +0.000 A 
ENDBRANCH  20  21
ENDBRANCH   6  20
TORSDOF 4
ENDMDL
MODEL 9
REMARK VINA RESULT:      -7.6      3.151      9.202
REMARK  Name = 
REMARK  6 active torsions:
REMARK  status: ('A' for Active; 'I' for Inactive)
REMARK    1  A    between atoms: C_1  and  C_2
REMARK    2  A    between atoms: C_5  and  C_6
REMARK    3  A    between atoms: N_7  and  O_8
REMARK    4  A    between atoms: N_13  and  C_14
REMARK    5  A    between atoms: C_17  and  O_18
REMARK    6  A    between atoms: O_18  and  C_19
REMARK                            x       y       z     vdW  Elec       q    Type
REMARK                         _______ _______ _______ _____ _____    ______ ____
ROOT
ATOM      1  C   UNL     1      -0.840  10.762  23.114  0.00  0.00    +0.000 C 
ATOM      2  C   UNL     1      -0.101  10.028  22.039  0.00  0.00    +0.000 A 
ATOM      3  C   UNL     1       0.762   8.987  22.336  0.00  0.00    +0.000 A 
ATOM      4  C   UNL     1       1.399   8.333  21.282  0.00  0.00    +0.000 A 
ATOM      5  C   UNL     1       1.170   8.723  19.952  0.00  0.00    +0.000 A 
ATOM      6  C   UNL     1       0.278   9.771  19.746  0.00  0.00    +0.000 A 
ATOM      7  N   UNL     1      -0.346  10.422  20.770  0.00  0.00    +0.000 NA
ENDROOT
BRANCH   5   8
ATOM      8  C   UNL     1       1.993   8.039  18.886  0.00  0.00    +0.000 C 
ATOM      9  N   UNL     1       2.430   8.873  17.978  0.00  0.00    +0.000 NA
ATOM     10  N   UNL     1       2.207   6.655  18.943  0.00  0.00    +0.000 N 
ATOM     11  C   UNL     1       2.009   5.858  17.727  0.00  0.00    +0.000 C 
ATOM     12  C   UNL     1       2.401   4.391  17.820  0.00  0.00    +0.000 C 
ATOM     13  C   UNL     1       1.571   3.632  18.840  0.00  0.00    +0.000 C 
ATOM     14  N   UNL     1       2.096   3.652  20.209  0.00  0.00    +0.000 NA
ATOM     15  C   UNL     1       1.157   2.903  21.065  0.00  0.00    +0.000 C 
ATOM     16  C   UNL     1       2.328   4.985  20.798  0.00  0.00    +0.000 C 
ATOM     17  C   UNL     1       3.062   6.081  19.991  0.00  0.00    +0.000 C 
BRANCH   9  18
ATOM     18  O   UNL     1       3.302   8.308  17.049  0.00  0.00    +0.000 OA
ATOM     19  H   UNL     1       3.690   7.570  17.557  0.00  0.00    +0.000 HD
ENDBRANCH   9  18
ENDBRANCH   5   8
BRANCH   6  20
ATOM     20  O   UNL     1       0.058  10.277  18.477  0.00  0.00    +0.000 OA
BRANCH  20  21
ATOM     21  C   UNL     1      -1.252  10.307  18.015  0.00  0.00    +0.000 A 
ATOM     22  C   UNL     1      -1.641   9.693  16.812  0.00  0.00    +0.000 A 
ATOM     23  C   UNL     1      -2.905   9.906  16.261  0.00  0.00    +0.000 A 
ATOM     24  C   UNL     1      -3.750  10.755  16.965  0.00  0.00    +0.000 A 
ATOM     25  O   UNL     1      -4.970  11.160  16.530  0.00  0.00    +0.000 OA
ATOM     26  C   UNL     1      -5.490  11.967  17.492  0.00  0.00    +0.000 A 
ATOM     27  C   UNL     1      -6.719  12.615  17.410  0.00  0.00    +0.000 A 
ATOM     28  C   UNL     1      -7.110  13.355  18.528  0.00  0.00    +0.000 A 
ATOM     29  C   UNL     1      -6.298  13.423  19.664  0.00  0.00    +0.000 A 
ATOM     30  C   UNL     1      -5.045  12.787  19.703  0.00  0.00    +0.000 A 
ATOM     31  C   UNL     1      -4.620  12.052  18.578  0.00  0.00    +0.000 A 
ATOM     32  C   UNL     1      -3.447  11.326  18.197  0.00  0.00    +0.000 A 
ATOM     33  C   UNL     1      -2.157  11.107  18.735  0.00  0.00    +0.000 A 
ENDBRANCH  20  21
ENDBRANCH   6  20
TORSDOF 4
ENDMDL
