MODEL 1
REMARK VINA RESULT:      -7.7      0.000      0.000
REMARK  Name = 
REMARK  7 active torsions:
REMARK  status: ('A' for Active; 'I' for Inactive)
REMARK    1  A    between atoms: C_1  and  C_2
REMARK    2  A    between atoms: C_2  and  C_3
REMARK    3  A    between atoms: C_6  and  N_7
REMARK    4  A    between atoms: C_12  and  C_13
REMARK    5  A    between atoms: C_12  and  C_14
REMARK    6  A    between atoms: C_17  and  C_18
REMARK    7  A    between atoms: C_20  and  N_21
REMARK                            x       y       z     vdW  Elec       q    Type
REMARK                         _______ _______ _______ _____ _____    ______ ____
ROOT
ATOM      1  N   UNL     1       2.456   7.075  19.153  0.00  0.00    +0.000 N 
ATOM      2  N   UNL     1       3.190   7.469  18.027  0.00  0.00    +0.000 NA
ATOM      3  C   UNL     1       4.057   6.626  17.554  0.00  0.00    +0.000 C 
ATOM      4  C   UNL     1       4.860   6.958  16.302  0.00  0.00    +0.000 C 
ATOM      5  O   UNL     1       6.136   6.333  16.282  0.00  0.00    +0.000 OA
ATOM      6  C   UNL     1       6.137   4.915  16.470  0.00  0.00    +0.000 C 
ATOM      7  C   UNL     1       5.719   4.179  15.196  0.00  0.00    +0.000 C 
ATOM      8  C   UNL     1       7.565   4.530  16.873  0.00  0.00    +0.000 C 
ATOM      9  C   UNL     1       5.233   4.505  17.597  0.00  0.00    +0.000 C 
ATOM     10  C   UNL     1       4.301   5.287  18.129  0.00  0.00    +0.000 C 
ATOM     11  C   UNL     1       3.410   4.907  19.180  0.00  0.00    +0.000 C 
ATOM     12  C   UNL     1       2.473   5.754  19.666  0.00  0.00    +0.000 C 
ENDROOT
BRANCH   1  16
ATOM     13  C   UNL     1       0.274  10.223  21.032  0.00  0.00    +0.000 A 
ATOM     14  C   UNL     1       0.520  10.246  19.652  0.00  0.00    +0.000 A 
ATOM     15  C   UNL     1       1.248   9.217  19.042  0.00  0.00    +0.000 A 
ATOM     16  C   UNL     1       1.743   8.143  19.790  0.00  0.00    +0.000 A 
ATOM     17  C   UNL     1       1.519   8.167  21.181  0.00  0.00    +0.000 A 
ATOM     18  C   UNL     1       0.754   9.156  21.788  0.00  0.00    +0.000 A 
BRANCH  13  20
ATOM     19  C   UNL     1      -1.125  10.905  22.999  0.00  0.00    +0.000 C 
ATOM     20  C   UNL     1      -0.467  11.344  21.705  0.00  0.00    +0.000 C 
ENDBRANCH  13  20
ENDBRANCH   1  16
BRANCH  12  21
ATOM     21  N   UNL     1       1.543   5.272  20.588  0.00  0.00    +0.000 N 
ATOM     22  H   UNL     1       1.845   5.150  21.551  0.00  0.00    +0.000 HD
ATOM     23  H   UNL     1       0.596   5.612  20.493  0.00  0.00    +0.000 HD
ENDBRANCH  12  21
BRANCH  11  24
ATOM     24  C   UNL     1       3.504   3.521  19.800  0.00  0.00    +0.000 C 
ATOM     25  N   UNL     1       3.583   2.372  20.314  0.00  0.00    +0.000 NA
ENDBRANCH  11  24
TORSDOF 4
ENDMDL
MODEL 2
REMARK VINA RESULT:      -7.7      0.051      1.003
REMARK  Name = 
REMARK  7 active torsions:
REMARK  status: ('A' for Active; 'I' for Inactive)
REMARK    1  A    between atoms: C_1  and  C_2
REMARK    2  A    between atoms: C_2  and  C_3
REMARK    3  A    between atoms: C_6  and  N_7
REMARK    4  A    between atoms: C_12  and  C_13
REMARK    5  A    between atoms: C_12  and  C_14
REMARK    6  A    between atoms: C_17  and  C_18
REMARK    7  A    between atoms: C_20  and  N_21
REMARK                            x       y       z     vdW  Elec       q    Type
REMARK                         _______ _______ _______ _____ _____    ______ ____
ROOT
ATOM      1  N   UNL     1       2.454   7.068  19.147  0.00  0.00    +0.000 N 
ATOM      2  N   UNL     1       3.185   7.468  18.022  0.00  0.00    +0.000 NA
ATOM      3  C   UNL     1       4.053   6.628  17.544  0.00  0.00    +0.000 C 
ATOM      4  C   UNL     1       4.854   6.966  16.293  0.00  0.00    +0.000 C 
ATOM      5  O   UNL     1       6.131   6.344  16.269  0.00  0.00    +0.000 OA
ATOM      6  C   UNL     1       6.135   4.925  16.452  0.00  0.00    +0.000 C 
ATOM      7  C   UNL     1       5.717   4.193  15.175  0.00  0.00    +0.000 C 
ATOM      8  C   UNL     1       7.564   4.541  16.851  0.00  0.00    +0.000 C 
ATOM      9  C   UNL     1       5.233   4.510  17.578  0.00  0.00    +0.000 C 
ATOM     10  C   UNL     1       4.300   5.288  18.114  0.00  0.00    +0.000 C 
ATOM     11  C   UNL     1       3.411   4.902  19.165  0.00  0.00    +0.000 C 
ATOM     12  C   UNL     1       2.473   5.745  19.655  0.00  0.00    +0.000 C 
ENDROOT
BRANCH   1  16
ATOM     13  C   UNL     1       0.386  10.266  21.071  0.00  0.00    +0.000 A 
ATOM     14  C   UNL     1       0.864   9.175  21.810  0.00  0.00    +0.000 A 
ATOM     15  C   UNL     1       1.531   8.122  21.172  0.00  0.00    +0.000 A 
ATOM     16  C   UNL     1       1.739   8.133  19.788  0.00  0.00    +0.000 A 
ATOM     17  C   UNL     1       1.210   9.219  19.064  0.00  0.00    +0.000 A 
ATOM     18  C   UNL     1       0.592  10.294  19.694  0.00  0.00    +0.000 A 
BRANCH  13  20
ATOM     19  C   UNL     1      -1.097  10.916  22.986  0.00  0.00    +0.000 C 
ATOM     20  C   UNL     1      -0.370  11.380  21.738  0.00  0.00    +0.000 C 
ENDBRANCH  13  20
ENDBRANCH   1  16
BRANCH  12  21
ATOM     21  N   UNL     1       1.545   5.258  20.576  0.00  0.00    +0.000 N 
ATOM     22  H   UNL     1       1.425   5.768  21.447  0.00  0.00    +0.000 HD
ATOM     23  H   UNL     1       0.687   4.883  20.196  0.00  0.00    +0.000 HD
ENDBRANCH  12  21
BRANCH  11  24
ATOM     24  C   UNL     1       3.508   3.514  19.779  0.00  0.00    +0.000 C 
ATOM     25  N   UNL     1       3.588   2.364  20.290  0.00  0.00    +0.000 NA
ENDBRANCH  11  24
TORSDOF 4
ENDMDL
MODEL 3
REMARK VINA RESULT:      -7.0      2.182      7.129
REMARK  Name = 
REMARK  7 active torsions:
REMARK  status: ('A' for Active; 'I' for Inactive)
REMARK    1  A    between atoms: C_1  and  C_2
REMARK    2  A    between atoms: C_2  and  C_3
REMARK    3  A    between atoms: C_6  and  N_7
REMARK    4  A    between atoms: C_12  and  C_13
REMARK    5  A    between atoms: C_12  and  C_14
REMARK    6  A    between atoms: C_17  and  C_18
REMARK    7  A    between atoms: C_20  and  N_21
REMARK                            x       y       z     vdW  Elec       q    Type
REMARK                         _______ _______ _______ _____ _____    ______ ____
ROOT
ATOM      1  N   UNL     1       3.878   5.637  18.119  0.00  0.00    +0.000 N 
ATOM      2  N   UNL     1       3.457   6.973  18.120  0.00  0.00    +0.000 NA
ATOM      3  C   UNL     1       2.654   7.345  19.071  0.00  0.00    +0.000 C 
ATOM      4  C   UNL     1       2.189   8.792  19.172  0.00  0.00    +0.000 C 
ATOM      5  O   UNL     1       0.904   8.920  19.765  0.00  0.00    +0.000 OA
ATOM      6  C   UNL     1       0.741   8.291  21.040  0.00  0.00    +0.000 C 
ATOM      7  C   UNL     1       1.376   9.118  22.159  0.00  0.00    +0.000 C 
ATOM      8  C   UNL     1      -0.768   8.146  21.264  0.00  0.00    +0.000 C 
ATOM      9  C   UNL     1       1.326   6.908  21.053  0.00  0.00    +0.000 C 
ATOM     10  C   UNL     1       2.174   6.447  20.141  0.00  0.00    +0.000 C 
ATOM     11  C   UNL     1       2.766   5.145  20.152  0.00  0.00    +0.000 C 
ATOM     12  C   UNL     1       3.635   4.746  19.194  0.00  0.00    +0.000 C 
ENDROOT
BRANCH   1  16
ATOM     13  C   UNL     1       5.830   4.409  14.530  0.00  0.00    +0.000 A 
ATOM     14  C   UNL     1       5.795   5.761  14.899  0.00  0.00    +0.000 A 
ATOM     15  C   UNL     1       5.142   6.161  16.072  0.00  0.00    +0.000 A 
ATOM     16  C   UNL     1       4.514   5.225  16.902  0.00  0.00    +0.000 A 
ATOM     17  C   UNL     1       4.526   3.880  16.484  0.00  0.00    +0.000 A 
ATOM     18  C   UNL     1       5.216   3.467  15.350  0.00  0.00    +0.000 A 
BRANCH  13  20
ATOM     19  C   UNL     1       5.530   3.246  12.328  0.00  0.00    +0.000 C 
ATOM     20  C   UNL     1       6.489   3.974  13.251  0.00  0.00    +0.000 C 
ENDBRANCH  13  20
ENDBRANCH   1  16
BRANCH  12  21
ATOM     21  N   UNL     1       4.285   3.521  19.344  0.00  0.00    +0.000 N 
ATOM     22  H   UNL     1       5.300   3.510  19.292  0.00  0.00    +0.000 HD
ATOM     23  H   UNL     1       3.901   2.887  20.030  0.00  0.00    +0.000 HD
ENDBRANCH  12  21
BRANCH  11  24
ATOM     24  C   UNL     1       2.417   4.155  21.251  0.00  0.00    +0.000 C 
ATOM     25  N   UNL     1       2.129   3.332  22.163  0.00  0.00    +0.000 NA
ENDBRANCH  11  24
TORSDOF 4
ENDMDL
MODEL 4
REMARK VINA RESULT:      -7.0      2.186      7.170
REMARK  Name = 
REMARK  7 active torsions:
REMARK  status: ('A' for Active; 'I' for Inactive)
REMARK    1  A    between atoms: C_1  and  C_2
REMARK    2  A    between atoms: C_2  and  C_3
REMARK    3  A    between atoms: C_6  and  N_7
REMARK    4  A    between atoms: C_12  and  C_13
REMARK    5  A    between atoms: C_12  and  C_14
REMARK    6  A    between atoms: C_17  and  C_18
REMARK    7  A    between atoms: C_20  and  N_21
REMARK                            x       y       z     vdW  Elec       q    Type
REMARK                         _______ _______ _______ _____ _____    ______ ____
ROOT
ATOM      1  N   UNL     1       3.889   5.615  18.123  0.00  0.00    +0.000 N 
ATOM      2  N   UNL     1       3.474   6.952  18.120  0.00  0.00    +0.000 NA
ATOM      3  C   UNL     1       2.666   7.328  19.065  0.00  0.00    +0.000 C 
ATOM      4  C   UNL     1       2.207   8.778  19.162  0.00  0.00    +0.000 C 
ATOM      5  O   UNL     1       0.919   8.912  19.747  0.00  0.00    +0.000 OA
ATOM      6  C   UNL     1       0.746   8.284  21.021  0.00  0.00    +0.000 C 
ATOM      7  C   UNL     1       1.378   9.110  22.143  0.00  0.00    +0.000 C 
ATOM      8  C   UNL     1      -0.765   8.146  21.237  0.00  0.00    +0.000 C 
ATOM      9  C   UNL     1       1.325   6.900  21.039  0.00  0.00    +0.000 C 
ATOM     10  C   UNL     1       2.176   6.434  20.133  0.00  0.00    +0.000 C 
ATOM     11  C   UNL     1       2.762   5.130  20.149  0.00  0.00    +0.000 C 
ATOM     12  C   UNL     1       3.635   4.725  19.197  0.00  0.00    +0.000 C 
ENDROOT
BRANCH   1  16
ATOM     13  C   UNL     1       5.737   4.379  14.481  0.00  0.00    +0.000 A 
ATOM     14  C   UNL     1       5.155   3.439  15.344  0.00  0.00    +0.000 A 
ATOM     15  C   UNL     1       4.561   3.848  16.544  0.00  0.00    +0.000 A 
ATOM     16  C   UNL     1       4.530   5.199  16.910  0.00  0.00    +0.000 A 
ATOM     17  C   UNL     1       5.161   6.116  16.046  0.00  0.00    +0.000 A 
ATOM     18  C   UNL     1       5.707   5.727  14.828  0.00  0.00    +0.000 A 
BRANCH  13  20
ATOM     19  C   UNL     1       5.470   3.232  12.266  0.00  0.00    +0.000 C 
ATOM     20  C   UNL     1       6.416   3.946  13.212  0.00  0.00    +0.000 C 
ENDBRANCH  13  20
ENDBRANCH   1  16
BRANCH  12  21
ATOM     21  N   UNL     1       4.280   3.498  19.352  0.00  0.00    +0.000 N 
ATOM     22  H   UNL     1       3.755   2.654  19.142  0.00  0.00    +0.000 HD
ATOM     23  H   UNL     1       5.251   3.461  19.073  0.00  0.00    +0.000 HD
ENDBRANCH  12  21
BRANCH  11  24
ATOM     24  C   UNL     1       2.403   4.142  21.247  0.00  0.00    +0.000 C 
ATOM     25  N   UNL     1       2.105   3.323  22.159  0.00  0.00    +0.000 NA
ENDBRANCH  11  24
TORSDOF 4
ENDMDL
MODEL 5
REMARK VINA RESULT:      -6.6      2.306      3.688
REMARK  Name = 
REMARK  7 active torsions:
REMARK  status: ('A' for Active; 'I' for Inactive)
REMARK    1  A    between atoms: C_1  and  C_2
REMARK    2  A    between atoms: C_2  and  C_3
REMARK    3  A    between atoms: C_6  and  N_7
REMARK    4  A    between atoms: C_12  and  C_13
REMARK    5  A    between atoms: C_12  and  C_14
REMARK    6  A    between atoms: C_17  and  C_18
REMARK    7  A    between atoms: C_20  and  N_21
REMARK                            x       y       z     vdW  Elec       q    Type
REMARK                         _______ _______ _______ _____ _____    ______ ____
ROOT
ATOM      1  N   UNL     1       1.855   7.598  19.926  0.00  0.00    +0.000 N 
ATOM      2  N   UNL     1       1.681   6.449  20.708  0.00  0.00    +0.000 NA
ATOM      3  C   UNL     1       2.205   5.344  20.269  0.00  0.00    +0.000 C 
ATOM      4  C   UNL     1       2.103   4.060  21.084  0.00  0.00    +0.000 C 
ATOM      5  O   UNL     1       2.098   2.892  20.276  0.00  0.00    +0.000 OA
ATOM      6  C   UNL     1       3.184   2.769  19.353  0.00  0.00    +0.000 C 
ATOM      7  C   UNL     1       4.468   2.321  20.052  0.00  0.00    +0.000 C 
ATOM      8  C   UNL     1       2.751   1.738  18.305  0.00  0.00    +0.000 C 
ATOM      9  C   UNL     1       3.440   4.058  18.626  0.00  0.00    +0.000 C 
ATOM     10  C   UNL     1       2.970   5.239  19.011  0.00  0.00    +0.000 C 
ATOM     11  C   UNL     1       3.227   6.481  18.352  0.00  0.00    +0.000 C 
ATOM     12  C   UNL     1       2.725   7.652  18.808  0.00  0.00    +0.000 C 
ENDROOT
BRANCH   1  16
ATOM     13  C   UNL     1      -0.577  10.909  21.075  0.00  0.00    +0.000 A 
ATOM     14  C   UNL     1      -0.033  10.052  22.041  0.00  0.00    +0.000 A 
ATOM     15  C   UNL     1       0.755   8.959  21.658  0.00  0.00    +0.000 A 
ATOM     16  C   UNL     1       1.019   8.698  20.309  0.00  0.00    +0.000 A 
ATOM     17  C   UNL     1       0.424   9.549  19.358  0.00  0.00    +0.000 A 
ATOM     18  C   UNL     1      -0.316  10.667  19.729  0.00  0.00    +0.000 A 
BRANCH  13  20
ATOM     19  C   UNL     1      -1.481  12.278  22.973  0.00  0.00    +0.000 C 
ATOM     20  C   UNL     1      -1.460  12.059  21.472  0.00  0.00    +0.000 C 
ENDBRANCH  13  20
ENDBRANCH   1  16
BRANCH  12  21
ATOM     21  N   UNL     1       3.133   8.841  18.204  0.00  0.00    +0.000 N 
ATOM     22  H   UNL     1       2.630   9.692  18.439  0.00  0.00    +0.000 HD
ATOM     23  H   UNL     1       4.128   8.969  18.087  0.00  0.00    +0.000 HD
ENDBRANCH  12  21
BRANCH  11  24
ATOM     24  C   UNL     1       4.075   6.517  17.090  0.00  0.00    +0.000 C 
ATOM     25  N   UNL     1       4.780   6.547  16.044  0.00  0.00    +0.000 NA
ENDBRANCH  11  24
TORSDOF 4
ENDMDL
MODEL 6
REMARK VINA RESULT:      -6.6      2.190      3.608
REMARK  Name = 
REMARK  7 active torsions:
REMARK  status: ('A' for Active; 'I' for Inactive)
REMARK    1  A    between atoms: C_1  and  C_2
REMARK    2  A    between atoms: C_2  and  C_3
REMARK    3  A    between atoms: C_6  and  N_7
REMARK    4  A    between atoms: C_12  and  C_13
REMARK    5  A    between atoms: C_12  and  C_14
REMARK    6  A    between atoms: C_17  and  C_18
REMARK    7  A    between atoms: C_20  and  N_21
REMARK                            x       y       z     vdW  Elec       q    Type
REMARK                         _______ _______ _______ _____ _____    ______ ____
ROOT
ATOM      1  N   UNL     1       2.143   7.504  19.405  0.00  0.00    +0.000 N 
ATOM      2  N   UNL     1       1.896   6.453  20.297  0.00  0.00    +0.000 NA
ATOM      3  C   UNL     1       2.405   5.293  20.008  0.00  0.00    +0.000 C 
ATOM      4  C   UNL     1       2.225   4.110  20.952  0.00  0.00    +0.000 C 
ATOM      5  O   UNL     1       2.222   2.860  20.276  0.00  0.00    +0.000 OA
ATOM      6  C   UNL     1       3.347   2.609  19.428  0.00  0.00    +0.000 C 
ATOM      7  C   UNL     1       4.581   2.207  20.237  0.00  0.00    +0.000 C 
ATOM      8  C   UNL     1       2.932   1.480  18.478  0.00  0.00    +0.000 C 
ATOM      9  C   UNL     1       3.677   3.802  18.580  0.00  0.00    +0.000 C 
ATOM     10  C   UNL     1       3.227   5.031  18.810  0.00  0.00    +0.000 C 
ATOM     11  C   UNL     1       3.554   6.185  18.033  0.00  0.00    +0.000 C 
ATOM     12  C   UNL     1       3.067   7.412  18.334  0.00  0.00    +0.000 C 
ENDROOT
BRANCH   1  16
ATOM     13  C   UNL     1      -0.349  10.907  20.044  0.00  0.00    +0.000 A 
ATOM     14  C   UNL     1       0.008  10.515  18.746  0.00  0.00    +0.000 A 
ATOM     15  C   UNL     1       0.837   9.405  18.542  0.00  0.00    +0.000 A 
ATOM     16  C   UNL     1       1.325   8.661  19.622  0.00  0.00    +0.000 A 
ATOM     17  C   UNL     1       0.986   9.103  20.917  0.00  0.00    +0.000 A 
ATOM     18  C   UNL     1       0.123  10.172  21.128  0.00  0.00    +0.000 A 
BRANCH  13  20
ATOM     19  C   UNL     1      -2.453  12.122  19.420  0.00  0.00    +0.000 C 
ATOM     20  C   UNL     1      -1.201  12.123  20.277  0.00  0.00    +0.000 C 
ENDBRANCH  13  20
ENDBRANCH   1  16
BRANCH  12  21
ATOM     21  N   UNL     1       3.541   8.517  17.626  0.00  0.00    +0.000 N 
ATOM     22  H   UNL     1       2.894   9.278  17.441  0.00  0.00    +0.000 HD
ATOM     23  H   UNL     1       4.482   8.817  17.836  0.00  0.00    +0.000 HD
ENDBRANCH  12  21
BRANCH  11  24
ATOM     24  C   UNL     1       4.463   6.061  16.820  0.00  0.00    +0.000 C 
ATOM     25  N   UNL     1       5.216   5.956  15.815  0.00  0.00    +0.000 NA
ENDBRANCH  11  24
TORSDOF 4
ENDMDL
MODEL 7
REMARK VINA RESULT:      -6.5      2.182      3.710
REMARK  Name = 
REMARK  7 active torsions:
REMARK  status: ('A' for Active; 'I' for Inactive)
REMARK    1  A    between atoms: C_1  and  C_2
REMARK    2  A    between atoms: C_2  and  C_3
REMARK    3  A    between atoms: C_6  and  N_7
REMARK    4  A    between atoms: C_12  and  C_13
REMARK    5  A    between atoms: C_12  and  C_14
REMARK    6  A    between atoms: C_17  and  C_18
REMARK    7  A    between atoms: C_20  and  N_21
REMARK                            x       y       z     vdW  Elec       q    Type
REMARK                         _______ _______ _______ _____ _____    ______ ____
ROOT
ATOM      1  N   UNL     1       2.133   7.609  19.284  0.00  0.00    +0.000 N 
ATOM      2  N   UNL     1       1.898   6.537  20.153  0.00  0.00    +0.000 NA
ATOM      3  C   UNL     1       2.439   5.395  19.853  0.00  0.00    +0.000 C 
ATOM      4  C   UNL     1       2.273   4.192  20.773  0.00  0.00    +0.000 C 
ATOM      5  O   UNL     1       2.310   2.954  20.076  0.00  0.00    +0.000 OA
ATOM      6  C   UNL     1       3.452   2.745  19.240  0.00  0.00    +0.000 C 
ATOM      7  C   UNL     1       4.684   2.358  20.061  0.00  0.00    +0.000 C 
ATOM      8  C   UNL     1       3.078   1.623  18.265  0.00  0.00    +0.000 C 
ATOM      9  C   UNL     1       3.766   3.960  18.418  0.00  0.00    +0.000 C 
ATOM     10  C   UNL     1       3.284   5.173  18.662  0.00  0.00    +0.000 C 
ATOM     11  C   UNL     1       3.594   6.349  17.911  0.00  0.00    +0.000 C 
ATOM     12  C   UNL     1       3.074   7.558  18.225  0.00  0.00    +0.000 C 
ENDROOT
BRANCH   1  16
ATOM     13  C   UNL     1      -0.338  11.019  19.966  0.00  0.00    +0.000 A 
ATOM     14  C   UNL     1       0.114  10.237  21.037  0.00  0.00    +0.000 A 
ATOM     15  C   UNL     1       0.914   9.111  20.808  0.00  0.00    +0.000 A 
ATOM     16  C   UNL     1       1.284   8.742  19.509  0.00  0.00    +0.000 A 
ATOM     17  C   UNL     1       0.780   9.520  18.448  0.00  0.00    +0.000 A 
ATOM     18  C   UNL     1       0.028  10.669  18.669  0.00  0.00    +0.000 A 
BRANCH  13  20
ATOM     19  C   UNL     1      -2.459  12.183  19.301  0.00  0.00    +0.000 C 
ATOM     20  C   UNL     1      -1.235  12.203  20.197  0.00  0.00    +0.000 C 
ENDBRANCH  13  20
ENDBRANCH   1  16
BRANCH  12  21
ATOM     21  N   UNL     1       3.531   8.686  17.543  0.00  0.00    +0.000 N 
ATOM     22  H   UNL     1       3.852   8.567  16.586  0.00  0.00    +0.000 HD
ATOM     23  H   UNL     1       3.027   9.546  17.706  0.00  0.00    +0.000 HD
ENDBRANCH  12  21
BRANCH  11  24
ATOM     24  C   UNL     1       4.523   6.267  16.709  0.00  0.00    +0.000 C 
ATOM     25  N   UNL     1       5.293   6.200  15.713  0.00  0.00    +0.000 NA
ENDBRANCH  11  24
TORSDOF 4
ENDMDL
MODEL 8
REMARK VINA RESULT:      -6.5      2.900      7.683
REMARK  Name = 
REMARK  7 active torsions:
REMARK  status: ('A' for Active; 'I' for Inactive)
REMARK    1  A    between atoms: C_1  and  C_2
REMARK    2  A    between atoms: C_2  and  C_3
REMARK    3  A    between atoms: C_6  and  N_7
REMARK    4  A    between atoms: C_12  and  C_13
REMARK    5  A    between atoms: C_12  and  C_14
REMARK    6  A    between atoms: C_17  and  C_18
REMARK    7  A    between atoms: C_20  and  N_21
REMARK                            x       y       z     vdW  Elec       q    Type
REMARK                         _______ _______ _______ _____ _____    ______ ____
ROOT
ATOM      1  N   UNL     1       1.629   8.584  19.219  0.00  0.00    +0.000 N 
ATOM      2  N   UNL     1       1.142   9.529  18.307  0.00  0.00    +0.000 NA
ATOM      3  C   UNL     1       0.314  10.422  18.758  0.00  0.00    +0.000 C 
ATOM      4  C   UNL     1      -0.224  11.515  17.841  0.00  0.00    +0.000 C 
ATOM      5  O   UNL     1      -1.518  11.964  18.218  0.00  0.00    +0.000 OA
ATOM      6  C   UNL     1      -1.658  12.389  19.577  0.00  0.00    +0.000 C 
ATOM      7  C   UNL     1      -1.074  13.786  19.792  0.00  0.00    +0.000 C 
ATOM      8  C   UNL     1      -3.160  12.378  19.884  0.00  0.00    +0.000 C 
ATOM      9  C   UNL     1      -1.005  11.427  20.527  0.00  0.00    +0.000 C 
ATOM     10  C   UNL     1      -0.128  10.498  20.164  0.00  0.00    +0.000 C 
ATOM     11  C   UNL     1       0.528   9.594  21.056  0.00  0.00    +0.000 C 
ATOM     12  C   UNL     1       1.423   8.678  20.618  0.00  0.00    +0.000 C 
ENDROOT
BRANCH   1  16
ATOM     13  C   UNL     1       3.651   5.267  17.454  0.00  0.00    +0.000 A 
ATOM     14  C   UNL     1       4.112   6.576  17.254  0.00  0.00    +0.000 A 
ATOM     15  C   UNL     1       3.438   7.662  17.825  0.00  0.00    +0.000 A 
ATOM     16  C   UNL     1       2.294   7.470  18.608  0.00  0.00    +0.000 A 
ATOM     17  C   UNL     1       1.827   6.149  18.757  0.00  0.00    +0.000 A 
ATOM     18  C   UNL     1       2.518   5.060  18.238  0.00  0.00    +0.000 A 
BRANCH  13  20
ATOM     19  C   UNL     1       5.293   4.525  15.710  0.00  0.00    +0.000 C 
ATOM     20  C   UNL     1       4.340   4.097  16.810  0.00  0.00    +0.000 C 
ENDBRANCH  13  20
ENDBRANCH   1  16
BRANCH  12  21
ATOM     21  N   UNL     1       2.133   7.928  21.555  0.00  0.00    +0.000 N 
ATOM     22  H   UNL     1       2.638   7.109  21.227  0.00  0.00    +0.000 HD
ATOM     23  H   UNL     1       2.612   8.446  22.278  0.00  0.00    +0.000 HD
ENDBRANCH  12  21
BRANCH  11  24
ATOM     24  C   UNL     1       0.222   9.629  22.546  0.00  0.00    +0.000 C 
ATOM     25  N   UNL     1      -0.034   9.658  23.780  0.00  0.00    +0.000 NA
ENDBRANCH  11  24
TORSDOF 4
ENDMDL
MODEL 9
REMARK VINA RESULT:      -6.5      3.282      8.416
REMARK  Name = 
REMARK  7 active torsions:
REMARK  status: ('A' for Active; 'I' for Inactive)
REMARK    1  A    between atoms: C_1  and  C_2
REMARK    2  A    between atoms: C_2  and  C_3
REMARK    3  A    between atoms: C_6  and  N_7
REMARK    4  A    between atoms: C_12  and  C_13
REMARK    5  A    between atoms: C_12  and  C_14
REMARK    6  A    between atoms: C_17  and  C_18
REMARK    7  A    between atoms: C_20  and  N_21
REMARK                            x       y       z     vdW  Elec       q    Type
REMARK                         _______ _______ _______ _____ _____    ______ ____
ROOT
ATOM      1  N   UNL     1       0.990   8.960  19.765  0.00  0.00    +0.000 N 
ATOM      2  N   UNL     1       0.585   8.896  21.103  0.00  0.00    +0.000 NA
ATOM      3  C   UNL     1      -0.052   9.921  21.585  0.00  0.00    +0.000 C 
ATOM      4  C   UNL     1      -0.570   9.910  23.017  0.00  0.00    +0.000 C 
ATOM      5  O   UNL     1      -0.626  11.207  23.595  0.00  0.00    +0.000 OA
ATOM      6  C   UNL     1      -1.350  12.190  22.847  0.00  0.00    +0.000 C 
ATOM      7  C   UNL     1      -2.861  12.016  23.008  0.00  0.00    +0.000 C 
ATOM      8  C   UNL     1      -0.903  13.556  23.379  0.00  0.00    +0.000 C 
ATOM      9  C   UNL     1      -0.998  12.145  21.389  0.00  0.00    +0.000 C 
ATOM     10  C   UNL     1      -0.373  11.131  20.802  0.00  0.00    +0.000 C 
ATOM     11  C   UNL     1      -0.056  11.055  19.410  0.00  0.00    +0.000 C 
ATOM     12  C   UNL     1       0.573   9.982  18.876  0.00  0.00    +0.000 C 
ENDROOT
BRANCH   1  16
ATOM     13  C   UNL     1       3.726   5.895  18.614  0.00  0.00    +0.000 A 
ATOM     14  C   UNL     1       2.995   5.792  19.805  0.00  0.00    +0.000 A 
ATOM     15  C   UNL     1       2.108   6.807  20.185  0.00  0.00    +0.000 A 
ATOM     16  C   UNL     1       1.927   7.942  19.388  0.00  0.00    +0.000 A 
ATOM     17  C   UNL     1       2.706   8.041  18.218  0.00  0.00    +0.000 A 
ATOM     18  C   UNL     1       3.550   7.016  17.806  0.00  0.00    +0.000 A 
BRANCH  13  20
ATOM     19  C   UNL     1       4.118   3.819  17.261  0.00  0.00    +0.000 C 
ATOM     20  C   UNL     1       4.714   4.834  18.219  0.00  0.00    +0.000 C 
ENDBRANCH  13  20
ENDBRANCH   1  16
BRANCH  12  21
ATOM     21  N   UNL     1       0.721   9.908  17.490  0.00  0.00    +0.000 N 
ATOM     22  H   UNL     1       1.660   9.807  17.116  0.00  0.00    +0.000 HD
ATOM     23  H   UNL     1       0.017   9.383  16.990  0.00  0.00    +0.000 HD
ENDBRANCH  12  21
BRANCH  11  24
ATOM     24  C   UNL     1      -0.412  12.204  18.479  0.00  0.00    +0.000 C 
ATOM     25  N   UNL     1      -0.707  13.156  17.707  0.00  0.00    +0.000 NA
ENDBRANCH  11  24
TORSDOF 4
ENDMDL
