MODEL 1
REMARK VINA RESULT:      -8.4      0.000      0.000
REMARK  Name = 
REMARK  5 active torsions:
REMARK  status: ('A' for Active; 'I' for Inactive)
REMARK    1  A    between atoms: C_1  and  N_2
REMARK    2  A    between atoms: N_2  and  C_19
REMARK    3  A    between atoms: C_3  and  C_5
REMARK    4  A    between atoms: N_11  and  C_12
REMARK    5  A    between atoms: C_12  and  C_13
REMARK                            x       y       z     vdW  Elec       q    Type
REMARK                         _______ _______ _______ _____ _____    ______ ____
ROOT
ATOM      1  C   UNL     1       5.143   5.002  18.514  0.00  0.00    +0.000 C 
ATOM      2  C   UNL     1       6.495   5.451  19.094  0.00  0.00    +0.000 C 
ATOM      3  O   UNL     1       7.537   4.541  18.739  0.00  0.00    +0.000 OA
ATOM      4  C   UNL     1       7.731   4.565  17.328  0.00  0.00    +0.000 C 
ATOM      5  C   UNL     1       6.470   4.384  16.477  0.00  0.00    +0.000 C 
ATOM      6  O   UNL     1       6.557   4.206  15.261  0.00  0.00    +0.000 OA
ATOM      7  N   UNL     1       5.270   4.383  17.172  0.00  0.00    +0.000 N 
ENDROOT
BRANCH   1  10
ATOM      8  C   UNL     1       2.790   5.455  20.349  0.00  0.00    +0.000 C 
ATOM      9  N   UNL     1       3.159   6.407  19.303  0.00  0.00    +0.000 N 
ATOM     10  C   UNL     1       4.241   6.268  18.426  0.00  0.00    +0.000 C 
ATOM     11  O   UNL     1       4.552   7.158  17.623  0.00  0.00    +0.000 OA
BRANCH   9  12
ATOM     12  C   UNL     1       2.311   7.558  19.191  0.00  0.00    +0.000 A 
ATOM     13  C   UNL     1       1.703   8.103  20.329  0.00  0.00    +0.000 A 
ATOM     14  C   UNL     1       0.916   9.255  20.232  0.00  0.00    +0.000 A 
ATOM     15  C   UNL     1       0.704   9.853  18.993  0.00  0.00    +0.000 A 
ATOM     16  C   UNL     1       1.294   9.313  17.851  0.00  0.00    +0.000 A 
ATOM     17  C   UNL     1       2.111   8.182  17.952  0.00  0.00    +0.000 A 
ENDBRANCH   9  12
ENDBRANCH   1  10
BRANCH   7  18
ATOM     18  C   UNL     1       4.054   3.975  16.471  0.00  0.00    +0.000 C 
BRANCH  18  19
ATOM     19  C   UNL     1       3.050   3.265  17.357  0.00  0.00    +0.000 A 
ATOM     20  C   UNL     1       3.435   2.155  18.122  0.00  0.00    +0.000 A 
ATOM     21  C   UNL     1       2.547   1.575  19.033  0.00  0.00    +0.000 A 
ATOM     22  C   UNL     1       1.261   2.091  19.181  0.00  0.00    +0.000 A 
ATOM     23  C   UNL     1       0.856   3.175  18.405  0.00  0.00    +0.000 A 
ATOM     24  C   UNL     1       1.745   3.758  17.500  0.00  0.00    +0.000 A 
ENDBRANCH  18  19
ENDBRANCH   7  18
TORSDOF 4
ENDMDL
MODEL 2
REMARK VINA RESULT:      -8.2      0.117      1.397
REMARK  Name = 
REMARK  5 active torsions:
REMARK  status: ('A' for Active; 'I' for Inactive)
REMARK    1  A    between atoms: C_1  and  N_2
REMARK    2  A    between atoms: N_2  and  C_19
REMARK    3  A    between atoms: C_3  and  C_5
REMARK    4  A    between atoms: N_11  and  C_12
REMARK    5  A    between atoms: C_12  and  C_13
REMARK                            x       y       z     vdW  Elec       q    Type
REMARK                         _______ _______ _______ _____ _____    ______ ____
ROOT
ATOM      1  C   UNL     1       5.155   5.026  18.531  0.00  0.00    +0.000 C 
ATOM      2  C   UNL     1       6.524   5.479  19.068  0.00  0.00    +0.000 C 
ATOM      3  O   UNL     1       7.551   4.554  18.710  0.00  0.00    +0.000 OA
ATOM      4  C   UNL     1       7.711   4.543  17.294  0.00  0.00    +0.000 C 
ATOM      5  C   UNL     1       6.429   4.351  16.478  0.00  0.00    +0.000 C 
ATOM      6  O   UNL     1       6.486   4.144  15.265  0.00  0.00    +0.000 OA
ATOM      7  N   UNL     1       5.246   4.375  17.201  0.00  0.00    +0.000 N 
ENDROOT
BRANCH   1  10
ATOM      8  C   UNL     1       2.819   5.515  20.377  0.00  0.00    +0.000 C 
ATOM      9  N   UNL     1       3.186   6.452  19.318  0.00  0.00    +0.000 N 
ATOM     10  C   UNL     1       4.261   6.296  18.435  0.00  0.00    +0.000 C 
ATOM     11  O   UNL     1       4.571   7.175  17.619  0.00  0.00    +0.000 OA
BRANCH   9  12
ATOM     12  C   UNL     1       2.344   7.607  19.198  0.00  0.00    +0.000 A 
ATOM     13  C   UNL     1       2.112   8.187  17.944  0.00  0.00    +0.000 A 
ATOM     14  C   UNL     1       1.252   9.282  17.814  0.00  0.00    +0.000 A 
ATOM     15  C   UNL     1       0.643   9.828  18.942  0.00  0.00    +0.000 A 
ATOM     16  C   UNL     1       0.875   9.267  20.197  0.00  0.00    +0.000 A 
ATOM     17  C   UNL     1       1.706   8.148  20.323  0.00  0.00    +0.000 A 
ENDBRANCH   9  12
ENDBRANCH   1  10
BRANCH   7  18
ATOM     18  C   UNL     1       4.011   3.960  16.539  0.00  0.00    +0.000 C 
BRANCH  18  19
ATOM     19  C   UNL     1       2.987   3.363  17.482  0.00  0.00    +0.000 A 
ATOM     20  C   UNL     1       1.694   3.901  17.564  0.00  0.00    +0.000 A 
ATOM     21  C   UNL     1       0.711   3.277  18.337  0.00  0.00    +0.000 A 
ATOM     22  C   UNL     1       1.011   2.116  19.046  0.00  0.00    +0.000 A 
ATOM     23  C   UNL     1       2.298   1.588  18.998  0.00  0.00    +0.000 A 
ATOM     24  C   UNL     1       3.279   2.206  18.220  0.00  0.00    +0.000 A 
ENDBRANCH  18  19
ENDBRANCH   7  18
TORSDOF 4
ENDMDL
MODEL 3
REMARK VINA RESULT:      -7.6      2.420      6.053
REMARK  Name = 
REMARK  5 active torsions:
REMARK  status: ('A' for Active; 'I' for Inactive)
REMARK    1  A    between atoms: C_1  and  N_2
REMARK    2  A    between atoms: N_2  and  C_19
REMARK    3  A    between atoms: C_3  and  C_5
REMARK    4  A    between atoms: N_11  and  C_12
REMARK    5  A    between atoms: C_12  and  C_13
REMARK                            x       y       z     vdW  Elec       q    Type
REMARK                         _______ _______ _______ _____ _____    ______ ____
ROOT
ATOM      1  C   UNL     1       6.075   6.802  17.271  0.00  0.00    +0.000 C 
ATOM      2  C   UNL     1       7.578   6.806  17.601  0.00  0.00    +0.000 C 
ATOM      3  O   UNL     1       7.797   6.773  19.012  0.00  0.00    +0.000 OA
ATOM      4  C   UNL     1       7.321   5.539  19.541  0.00  0.00    +0.000 C 
ATOM      5  C   UNL     1       5.889   5.154  19.153  0.00  0.00    +0.000 C 
ATOM      6  O   UNL     1       5.327   4.207  19.703  0.00  0.00    +0.000 OA
ATOM      7  N   UNL     1       5.284   5.965  18.205  0.00  0.00    +0.000 N 
ENDROOT
BRANCH   1  10
ATOM      8  C   UNL     1       7.355   4.222  16.367  0.00  0.00    +0.000 C 
ATOM      9  N   UNL     1       6.561   5.056  15.468  0.00  0.00    +0.000 N 
ATOM     10  C   UNL     1       5.929   6.255  15.821  0.00  0.00    +0.000 C 
ATOM     11  O   UNL     1       5.194   6.865  15.033  0.00  0.00    +0.000 OA
BRANCH   9  12
ATOM     12  C   UNL     1       6.452   4.579  14.120  0.00  0.00    +0.000 A 
ATOM     13  C   UNL     1       7.432   4.905  13.173  0.00  0.00    +0.000 A 
ATOM     14  C   UNL     1       7.358   4.401  11.870  0.00  0.00    +0.000 A 
ATOM     15  C   UNL     1       6.286   3.595  11.494  0.00  0.00    +0.000 A 
ATOM     16  C   UNL     1       5.298   3.274  12.424  0.00  0.00    +0.000 A 
ATOM     17  C   UNL     1       5.391   3.747  13.737  0.00  0.00    +0.000 A 
ENDBRANCH   9  12
ENDBRANCH   1  10
BRANCH   7  18
ATOM     18  C   UNL     1       3.850   5.813  17.965  0.00  0.00    +0.000 C 
BRANCH  18  19
ATOM     19  C   UNL     1       3.020   6.967  18.489  0.00  0.00    +0.000 A 
ATOM     20  C   UNL     1       2.707   8.054  17.661  0.00  0.00    +0.000 A 
ATOM     21  C   UNL     1       1.840   9.058  18.100  0.00  0.00    +0.000 A 
ATOM     22  C   UNL     1       1.284   8.993  19.376  0.00  0.00    +0.000 A 
ATOM     23  C   UNL     1       1.610   7.935  20.220  0.00  0.00    +0.000 A 
ATOM     24  C   UNL     1       2.471   6.928  19.779  0.00  0.00    +0.000 A 
ENDBRANCH  18  19
ENDBRANCH   7  18
TORSDOF 4
ENDMDL
MODEL 4
REMARK VINA RESULT:      -7.5      2.436      5.966
REMARK  Name = 
REMARK  5 active torsions:
REMARK  status: ('A' for Active; 'I' for Inactive)
REMARK    1  A    between atoms: C_1  and  N_2
REMARK    2  A    between atoms: N_2  and  C_19
REMARK    3  A    between atoms: C_3  and  C_5
REMARK    4  A    between atoms: N_11  and  C_12
REMARK    5  A    between atoms: C_12  and  C_13
REMARK                            x       y       z     vdW  Elec       q    Type
REMARK                         _______ _______ _______ _____ _____    ______ ____
ROOT
ATOM      1  C   UNL     1       6.031   6.791  17.263  0.00  0.00    +0.000 C 
ATOM      2  C   UNL     1       7.528   6.892  17.607  0.00  0.00    +0.000 C 
ATOM      3  O   UNL     1       7.735   6.874  19.020  0.00  0.00    +0.000 OA
ATOM      4  C   UNL     1       7.335   5.612  19.545  0.00  0.00    +0.000 C 
ATOM      5  C   UNL     1       5.935   5.135  19.145  0.00  0.00    +0.000 C 
ATOM      6  O   UNL     1       5.430   4.154  19.691  0.00  0.00    +0.000 OA
ATOM      7  N   UNL     1       5.287   5.905  18.191  0.00  0.00    +0.000 N 
ENDROOT
BRANCH   1  10
ATOM      8  C   UNL     1       7.402   4.244  16.400  0.00  0.00    +0.000 C 
ATOM      9  N   UNL     1       6.606   5.054  15.479  0.00  0.00    +0.000 N 
ATOM     10  C   UNL     1       5.934   6.236  15.813  0.00  0.00    +0.000 C 
ATOM     11  O   UNL     1       5.202   6.823  15.005  0.00  0.00    +0.000 OA
BRANCH   9  12
ATOM     12  C   UNL     1       6.543   4.569  14.131  0.00  0.00    +0.000 A 
ATOM     13  C   UNL     1       5.501   3.722  13.732  0.00  0.00    +0.000 A 
ATOM     14  C   UNL     1       5.406   3.287  12.406  0.00  0.00    +0.000 A 
ATOM     15  C   UNL     1       6.369   3.670  11.475  0.00  0.00    +0.000 A 
ATOM     16  C   UNL     1       7.417   4.503  11.864  0.00  0.00    +0.000 A 
ATOM     17  C   UNL     1       7.493   4.968  13.181  0.00  0.00    +0.000 A 
ENDBRANCH   9  12
ENDBRANCH   1  10
BRANCH   7  18
ATOM     18  C   UNL     1       3.869   5.661  17.938  0.00  0.00    +0.000 C 
BRANCH  18  19
ATOM     19  C   UNL     1       2.962   6.765  18.441  0.00  0.00    +0.000 A 
ATOM     20  C   UNL     1       2.468   6.740  19.754  0.00  0.00    +0.000 A 
ATOM     21  C   UNL     1       1.736   7.817  20.260  0.00  0.00    +0.000 A 
ATOM     22  C   UNL     1       1.477   8.926  19.457  0.00  0.00    +0.000 A 
ATOM     23  C   UNL     1       1.936   8.952  18.143  0.00  0.00    +0.000 A 
ATOM     24  C   UNL     1       2.674   7.879  17.638  0.00  0.00    +0.000 A 
ENDBRANCH  18  19
ENDBRANCH   7  18
TORSDOF 4
ENDMDL
MODEL 5
REMARK VINA RESULT:      -7.5      2.041      4.374
REMARK  Name = 
REMARK  5 active torsions:
REMARK  status: ('A' for Active; 'I' for Inactive)
REMARK    1  A    between atoms: C_1  and  N_2
REMARK    2  A    between atoms: N_2  and  C_19
REMARK    3  A    between atoms: C_3  and  C_5
REMARK    4  A    between atoms: N_11  and  C_12
REMARK    5  A    between atoms: C_12  and  C_13
REMARK                            x       y       z     vdW  Elec       q    Type
REMARK                         _______ _______ _______ _____ _____    ______ ____
ROOT
ATOM      1  C   UNL     1       2.863   4.470  18.325  0.00  0.00    +0.000 C 
ATOM      2  C   UNL     1       1.753   3.444  18.042  0.00  0.00    +0.000 C 
ATOM      3  O   UNL     1       2.302   2.166  17.717  0.00  0.00    +0.000 OA
ATOM      4  C   UNL     1       2.991   1.641  18.849  0.00  0.00    +0.000 C 
ATOM      5  C   UNL     1       4.013   2.577  19.502  0.00  0.00    +0.000 C 
ATOM      6  O   UNL     1       4.785   2.155  20.363  0.00  0.00    +0.000 OA
ATOM      7  N   UNL     1       4.030   3.878  19.021  0.00  0.00    +0.000 N 
ENDROOT
BRANCH   1  10
ATOM      8  C   UNL     1       3.111   7.403  17.656  0.00  0.00    +0.000 C 
ATOM      9  N   UNL     1       2.400   6.930  18.842  0.00  0.00    +0.000 N 
ATOM     10  C   UNL     1       2.235   5.589  19.206  0.00  0.00    +0.000 C 
ATOM     11  O   UNL     1       1.542   5.254  20.177  0.00  0.00    +0.000 OA
BRANCH   9  12
ATOM     12  C   UNL     1       1.851   7.956  19.680  0.00  0.00    +0.000 A 
ATOM     13  C   UNL     1       1.383   9.152  19.122  0.00  0.00    +0.000 A 
ATOM     14  C   UNL     1       0.800  10.134  19.928  0.00  0.00    +0.000 A 
ATOM     15  C   UNL     1       0.710   9.943  21.305  0.00  0.00    +0.000 A 
ATOM     16  C   UNL     1       1.184   8.762  21.875  0.00  0.00    +0.000 A 
ATOM     17  C   UNL     1       1.733   7.763  21.064  0.00  0.00    +0.000 A 
ENDBRANCH   9  12
ENDBRANCH   1  10
BRANCH   7  18
ATOM     18  C   UNL     1       5.130   4.756  19.417  0.00  0.00    +0.000 C 
BRANCH  18  19
ATOM     19  C   UNL     1       6.018   5.176  18.264  0.00  0.00    +0.000 A 
ATOM     20  C   UNL     1       6.129   4.372  17.120  0.00  0.00    +0.000 A 
ATOM     21  C   UNL     1       6.846   4.814  16.005  0.00  0.00    +0.000 A 
ATOM     22  C   UNL     1       7.472   6.060  16.025  0.00  0.00    +0.000 A 
ATOM     23  C   UNL     1       7.395   6.855  17.165  0.00  0.00    +0.000 A 
ATOM     24  C   UNL     1       6.672   6.416  18.276  0.00  0.00    +0.000 A 
ENDBRANCH  18  19
ENDBRANCH   7  18
TORSDOF 4
ENDMDL
MODEL 6
REMARK VINA RESULT:      -7.4      2.131      4.503
REMARK  Name = 
REMARK  5 active torsions:
REMARK  status: ('A' for Active; 'I' for Inactive)
REMARK    1  A    between atoms: C_1  and  N_2
REMARK    2  A    between atoms: N_2  and  C_19
REMARK    3  A    between atoms: C_3  and  C_5
REMARK    4  A    between atoms: N_11  and  C_12
REMARK    5  A    between atoms: C_12  and  C_13
REMARK                            x       y       z     vdW  Elec       q    Type
REMARK                         _______ _______ _______ _____ _____    ______ ____
ROOT
ATOM      1  C   UNL     1       2.784   5.080  18.264  0.00  0.00    +0.000 C 
ATOM      2  C   UNL     1       1.640   4.325  17.563  0.00  0.00    +0.000 C 
ATOM      3  O   UNL     1       2.092   3.078  17.035  0.00  0.00    +0.000 OA
ATOM      4  C   UNL     1       2.481   2.220  18.104  0.00  0.00    +0.000 C 
ATOM      5  C   UNL     1       3.455   2.820  19.123  0.00  0.00    +0.000 C 
ATOM      6  O   UNL     1       3.990   2.106  19.972  0.00  0.00    +0.000 OA
ATOM      7  N   UNL     1       3.716   4.175  18.980  0.00  0.00    +0.000 N 
ENDROOT
BRANCH   1  10
ATOM      8  C   UNL     1       2.674   8.059  17.795  0.00  0.00    +0.000 C 
ATOM      9  N   UNL     1       2.123   7.438  18.997  0.00  0.00    +0.000 N 
ATOM     10  C   UNL     1       2.127   6.065  19.274  0.00  0.00    +0.000 C 
ATOM     11  O   UNL     1       1.560   5.597  20.270  0.00  0.00    +0.000 OA
BRANCH   9  12
ATOM     12  C   UNL     1       1.550   8.342  19.950  0.00  0.00    +0.000 A 
ATOM     13  C   UNL     1       1.674   8.095  21.324  0.00  0.00    +0.000 A 
ATOM     14  C   UNL     1       1.161   9.000  22.259  0.00  0.00    +0.000 A 
ATOM     15  C   UNL     1       0.490  10.143  21.829  0.00  0.00    +0.000 A 
ATOM     16  C   UNL     1       0.349  10.392  20.465  0.00  0.00    +0.000 A 
ATOM     17  C   UNL     1       0.894   9.507  19.529  0.00  0.00    +0.000 A 
ENDBRANCH   9  12
ENDBRANCH   1  10
BRANCH   7  18
ATOM     18  C   UNL     1       4.809   4.764  19.750  0.00  0.00    +0.000 C 
BRANCH  18  19
ATOM     19  C   UNL     1       5.841   5.474  18.898  0.00  0.00    +0.000 A 
ATOM     20  C   UNL     1       5.517   5.917  17.608  0.00  0.00    +0.000 A 
ATOM     21  C   UNL     1       6.423   6.681  16.868  0.00  0.00    +0.000 A 
ATOM     22  C   UNL     1       7.669   7.001  17.404  0.00  0.00    +0.000 A 
ATOM     23  C   UNL     1       8.016   6.542  18.672  0.00  0.00    +0.000 A 
ATOM     24  C   UNL     1       7.107   5.785  19.415  0.00  0.00    +0.000 A 
ENDBRANCH  18  19
ENDBRANCH   7  18
TORSDOF 4
ENDMDL
MODEL 7
REMARK VINA RESULT:      -7.4      2.070      4.278
REMARK  Name = 
REMARK  5 active torsions:
REMARK  status: ('A' for Active; 'I' for Inactive)
REMARK    1  A    between atoms: C_1  and  N_2
REMARK    2  A    between atoms: N_2  and  C_19
REMARK    3  A    between atoms: C_3  and  C_5
REMARK    4  A    between atoms: N_11  and  C_12
REMARK    5  A    between atoms: C_12  and  C_13
REMARK                            x       y       z     vdW  Elec       q    Type
REMARK                         _______ _______ _______ _____ _____    ______ ____
ROOT
ATOM      1  C   UNL     1       2.335   4.716  18.570  0.00  0.00    +0.000 C 
ATOM      2  C   UNL     1       1.281   3.603  18.703  0.00  0.00    +0.000 C 
ATOM      3  O   UNL     1       1.813   2.339  18.308  0.00  0.00    +0.000 OA
ATOM      4  C   UNL     1       2.850   1.955  19.207  0.00  0.00    +0.000 C 
ATOM      5  C   UNL     1       3.938   3.003  19.459  0.00  0.00    +0.000 C 
ATOM      6  O   UNL     1       4.964   2.704  20.070  0.00  0.00    +0.000 OA
ATOM      7  N   UNL     1       3.702   4.258  18.915  0.00  0.00    +0.000 N 
ENDROOT
BRANCH   1  10
ATOM      8  C   UNL     1       2.310   7.615  17.729  0.00  0.00    +0.000 C 
ATOM      9  N   UNL     1       1.932   7.189  19.074  0.00  0.00    +0.000 N 
ATOM     10  C   UNL     1       1.908   5.865  19.529  0.00  0.00    +0.000 C 
ATOM     11  O   UNL     1       1.487   5.567  20.656  0.00  0.00    +0.000 OA
BRANCH   9  12
ATOM     12  C   UNL     1       1.572   8.245  19.976  0.00  0.00    +0.000 A 
ATOM     13  C   UNL     1       1.102   9.469  19.482  0.00  0.00    +0.000 A 
ATOM     14  C   UNL     1       0.703  10.483  20.358  0.00  0.00    +0.000 A 
ATOM     15  C   UNL     1       0.801  10.296  21.734  0.00  0.00    +0.000 A 
ATOM     16  C   UNL     1       1.280   9.087  22.238  0.00  0.00    +0.000 A 
ATOM     17  C   UNL     1       1.645   8.058  21.363  0.00  0.00    +0.000 A 
ENDBRANCH   9  12
ENDBRANCH   1  10
BRANCH   7  18
ATOM     18  C   UNL     1       4.792   5.231  18.902  0.00  0.00    +0.000 C 
BRANCH  18  19
ATOM     19  C   UNL     1       5.594   5.229  17.617  0.00  0.00    +0.000 A 
ATOM     20  C   UNL     1       6.892   4.700  17.588  0.00  0.00    +0.000 A 
ATOM     21  C   UNL     1       7.587   4.581  16.381  0.00  0.00    +0.000 A 
ATOM     22  C   UNL     1       6.997   5.002  15.190  0.00  0.00    +0.000 A 
ATOM     23  C   UNL     1       5.720   5.558  15.209  0.00  0.00    +0.000 A 
ATOM     24  C   UNL     1       5.023   5.669  16.414  0.00  0.00    +0.000 A 
ENDBRANCH  18  19
ENDBRANCH   7  18
TORSDOF 4
ENDMDL
MODEL 8
REMARK VINA RESULT:      -7.3      2.422      5.052
REMARK  Name = 
REMARK  5 active torsions:
REMARK  status: ('A' for Active; 'I' for Inactive)
REMARK    1  A    between atoms: C_1  and  N_2
REMARK    2  A    between atoms: N_2  and  C_19
REMARK    3  A    between atoms: C_3  and  C_5
REMARK    4  A    between atoms: N_11  and  C_12
REMARK    5  A    between atoms: C_12  and  C_13
REMARK                            x       y       z     vdW  Elec       q    Type
REMARK                         _______ _______ _______ _____ _____    ______ ____
ROOT
ATOM      1  C   UNL     1       6.352   4.660  17.924  0.00  0.00    +0.000 C 
ATOM      2  C   UNL     1       6.932   5.714  18.884  0.00  0.00    +0.000 C 
ATOM      3  O   UNL     1       7.641   6.727  18.171  0.00  0.00    +0.000 OA
ATOM      4  C   UNL     1       6.734   7.456  17.349  0.00  0.00    +0.000 C 
ATOM      5  C   UNL     1       5.830   6.615  16.442  0.00  0.00    +0.000 C 
ATOM      6  O   UNL     1       5.148   7.152  15.568  0.00  0.00    +0.000 OA
ATOM      7  N   UNL     1       5.883   5.244  16.645  0.00  0.00    +0.000 N 
ENDROOT
BRANCH   1  10
ATOM      8  C   UNL     1       3.816   6.135  18.630  0.00  0.00    +0.000 C 
ATOM      9  N   UNL     1       4.020   4.728  18.967  0.00  0.00    +0.000 N 
ATOM     10  C   UNL     1       5.162   3.979  18.660  0.00  0.00    +0.000 C 
ATOM     11  O   UNL     1       5.231   2.765  18.894  0.00  0.00    +0.000 OA
BRANCH   9  12
ATOM     12  C   UNL     1       2.944   4.103  19.679  0.00  0.00    +0.000 A 
ATOM     13  C   UNL     1       1.837   3.595  18.986  0.00  0.00    +0.000 A 
ATOM     14  C   UNL     1       0.809   2.939  19.670  0.00  0.00    +0.000 A 
ATOM     15  C   UNL     1       0.862   2.815  21.057  0.00  0.00    +0.000 A 
ATOM     16  C   UNL     1       1.951   3.328  21.759  0.00  0.00    +0.000 A 
ATOM     17  C   UNL     1       2.999   3.951  21.071  0.00  0.00    +0.000 A 
ENDBRANCH   9  12
ENDBRANCH   1  10
BRANCH   7  18
ATOM     18  C   UNL     1       5.243   4.366  15.667  0.00  0.00    +0.000 C 
BRANCH  18  19
ATOM     19  C   UNL     1       6.005   4.250  14.363  0.00  0.00    +0.000 A 
ATOM     20  C   UNL     1       5.493   3.486  13.304  0.00  0.00    +0.000 A 
ATOM     21  C   UNL     1       6.129   3.477  12.060  0.00  0.00    +0.000 A 
ATOM     22  C   UNL     1       7.290   4.222  11.862  0.00  0.00    +0.000 A 
ATOM     23  C   UNL     1       7.826   4.961  12.914  0.00  0.00    +0.000 A 
ATOM     24  C   UNL     1       7.187   4.976  14.155  0.00  0.00    +0.000 A 
ENDBRANCH  18  19
ENDBRANCH   7  18
TORSDOF 4
ENDMDL
MODEL 9
REMARK VINA RESULT:      -7.3      2.084      4.339
REMARK  Name = 
REMARK  5 active torsions:
REMARK  status: ('A' for Active; 'I' for Inactive)
REMARK    1  A    between atoms: C_1  and  N_2
REMARK    2  A    between atoms: N_2  and  C_19
REMARK    3  A    between atoms: C_3  and  C_5
REMARK    4  A    between atoms: N_11  and  C_12
REMARK    5  A    between atoms: C_12  and  C_13
REMARK                            x       y       z     vdW  Elec       q    Type
REMARK                         _______ _______ _______ _____ _____    ______ ____
ROOT
ATOM      1  C   UNL     1       2.605   4.532  18.450  0.00  0.00    +0.000 C 
ATOM      2  C   UNL     1       1.485   3.491  18.278  0.00  0.00    +0.000 C 
ATOM      3  O   UNL     1       2.019   2.210  17.941  0.00  0.00    +0.000 OA
ATOM      4  C   UNL     1       2.798   1.716  19.026  0.00  0.00    +0.000 C 
ATOM      5  C   UNL     1       3.859   2.674  19.577  0.00  0.00    +0.000 C 
ATOM      6  O   UNL     1       4.700   2.278  20.385  0.00  0.00    +0.000 OA
ATOM      7  N   UNL     1       3.828   3.964  19.067  0.00  0.00    +0.000 N 
ENDROOT
BRANCH   1  10
ATOM      8  C   UNL     1       2.863   7.455  17.747  0.00  0.00    +0.000 C 
ATOM      9  N   UNL     1       2.204   7.002  18.970  0.00  0.00    +0.000 N 
ATOM     10  C   UNL     1       2.037   5.666  19.353  0.00  0.00    +0.000 C 
ATOM     11  O   UNL     1       1.387   5.348  20.358  0.00  0.00    +0.000 OA
BRANCH   9  12
ATOM     12  C   UNL     1       1.712   8.041  19.826  0.00  0.00    +0.000 A 
ATOM     13  C   UNL     1       1.743   7.886  21.218  0.00  0.00    +0.000 A 
ATOM     14  C   UNL     1       1.312   8.917  22.059  0.00  0.00    +0.000 A 
ATOM     15  C   UNL     1       0.813  10.098  21.515  0.00  0.00    +0.000 A 
ATOM     16  C   UNL     1       0.765  10.260  20.131  0.00  0.00    +0.000 A 
ATOM     17  C   UNL     1       1.231   9.244  19.290  0.00  0.00    +0.000 A 
ENDBRANCH   9  12
ENDBRANCH   1  10
BRANCH   7  18
ATOM     18  C   UNL     1       4.947   4.859  19.355  0.00  0.00    +0.000 C 
BRANCH  18  19
ATOM     19  C   UNL     1       5.756   5.236  18.131  0.00  0.00    +0.000 A 
ATOM     20  C   UNL     1       6.546   6.394  18.127  0.00  0.00    +0.000 A 
ATOM     21  C   UNL     1       7.389   6.679  17.049  0.00  0.00    +0.000 A 
ATOM     22  C   UNL     1       7.443   5.814  15.957  0.00  0.00    +0.000 A 
ATOM     23  C   UNL     1       6.641   4.676  15.934  0.00  0.00    +0.000 A 
ATOM     24  C   UNL     1       5.804   4.388  17.014  0.00  0.00    +0.000 A 
ENDBRANCH  18  19
ENDBRANCH   7  18
TORSDOF 4
ENDMDL
