MODEL 1
REMARK VINA RESULT:      -8.0      0.000      0.000
REMARK  Name = 
REMARK  6 active torsions:
REMARK  status: ('A' for Active; 'I' for Inactive)
REMARK    1  A    between atoms: C_1  and  C_2
REMARK    2  A    between atoms: N_4  and  C_5
REMARK    3  A    between atoms: C_8  and  N_9
REMARK    4  A    between atoms: N_9  and  C_10
REMARK    5  A    between atoms: C_10  and  C_11
REMARK    6  A    between atoms: C_10  and  C_12
REMARK                            x       y       z     vdW  Elec       q    Type
REMARK                         _______ _______ _______ _____ _____    ______ ____
ROOT
ATOM      1  N   UNL     1       4.701   5.873  18.359  0.00  0.00    +0.000 NA
ATOM      2  H   UNL     1       4.763   6.310  19.278  0.00  0.00    +0.000 HD
ENDROOT
BRANCH   1   6
ATOM      3  C   UNL     1       6.833   4.442  15.711  0.00  0.00    +0.000 C 
ATOM      4  C   UNL     1       7.322   4.759  17.137  0.00  0.00    +0.000 C 
ATOM      5  C   UNL     1       7.054   6.216  17.520  0.00  0.00    +0.000 C 
ATOM      6  C   UNL     1       5.565   6.582  17.408  0.00  0.00    +0.000 C 
ATOM      7  C   UNL     1       5.087   6.263  15.977  0.00  0.00    +0.000 C 
ATOM      8  C   UNL     1       5.342   4.797  15.575  0.00  0.00    +0.000 C 
BRANCH   3  12
ATOM      9  C   UNL     1       8.370   5.844  12.532  0.00  0.00    +0.000 C 
ATOM     10  C   UNL     1       7.485   4.928  13.335  0.00  0.00    +0.000 C 
ATOM     11  O   UNL     1       6.788   4.064  12.828  0.00  0.00    +0.000 OA
ATOM     12  N   UNL     1       7.572   5.174  14.688  0.00  0.00    +0.000 N 
ATOM     13  H   UNL     1       7.980   6.063  14.953  0.00  0.00    +0.000 HD
ENDBRANCH   3  12
ENDBRANCH   1   6
BRANCH   1  14
ATOM     14  C   UNL     1       3.270   5.812  18.018  0.00  0.00    +0.000 C 
ATOM     15  C   UNL     1       2.587   4.550  18.538  0.00  0.00    +0.000 C 
BRANCH  14  16
ATOM     16  C   UNL     1       2.612   7.038  18.576  0.00  0.00    +0.000 A 
ATOM     17  C   UNL     1       2.176   8.223  18.014  0.00  0.00    +0.000 A 
ATOM     18  C   UNL     1       1.532   8.950  19.044  0.00  0.00    +0.000 A 
ATOM     19  C   UNL     1       0.853  10.175  19.134  0.00  0.00    +0.000 A 
ATOM     20  C   UNL     1       0.302  10.551  20.371  0.00  0.00    +0.000 A 
ATOM     21  C   UNL     1       0.436   9.733  21.497  0.00  0.00    +0.000 A 
ATOM     22  C   UNL     1       1.120   8.515  21.427  0.00  0.00    +0.000 A 
ATOM     23  C   UNL     1       1.638   8.163  20.186  0.00  0.00    +0.000 A 
ATOM     24  O   UNL     1       2.298   7.008  19.905  0.00  0.00    +0.000 OA
ENDBRANCH  14  16
ENDBRANCH   1  14
TORSDOF 4
ENDMDL
MODEL 2
REMARK VINA RESULT:      -7.6      0.551      1.262
REMARK  Name = 
REMARK  6 active torsions:
REMARK  status: ('A' for Active; 'I' for Inactive)
REMARK    1  A    between atoms: C_1  and  C_2
REMARK    2  A    between atoms: N_4  and  C_5
REMARK    3  A    between atoms: C_8  and  N_9
REMARK    4  A    between atoms: N_9  and  C_10
REMARK    5  A    between atoms: C_10  and  C_11
REMARK    6  A    between atoms: C_10  and  C_12
REMARK                            x       y       z     vdW  Elec       q    Type
REMARK                         _______ _______ _______ _____ _____    ______ ____
ROOT
ATOM      1  N   UNL     1       4.666   5.816  18.421  0.00  0.00    +0.000 NA
ATOM      2  H   UNL     1       4.717   6.252  19.342  0.00  0.00    +0.000 HD
ENDROOT
BRANCH   1   6
ATOM      3  C   UNL     1       6.811   4.401  15.775  0.00  0.00    +0.000 C 
ATOM      4  C   UNL     1       7.292   4.708  17.206  0.00  0.00    +0.000 C 
ATOM      5  C   UNL     1       7.024   6.162  17.597  0.00  0.00    +0.000 C 
ATOM      6  C   UNL     1       5.536   6.531  17.481  0.00  0.00    +0.000 C 
ATOM      7  C   UNL     1       5.065   6.222  16.044  0.00  0.00    +0.000 C 
ATOM      8  C   UNL     1       5.321   4.759  15.634  0.00  0.00    +0.000 C 
BRANCH   3  12
ATOM      9  C   UNL     1       8.354   5.834  12.613  0.00  0.00    +0.000 C 
ATOM     10  C   UNL     1       7.459   4.919  13.405  0.00  0.00    +0.000 C 
ATOM     11  O   UNL     1       6.746   4.074  12.886  0.00  0.00    +0.000 OA
ATOM     12  N   UNL     1       7.556   5.140  14.762  0.00  0.00    +0.000 N 
ATOM     13  H   UNL     1       7.979   6.017  15.040  0.00  0.00    +0.000 HD
ENDBRANCH   3  12
ENDBRANCH   1   6
BRANCH   1  14
ATOM     14  C   UNL     1       3.239   5.750  18.067  0.00  0.00    +0.000 C 
ATOM     15  C   UNL     1       2.642   4.358  18.254  0.00  0.00    +0.000 C 
BRANCH  14  16
ATOM     16  C   UNL     1       2.509   6.755  18.906  0.00  0.00    +0.000 A 
ATOM     17  C   UNL     1       2.146   6.798  20.238  0.00  0.00    +0.000 A 
ATOM     18  C   UNL     1       1.566   8.070  20.462  0.00  0.00    +0.000 A 
ATOM     19  C   UNL     1       1.043   8.753  21.571  0.00  0.00    +0.000 A 
ATOM     20  C   UNL     1       0.576  10.067  21.395  0.00  0.00    +0.000 A 
ATOM     21  C   UNL     1       0.616  10.683  20.140  0.00  0.00    +0.000 A 
ATOM     22  C   UNL     1       1.124  10.012  19.023  0.00  0.00    +0.000 A 
ATOM     23  C   UNL     1       1.595   8.721  19.233  0.00  0.00    +0.000 A 
ATOM     24  O   UNL     1       2.159   7.922  18.288  0.00  0.00    +0.000 OA
ENDBRANCH  14  16
ENDBRANCH   1  14
TORSDOF 4
ENDMDL
MODEL 3
REMARK VINA RESULT:      -7.4      1.554      2.127
REMARK  Name = 
REMARK  6 active torsions:
REMARK  status: ('A' for Active; 'I' for Inactive)
REMARK    1  A    between atoms: C_1  and  C_2
REMARK    2  A    between atoms: N_4  and  C_5
REMARK    3  A    between atoms: C_8  and  N_9
REMARK    4  A    between atoms: N_9  and  C_10
REMARK    5  A    between atoms: C_10  and  C_11
REMARK    6  A    between atoms: C_10  and  C_12
REMARK                            x       y       z     vdW  Elec       q    Type
REMARK                         _______ _______ _______ _____ _____    ______ ____
ROOT
ATOM      1  N   UNL     1       3.387   6.200  19.140  0.00  0.00    +0.000 NA
ATOM      2  H   UNL     1       3.687   7.160  19.307  0.00  0.00    +0.000 HD
ENDROOT
BRANCH   1   6
ATOM      3  C   UNL     1       5.960   4.520  17.101  0.00  0.00    +0.000 C 
ATOM      4  C   UNL     1       5.879   6.044  17.304  0.00  0.00    +0.000 C 
ATOM      5  C   UNL     1       4.506   6.598  16.915  0.00  0.00    +0.000 C 
ATOM      6  C   UNL     1       3.366   5.927  17.698  0.00  0.00    +0.000 C 
ATOM      7  C   UNL     1       3.455   4.402  17.486  0.00  0.00    +0.000 C 
ATOM      8  C   UNL     1       4.829   3.825  17.879  0.00  0.00    +0.000 C 
BRANCH   3  12
ATOM      9  C   UNL     1       6.360   3.968  13.363  0.00  0.00    +0.000 C 
ATOM     10  C   UNL     1       6.735   4.521  14.712  0.00  0.00    +0.000 C 
ATOM     11  O   UNL     1       7.706   5.240  14.889  0.00  0.00    +0.000 OA
ATOM     12  N   UNL     1       5.854   4.134  15.698  0.00  0.00    +0.000 N 
ATOM     13  H   UNL     1       5.252   3.350  15.474  0.00  0.00    +0.000 HD
ENDBRANCH   3  12
ENDBRANCH   1   6
BRANCH   1  14
ATOM     14  C   UNL     1       2.112   6.028  19.855  0.00  0.00    +0.000 C 
ATOM     15  C   UNL     1       2.225   5.099  21.060  0.00  0.00    +0.000 C 
BRANCH  14  16
ATOM     16  C   UNL     1       1.633   7.385  20.275  0.00  0.00    +0.000 A 
ATOM     17  C   UNL     1       1.595   8.616  19.650  0.00  0.00    +0.000 A 
ATOM     18  C   UNL     1       0.921   9.499  20.528  0.00  0.00    +0.000 A 
ATOM     19  C   UNL     1       0.521  10.844  20.487  0.00  0.00    +0.000 A 
ATOM     20  C   UNL     1      -0.185  11.370  21.582  0.00  0.00    +0.000 A 
ATOM     21  C   UNL     1      -0.475  10.581  22.699  0.00  0.00    +0.000 A 
ATOM     22  C   UNL     1      -0.073   9.242  22.761  0.00  0.00    +0.000 A 
ATOM     23  C   UNL     1       0.607   8.746  21.655  0.00  0.00    +0.000 A 
ATOM     24  O   UNL     1       1.044   7.467  21.505  0.00  0.00    +0.000 OA
ENDBRANCH  14  16
ENDBRANCH   1  14
TORSDOF 4
ENDMDL
MODEL 4
REMARK VINA RESULT:      -7.3      3.271      7.678
REMARK  Name = 
REMARK  6 active torsions:
REMARK  status: ('A' for Active; 'I' for Inactive)
REMARK    1  A    between atoms: C_1  and  C_2
REMARK    2  A    between atoms: N_4  and  C_5
REMARK    3  A    between atoms: C_8  and  N_9
REMARK    4  A    between atoms: N_9  and  C_10
REMARK    5  A    between atoms: C_10  and  C_11
REMARK    6  A    between atoms: C_10  and  C_12
REMARK                            x       y       z     vdW  Elec       q    Type
REMARK                         _______ _______ _______ _____ _____    ______ ____
ROOT
ATOM      1  N   UNL     1       6.604   4.976  18.334  0.00  0.00    +0.000 NA
ATOM      2  H   UNL     1       6.628   4.073  17.860  0.00  0.00    +0.000 HD
ENDROOT
BRANCH   1   6
ATOM      3  C   UNL     1       3.014   4.222  17.951  0.00  0.00    +0.000 C 
ATOM      4  C   UNL     1       3.611   5.640  17.878  0.00  0.00    +0.000 C 
ATOM      5  C   UNL     1       4.429   5.978  19.126  0.00  0.00    +0.000 C 
ATOM      6  C   UNL     1       5.563   4.969  19.369  0.00  0.00    +0.000 C 
ATOM      7  C   UNL     1       4.954   3.553  19.443  0.00  0.00    +0.000 C 
ATOM      8  C   UNL     1       4.131   3.192  18.190  0.00  0.00    +0.000 C 
BRANCH   3  12
ATOM      9  C   UNL     1       0.320   3.122  20.393  0.00  0.00    +0.000 C 
ATOM     10  C   UNL     1       1.245   2.967  19.215  0.00  0.00    +0.000 C 
ATOM     11  O   UNL     1       1.273   1.963  18.520  0.00  0.00    +0.000 OA
ATOM     12  N   UNL     1       2.028   4.083  19.017  0.00  0.00    +0.000 N 
ATOM     13  H   UNL     1       2.087   4.728  19.796  0.00  0.00    +0.000 HD
ENDBRANCH   3  12
ENDBRANCH   1   6
BRANCH   1  14
ATOM     14  C   UNL     1       6.472   5.999  17.284  0.00  0.00    +0.000 C 
ATOM     15  C   UNL     1       7.566   7.061  17.347  0.00  0.00    +0.000 C 
BRANCH  14  16
ATOM     16  C   UNL     1       6.487   5.301  15.958  0.00  0.00    +0.000 A 
ATOM     17  C   UNL     1       5.706   4.310  15.395  0.00  0.00    +0.000 A 
ATOM     18  C   UNL     1       6.149   4.150  14.061  0.00  0.00    +0.000 A 
ATOM     19  C   UNL     1       5.767   3.362  12.964  0.00  0.00    +0.000 A 
ATOM     20  C   UNL     1       6.454   3.519  11.748  0.00  0.00    +0.000 A 
ATOM     21  C   UNL     1       7.509   4.430  11.630  0.00  0.00    +0.000 A 
ATOM     22  C   UNL     1       7.910   5.214  12.717  0.00  0.00    +0.000 A 
ATOM     23  C   UNL     1       7.199   5.049  13.899  0.00  0.00    +0.000 A 
ATOM     24  O   UNL     1       7.408   5.742  15.050  0.00  0.00    +0.000 OA
ENDBRANCH  14  16
ENDBRANCH   1  14
TORSDOF 4
ENDMDL
MODEL 5
REMARK VINA RESULT:      -7.3      2.755      7.879
REMARK  Name = 
REMARK  6 active torsions:
REMARK  status: ('A' for Active; 'I' for Inactive)
REMARK    1  A    between atoms: C_1  and  C_2
REMARK    2  A    between atoms: N_4  and  C_5
REMARK    3  A    between atoms: C_8  and  N_9
REMARK    4  A    between atoms: N_9  and  C_10
REMARK    5  A    between atoms: C_10  and  C_11
REMARK    6  A    between atoms: C_10  and  C_12
REMARK                            x       y       z     vdW  Elec       q    Type
REMARK                         _______ _______ _______ _____ _____    ______ ____
ROOT
ATOM      1  N   UNL     1       5.162   6.291  17.546  0.00  0.00    +0.000 NA
ATOM      2  H   UNL     1       5.016   7.293  17.425  0.00  0.00    +0.000 HD
ENDROOT
BRANCH   1   6
ATOM      3  C   UNL     1       2.094   4.545  18.615  0.00  0.00    +0.000 C 
ATOM      4  C   UNL     1       2.253   6.077  18.592  0.00  0.00    +0.000 C 
ATOM      5  C   UNL     1       3.469   6.535  19.399  0.00  0.00    +0.000 C 
ATOM      6  C   UNL     1       4.773   5.889  18.903  0.00  0.00    +0.000 C 
ATOM      7  C   UNL     1       4.604   4.356  18.932  0.00  0.00    +0.000 C 
ATOM      8  C   UNL     1       3.386   3.875  18.118  0.00  0.00    +0.000 C 
BRANCH   3  12
ATOM      9  C   UNL     1       1.289   2.483  21.703  0.00  0.00    +0.000 C 
ATOM     10  C   UNL     1       1.576   2.703  20.241  0.00  0.00    +0.000 C 
ATOM     11  O   UNL     1       1.596   1.796  19.424  0.00  0.00    +0.000 OA
ATOM     12  N   UNL     1       1.796   4.031  19.948  0.00  0.00    +0.000 N 
ATOM     13  H   UNL     1       1.999   4.633  20.737  0.00  0.00    +0.000 HD
ENDBRANCH   3  12
ENDBRANCH   1   6
BRANCH   1  14
ATOM     14  C   UNL     1       6.556   6.020  17.161  0.00  0.00    +0.000 C 
ATOM     15  C   UNL     1       7.328   5.244  18.225  0.00  0.00    +0.000 C 
BRANCH  14  16
ATOM     16  C   UNL     1       6.539   5.267  15.865  0.00  0.00    +0.000 A 
ATOM     17  C   UNL     1       5.771   4.226  15.380  0.00  0.00    +0.000 A 
ATOM     18  C   UNL     1       6.161   4.022  14.035  0.00  0.00    +0.000 A 
ATOM     19  C   UNL     1       5.760   3.175  12.991  0.00  0.00    +0.000 A 
ATOM     20  C   UNL     1       6.388   3.303  11.740  0.00  0.00    +0.000 A 
ATOM     21  C   UNL     1       7.403   4.243  11.536  0.00  0.00    +0.000 A 
ATOM     22  C   UNL     1       7.822   5.087  12.570  0.00  0.00    +0.000 A 
ATOM     23  C   UNL     1       7.169   4.949  13.789  0.00  0.00    +0.000 A 
ATOM     24  O   UNL     1       7.404   5.699  14.900  0.00  0.00    +0.000 OA
ENDBRANCH  14  16
ENDBRANCH   1  14
TORSDOF 4
ENDMDL
MODEL 6
REMARK VINA RESULT:      -7.0      1.532      2.376
REMARK  Name = 
REMARK  6 active torsions:
REMARK  status: ('A' for Active; 'I' for Inactive)
REMARK    1  A    between atoms: C_1  and  C_2
REMARK    2  A    between atoms: N_4  and  C_5
REMARK    3  A    between atoms: C_8  and  N_9
REMARK    4  A    between atoms: N_9  and  C_10
REMARK    5  A    between atoms: C_10  and  C_11
REMARK    6  A    between atoms: C_10  and  C_12
REMARK                            x       y       z     vdW  Elec       q    Type
REMARK                         _______ _______ _______ _____ _____    ______ ____
ROOT
ATOM      1  N   UNL     1       3.388   6.406  19.074  0.00  0.00    +0.000 NA
ATOM      2  H   UNL     1       3.558   7.402  19.210  0.00  0.00    +0.000 HD
ENDROOT
BRANCH   1   6
ATOM      3  C   UNL     1       5.948   4.579  17.146  0.00  0.00    +0.000 C 
ATOM      4  C   UNL     1       5.914   6.111  17.302  0.00  0.00    +0.000 C 
ATOM      5  C   UNL     1       4.570   6.698  16.865  0.00  0.00    +0.000 C 
ATOM      6  C   UNL     1       3.390   6.090  17.641  0.00  0.00    +0.000 C 
ATOM      7  C   UNL     1       3.433   4.556  17.477  0.00  0.00    +0.000 C 
ATOM      8  C   UNL     1       4.777   3.946  17.918  0.00  0.00    +0.000 C 
BRANCH   3  12
ATOM      9  C   UNL     1       6.391   3.929  13.430  0.00  0.00    +0.000 C 
ATOM     10  C   UNL     1       6.747   4.523  14.766  0.00  0.00    +0.000 C 
ATOM     11  O   UNL     1       7.709   5.257  14.933  0.00  0.00    +0.000 OA
ATOM     12  N   UNL     1       5.860   4.154  15.754  0.00  0.00    +0.000 N 
ATOM     13  H   UNL     1       5.268   3.358  15.545  0.00  0.00    +0.000 HD
ENDBRANCH   3  12
ENDBRANCH   1   6
BRANCH   1  14
ATOM     14  C   UNL     1       2.155   6.086  19.811  0.00  0.00    +0.000 C 
ATOM     15  C   UNL     1       2.395   5.159  21.000  0.00  0.00    +0.000 C 
BRANCH  14  16
ATOM     16  C   UNL     1       1.539   7.376  20.261  0.00  0.00    +0.000 A 
ATOM     17  C   UNL     1       0.961   7.791  21.445  0.00  0.00    +0.000 A 
ATOM     18  C   UNL     1       0.662   9.166  21.292  0.00  0.00    +0.000 A 
ATOM     19  C   UNL     1       0.120  10.172  22.107  0.00  0.00    +0.000 A 
ATOM     20  C   UNL     1       0.010  11.474  21.589  0.00  0.00    +0.000 A 
ATOM     21  C   UNL     1       0.418  11.766  20.284  0.00  0.00    +0.000 A 
ATOM     22  C   UNL     1       0.950  10.773  19.455  0.00  0.00    +0.000 A 
ATOM     23  C   UNL     1       1.062   9.500  20.002  0.00  0.00    +0.000 A 
ATOM     24  O   UNL     1       1.587   8.414  19.374  0.00  0.00    +0.000 OA
ENDBRANCH  14  16
ENDBRANCH   1  14
TORSDOF 4
ENDMDL
MODEL 7
REMARK VINA RESULT:      -6.9      2.961      4.057
REMARK  Name = 
REMARK  6 active torsions:
REMARK  status: ('A' for Active; 'I' for Inactive)
REMARK    1  A    between atoms: C_1  and  C_2
REMARK    2  A    between atoms: N_4  and  C_5
REMARK    3  A    between atoms: C_8  and  N_9
REMARK    4  A    between atoms: N_9  and  C_10
REMARK    5  A    between atoms: C_10  and  C_11
REMARK    6  A    between atoms: C_10  and  C_12
REMARK                            x       y       z     vdW  Elec       q    Type
REMARK                         _______ _______ _______ _____ _____    ______ ____
ROOT
ATOM      1  N   UNL     1       6.417   5.795  17.450  0.00  0.00    +0.000 NA
ATOM      2  H   UNL     1       6.349   6.757  17.781  0.00  0.00    +0.000 HD
ENDROOT
BRANCH   1   6
ATOM      3  C   UNL     1       6.594   4.411  14.036  0.00  0.00    +0.000 C 
ATOM      4  C   UNL     1       6.571   5.917  14.357  0.00  0.00    +0.000 C 
ATOM      5  C   UNL     1       5.363   6.297  15.214  0.00  0.00    +0.000 C 
ATOM      6  C   UNL     1       5.311   5.504  16.530  0.00  0.00    +0.000 C 
ATOM      7  C   UNL     1       5.332   3.998  16.197  0.00  0.00    +0.000 C 
ATOM      8  C   UNL     1       6.547   3.594  15.339  0.00  0.00    +0.000 C 
BRANCH   3  12
ATOM      9  C   UNL     1       4.259   2.961  11.413  0.00  0.00    +0.000 C 
ATOM     10  C   UNL     1       5.590   3.214  12.070  0.00  0.00    +0.000 C 
ATOM     11  O   UNL     1       6.642   2.777  11.630  0.00  0.00    +0.000 OA
ATOM     12  N   UNL     1       5.474   3.998  13.197  0.00  0.00    +0.000 N 
ATOM     13  H   UNL     1       4.543   4.080  13.587  0.00  0.00    +0.000 HD
ENDBRANCH   3  12
ENDBRANCH   1   6
BRANCH   1  14
ATOM     14  C   UNL     1       6.509   4.944  18.647  0.00  0.00    +0.000 C 
ATOM     15  C   UNL     1       7.463   5.501  19.701  0.00  0.00    +0.000 C 
BRANCH  14  16
ATOM     16  C   UNL     1       5.129   4.791  19.211  0.00  0.00    +0.000 A 
ATOM     17  C   UNL     1       4.125   5.686  19.525  0.00  0.00    +0.000 A 
ATOM     18  C   UNL     1       3.004   4.918  19.922  0.00  0.00    +0.000 A 
ATOM     19  C   UNL     1       1.686   5.196  20.316  0.00  0.00    +0.000 A 
ATOM     20  C   UNL     1       0.829   4.122  20.609  0.00  0.00    +0.000 A 
ATOM     21  C   UNL     1       1.277   2.800  20.526  0.00  0.00    +0.000 A 
ATOM     22  C   UNL     1       2.591   2.506  20.146  0.00  0.00    +0.000 A 
ATOM     23  C   UNL     1       3.408   3.589  19.845  0.00  0.00    +0.000 A 
ATOM     24  O   UNL     1       4.698   3.512  19.421  0.00  0.00    +0.000 OA
ENDBRANCH  14  16
ENDBRANCH   1  14
TORSDOF 4
ENDMDL
MODEL 8
REMARK VINA RESULT:      -6.9      2.812      8.027
REMARK  Name = 
REMARK  6 active torsions:
REMARK  status: ('A' for Active; 'I' for Inactive)
REMARK    1  A    between atoms: C_1  and  C_2
REMARK    2  A    between atoms: N_4  and  C_5
REMARK    3  A    between atoms: C_8  and  N_9
REMARK    4  A    between atoms: N_9  and  C_10
REMARK    5  A    between atoms: C_10  and  C_11
REMARK    6  A    between atoms: C_10  and  C_12
REMARK                            x       y       z     vdW  Elec       q    Type
REMARK                         _______ _______ _______ _____ _____    ______ ____
ROOT
ATOM      1  N   UNL     1       5.080   5.917  16.698  0.00  0.00    +0.000 NA
ATOM      2  H   UNL     1       4.780   6.885  16.589  0.00  0.00    +0.000 HD
ENDROOT
BRANCH   1   6
ATOM      3  C   UNL     1       1.932   4.730  18.208  0.00  0.00    +0.000 C 
ATOM      4  C   UNL     1       2.410   6.194  18.246  0.00  0.00    +0.000 C 
ATOM      5  C   UNL     1       3.814   6.318  18.842  0.00  0.00    +0.000 C 
ATOM      6  C   UNL     1       4.847   5.474  18.077  0.00  0.00    +0.000 C 
ATOM      7  C   UNL     1       4.359   4.011  18.047  0.00  0.00    +0.000 C 
ATOM      8  C   UNL     1       2.948   3.865  17.444  0.00  0.00    +0.000 C 
BRANCH   3  12
ATOM      9  C   UNL     1       1.068   2.664  21.276  0.00  0.00    +0.000 C 
ATOM     10  C   UNL     1       1.083   2.990  19.807  0.00  0.00    +0.000 C 
ATOM     11  O   UNL     1       0.544   2.289  18.965  0.00  0.00    +0.000 OA
ATOM     12  N   UNL     1       1.757   4.161  19.540  0.00  0.00    +0.000 N 
ATOM     13  H   UNL     1       2.361   4.505  20.277  0.00  0.00    +0.000 HD
ENDBRANCH   3  12
ENDBRANCH   1   6
BRANCH   1  14
ATOM     14  C   UNL     1       6.471   5.852  16.219  0.00  0.00    +0.000 C 
ATOM     15  C   UNL     1       7.413   5.185  17.218  0.00  0.00    +0.000 C 
BRANCH  14  16
ATOM     16  C   UNL     1       6.475   5.116  14.914  0.00  0.00    +0.000 A 
ATOM     17  C   UNL     1       7.475   4.739  14.038  0.00  0.00    +0.000 A 
ATOM     18  C   UNL     1       6.860   3.964  13.026  0.00  0.00    +0.000 A 
ATOM     19  C   UNL     1       7.299   3.264  11.891  0.00  0.00    +0.000 A 
ATOM     20  C   UNL     1       6.354   2.559  11.127  0.00  0.00    +0.000 A 
ATOM     21  C   UNL     1       5.000   2.561  11.475  0.00  0.00    +0.000 A 
ATOM     22  C   UNL     1       4.544   3.263  12.596  0.00  0.00    +0.000 A 
ATOM     23  C   UNL     1       5.505   3.935  13.342  0.00  0.00    +0.000 A 
ATOM     24  O   UNL     1       5.270   4.638  14.482  0.00  0.00    +0.000 OA
ENDBRANCH  14  16
ENDBRANCH   1  14
TORSDOF 4
ENDMDL
MODEL 9
REMARK VINA RESULT:      -6.9      1.076      1.361
REMARK  Name = 
REMARK  6 active torsions:
REMARK  status: ('A' for Active; 'I' for Inactive)
REMARK    1  A    between atoms: C_1  and  C_2
REMARK    2  A    between atoms: N_4  and  C_5
REMARK    3  A    between atoms: C_8  and  N_9
REMARK    4  A    between atoms: N_9  and  C_10
REMARK    5  A    between atoms: C_10  and  C_11
REMARK    6  A    between atoms: C_10  and  C_12
REMARK                            x       y       z     vdW  Elec       q    Type
REMARK                         _______ _______ _______ _____ _____    ______ ____
ROOT
ATOM      1  N   UNL     1       4.241   5.660  18.263  0.00  0.00    +0.000 NA
ATOM      2  H   UNL     1       4.649   6.561  18.512  0.00  0.00    +0.000 HD
ENDROOT
BRANCH   1   6
ATOM      3  C   UNL     1       6.957   4.801  15.921  0.00  0.00    +0.000 C 
ATOM      4  C   UNL     1       6.562   6.242  16.294  0.00  0.00    +0.000 C 
ATOM      5  C   UNL     1       5.078   6.509  16.041  0.00  0.00    +0.000 C 
ATOM      6  C   UNL     1       4.172   5.529  16.803  0.00  0.00    +0.000 C 
ATOM      7  C   UNL     1       4.574   4.089  16.420  0.00  0.00    +0.000 C 
ATOM      8  C   UNL     1       6.065   3.799  16.675  0.00  0.00    +0.000 C 
BRANCH   3  12
ATOM      9  C   UNL     1       7.272   4.622  12.139  0.00  0.00    +0.000 C 
ATOM     10  C   UNL     1       7.650   5.077  13.523  0.00  0.00    +0.000 C 
ATOM     11  O   UNL     1       8.573   5.847  13.741  0.00  0.00    +0.000 OA
ATOM     12  N   UNL     1       6.832   4.537  14.491  0.00  0.00    +0.000 N 
ATOM     13  H   UNL     1       6.282   3.734  14.211  0.00  0.00    +0.000 HD
ENDBRANCH   3  12
ENDBRANCH   1   6
BRANCH   1  14
ATOM     14  C   UNL     1       2.963   5.563  18.987  0.00  0.00    +0.000 C 
ATOM     15  C   UNL     1       3.097   4.876  20.343  0.00  0.00    +0.000 C 
BRANCH  14  16
ATOM     16  C   UNL     1       2.418   6.950  19.148  0.00  0.00    +0.000 A 
ATOM     17  C   UNL     1       2.247   8.011  18.280  0.00  0.00    +0.000 A 
ATOM     18  C   UNL     1       1.575   9.026  19.003  0.00  0.00    +0.000 A 
ATOM     19  C   UNL     1       1.077  10.305  18.711  0.00  0.00    +0.000 A 
ATOM     20  C   UNL     1       0.414  11.018  19.724  0.00  0.00    +0.000 A 
ATOM     21  C   UNL     1       0.262  10.476  21.004  0.00  0.00    +0.000 A 
ATOM     22  C   UNL     1       0.762   9.208  21.315  0.00  0.00    +0.000 A 
ATOM     23  C   UNL     1       1.397   8.520  20.287  0.00  0.00    +0.000 A 
ATOM     24  O   UNL     1       1.914   7.266  20.377  0.00  0.00    +0.000 OA
ENDBRANCH  14  16
ENDBRANCH   1  14
TORSDOF 4
ENDMDL
