MODEL 1
REMARK VINA RESULT:      -7.5      0.000      0.000
REMARK  Name = 
REMARK  10 active torsions:
REMARK  status: ('A' for Active; 'I' for Inactive)
REMARK    1  A    between atoms: C_1  and  C_2
REMARK    2  A    between atoms: C_2  and  N_3
REMARK    3  A    between atoms: N_3  and  C_4
REMARK    4  A    between atoms: N_3  and  S_6
REMARK    5  A    between atoms: C_4  and  C_5
REMARK    6  A    between atoms: S_6  and  C_9
REMARK    7  A    between atoms: C_12  and  C_13
REMARK    8  A    between atoms: C_19  and  C_20
REMARK    9  A    between atoms: C_20  and  S_21
REMARK   10  A    between atoms: S_21  and  C_22
REMARK                            x       y       z     vdW  Elec       q    Type
REMARK                         _______ _______ _______ _____ _____    ______ ____
ROOT
ATOM      1  C   UNL     1       3.763   5.433  18.519  0.00  0.00    +0.000 A 
ATOM      2  C   UNL     1       3.043   5.376  19.713  0.00  0.00    +0.000 A 
ATOM      3  C   UNL     1       2.247   6.467  20.096  0.00  0.00    +0.000 A 
ATOM      4  C   UNL     1       2.173   7.626  19.301  0.00  0.00    +0.000 A 
ATOM      5  C   UNL     1       2.894   7.655  18.096  0.00  0.00    +0.000 A 
ATOM      6  C   UNL     1       3.683   6.566  17.705  0.00  0.00    +0.000 A 
ENDROOT
BRANCH   4   7
ATOM      7  C   UNL     1       1.365   8.797  19.812  0.00  0.00    +0.000 C 
ATOM      8  O   UNL     1       0.960   9.631  19.013  0.00  0.00    +0.000 OA
ATOM      9  N   UNL     1       1.165   8.839  21.171  0.00  0.00    +0.000 N 
ATOM     10  C   UNL     1       0.397   9.765  21.814  0.00  0.00    +0.000 A 
ATOM     11  N   UNL     1       0.318   9.893  23.121  0.00  0.00    +0.000 NA
ATOM     12  N   UNL     1      -0.595  10.890  23.365  0.00  0.00    +0.000 NA
ATOM     13  C   UNL     1      -1.045  11.270  22.186  0.00  0.00    +0.000 A 
ATOM     14  O   UNL     1      -0.438  10.616  21.145  0.00  0.00    +0.000 OA
ATOM     15  H   UNL     1       1.635   8.218  21.806  0.00  0.00    +0.000 HD
BRANCH  13  16
ATOM     16  C   UNL     1      -2.115  12.251  21.887  0.00  0.00    +0.000 C 
BRANCH  16  17
ATOM     17  S   UNL     1      -3.209  12.554  23.321  0.00  0.00    +0.000 S 
ATOM     18  C   UNL     1      -2.563  14.158  23.872  0.00  0.00    +0.000 C 
ENDBRANCH  16  17
ENDBRANCH  13  16
ENDBRANCH   4   7
BRANCH   1  19
ATOM     19  S   UNL     1       4.908   4.132  18.106  0.00  0.00    +0.000 S 
ATOM     20  O   UNL     1       4.165   3.143  17.352  0.00  0.00    +0.000 OA
ATOM     21  O   UNL     1       5.619   3.768  19.314  0.00  0.00    +0.000 OA
BRANCH  19  22
ATOM     22  N   UNL     1       6.042   4.874  17.050  0.00  0.00    +0.000 NA
BRANCH  22  24
ATOM     23  C   UNL     1       7.435   6.904  17.539  0.00  0.00    +0.000 C 
ATOM     24  C   UNL     1       7.262   5.404  17.726  0.00  0.00    +0.000 C 
ENDBRANCH  22  24
BRANCH  22  25
ATOM     25  C   UNL     1       6.296   4.088  15.800  0.00  0.00    +0.000 C 
ATOM     26  C   UNL     1       5.680   4.700  14.551  0.00  0.00    +0.000 C 
ENDBRANCH  22  25
ENDBRANCH  19  22
ENDBRANCH   1  19
TORSDOF 7
ENDMDL
MODEL 2
REMARK VINA RESULT:      -7.3      0.918      1.111
REMARK  Name = 
REMARK  10 active torsions:
REMARK  status: ('A' for Active; 'I' for Inactive)
REMARK    1  A    between atoms: C_1  and  C_2
REMARK    2  A    between atoms: C_2  and  N_3
REMARK    3  A    between atoms: N_3  and  C_4
REMARK    4  A    between atoms: N_3  and  S_6
REMARK    5  A    between atoms: C_4  and  C_5
REMARK    6  A    between atoms: S_6  and  C_9
REMARK    7  A    between atoms: C_12  and  C_13
REMARK    8  A    between atoms: C_19  and  C_20
REMARK    9  A    between atoms: C_20  and  S_21
REMARK   10  A    between atoms: S_21  and  C_22
REMARK                            x       y       z     vdW  Elec       q    Type
REMARK                         _______ _______ _______ _____ _____    ______ ____
ROOT
ATOM      1  C   UNL     1       3.810   5.576  18.433  0.00  0.00    +0.000 A 
ATOM      2  C   UNL     1       3.094   5.477  19.626  0.00  0.00    +0.000 A 
ATOM      3  C   UNL     1       2.274   6.541  20.033  0.00  0.00    +0.000 A 
ATOM      4  C   UNL     1       2.172   7.715  19.264  0.00  0.00    +0.000 A 
ATOM      5  C   UNL     1       2.891   7.787  18.058  0.00  0.00    +0.000 A 
ATOM      6  C   UNL     1       3.703   6.724  17.644  0.00  0.00    +0.000 A 
ENDROOT
BRANCH   4   7
ATOM      7  C   UNL     1       1.339   8.856  19.801  0.00  0.00    +0.000 C 
ATOM      8  O   UNL     1       0.861   9.662  19.014  0.00  0.00    +0.000 OA
ATOM      9  N   UNL     1       1.200   8.905  21.167  0.00  0.00    +0.000 N 
ATOM     10  C   UNL     1       0.424   9.804  21.837  0.00  0.00    +0.000 A 
ATOM     11  N   UNL     1       0.401   9.944  23.145  0.00  0.00    +0.000 NA
ATOM     12  N   UNL     1      -0.542  10.904  23.422  0.00  0.00    +0.000 NA
ATOM     13  C   UNL     1      -1.063  11.250  22.263  0.00  0.00    +0.000 A 
ATOM     14  O   UNL     1      -0.477  10.611  21.200  0.00  0.00    +0.000 OA
ATOM     15  H   UNL     1       1.727   8.312  21.786  0.00  0.00    +0.000 HD
BRANCH  13  16
ATOM     16  C   UNL     1      -2.187  12.182  22.004  0.00  0.00    +0.000 C 
BRANCH  16  17
ATOM     17  S   UNL     1      -2.435  12.501  20.221  0.00  0.00    +0.000 S 
ATOM     18  C   UNL     1      -4.192  12.956  20.227  0.00  0.00    +0.000 C 
ENDBRANCH  16  17
ENDBRANCH  13  16
ENDBRANCH   4   7
BRANCH   1  19
ATOM     19  S   UNL     1       4.984   4.310  17.990  0.00  0.00    +0.000 S 
ATOM     20  O   UNL     1       4.217   3.172  17.524  0.00  0.00    +0.000 OA
ATOM     21  O   UNL     1       5.925   4.178  19.083  0.00  0.00    +0.000 OA
BRANCH  19  22
ATOM     22  N   UNL     1       5.842   4.966  16.654  0.00  0.00    +0.000 NA
BRANCH  22  24
ATOM     23  C   UNL     1       7.445   6.778  17.321  0.00  0.00    +0.000 C 
ATOM     24  C   UNL     1       7.263   5.315  16.942  0.00  0.00    +0.000 C 
ENDBRANCH  22  24
BRANCH  22  25
ATOM     25  C   UNL     1       5.616   4.218  15.375  0.00  0.00    +0.000 C 
ATOM     26  C   UNL     1       6.689   4.455  14.324  0.00  0.00    +0.000 C 
ENDBRANCH  22  25
ENDBRANCH  19  22
ENDBRANCH   1  19
TORSDOF 7
ENDMDL
MODEL 3
REMARK VINA RESULT:      -7.1      1.071      1.591
REMARK  Name = 
REMARK  10 active torsions:
REMARK  status: ('A' for Active; 'I' for Inactive)
REMARK    1  A    between atoms: C_1  and  C_2
REMARK    2  A    between atoms: C_2  and  N_3
REMARK    3  A    between atoms: N_3  and  C_4
REMARK    4  A    between atoms: N_3  and  S_6
REMARK    5  A    between atoms: C_4  and  C_5
REMARK    6  A    between atoms: S_6  and  C_9
REMARK    7  A    between atoms: C_12  and  C_13
REMARK    8  A    between atoms: C_19  and  C_20
REMARK    9  A    between atoms: C_20  and  S_21
REMARK   10  A    between atoms: S_21  and  C_22
REMARK                            x       y       z     vdW  Elec       q    Type
REMARK                         _______ _______ _______ _____ _____    ______ ____
ROOT
ATOM      1  C   UNL     1       3.440   5.510  18.598  0.00  0.00    +0.000 A 
ATOM      2  C   UNL     1       3.391   6.667  17.819  0.00  0.00    +0.000 A 
ATOM      3  C   UNL     1       2.695   7.792  18.290  0.00  0.00    +0.000 A 
ATOM      4  C   UNL     1       2.033   7.769  19.532  0.00  0.00    +0.000 A 
ATOM      5  C   UNL     1       2.109   6.598  20.307  0.00  0.00    +0.000 A 
ATOM      6  C   UNL     1       2.809   5.476  19.844  0.00  0.00    +0.000 A 
ENDROOT
BRANCH   4   7
ATOM      7  C   UNL     1       1.233   8.983  19.942  0.00  0.00    +0.000 C 
ATOM      8  O   UNL     1       0.926   9.806  19.090  0.00  0.00    +0.000 OA
ATOM      9  N   UNL     1       0.925   9.074  21.278  0.00  0.00    +0.000 N 
ATOM     10  C   UNL     1       0.144  10.047  21.830  0.00  0.00    +0.000 A 
ATOM     11  N   UNL     1      -0.035  10.218  23.123  0.00  0.00    +0.000 NA
ATOM     12  N   UNL     1      -0.925  11.255  23.263  0.00  0.00    +0.000 NA
ATOM     13  C   UNL     1      -1.264  11.614  22.042  0.00  0.00    +0.000 A 
ATOM     14  O   UNL     1      -0.601  10.907  21.072  0.00  0.00    +0.000 OA
ATOM     15  H   UNL     1       1.318   8.457  21.967  0.00  0.00    +0.000 HD
BRANCH  13  16
ATOM     16  C   UNL     1      -2.268  12.624  21.628  0.00  0.00    +0.000 C 
BRANCH  16  17
ATOM     17  S   UNL     1      -2.810  12.402  19.896  0.00  0.00    +0.000 S 
ATOM     18  C   UNL     1      -4.601  12.621  20.100  0.00  0.00    +0.000 C 
ENDBRANCH  16  17
ENDBRANCH  13  16
ENDBRANCH   4   7
BRANCH   1  19
ATOM     19  S   UNL     1       4.169   4.023  17.941  0.00  0.00    +0.000 S 
ATOM     20  O   UNL     1       3.237   3.495  16.965  0.00  0.00    +0.000 OA
ATOM     21  O   UNL     1       4.613   3.217  19.060  0.00  0.00    +0.000 OA
BRANCH  19  22
ATOM     22  N   UNL     1       5.573   4.561  17.110  0.00  0.00    +0.000 NA
BRANCH  22  24
ATOM     23  C   UNL     1       7.290   6.197  17.932  0.00  0.00    +0.000 C 
ATOM     24  C   UNL     1       6.766   4.769  17.982  0.00  0.00    +0.000 C 
ENDBRANCH  22  24
BRANCH  22  25
ATOM     25  C   UNL     1       5.835   3.815  15.838  0.00  0.00    +0.000 C 
ATOM     26  C   UNL     1       6.107   4.713  14.641  0.00  0.00    +0.000 C 
ENDBRANCH  22  25
ENDBRANCH  19  22
ENDBRANCH   1  19
TORSDOF 7
ENDMDL
MODEL 4
REMARK VINA RESULT:      -6.9      1.322      1.677
REMARK  Name = 
REMARK  10 active torsions:
REMARK  status: ('A' for Active; 'I' for Inactive)
REMARK    1  A    between atoms: C_1  and  C_2
REMARK    2  A    between atoms: C_2  and  N_3
REMARK    3  A    between atoms: N_3  and  C_4
REMARK    4  A    between atoms: N_3  and  S_6
REMARK    5  A    between atoms: C_4  and  C_5
REMARK    6  A    between atoms: S_6  and  C_9
REMARK    7  A    between atoms: C_12  and  C_13
REMARK    8  A    between atoms: C_19  and  C_20
REMARK    9  A    between atoms: C_20  and  S_21
REMARK   10  A    between atoms: S_21  and  C_22
REMARK                            x       y       z     vdW  Elec       q    Type
REMARK                         _______ _______ _______ _____ _____    ______ ____
ROOT
ATOM      1  C   UNL     1       3.795   5.701  18.477  0.00  0.00    +0.000 A 
ATOM      2  C   UNL     1       3.823   6.758  17.566  0.00  0.00    +0.000 A 
ATOM      3  C   UNL     1       3.033   7.895  17.797  0.00  0.00    +0.000 A 
ATOM      4  C   UNL     1       2.201   7.984  18.929  0.00  0.00    +0.000 A 
ATOM      5  C   UNL     1       2.201   6.915  19.842  0.00  0.00    +0.000 A 
ATOM      6  C   UNL     1       2.994   5.781  19.619  0.00  0.00    +0.000 A 
ENDROOT
BRANCH   4   7
ATOM      7  C   UNL     1       1.314   9.198  19.076  0.00  0.00    +0.000 C 
ATOM      8  O   UNL     1       0.802   9.682  18.075  0.00  0.00    +0.000 OA
ATOM      9  N   UNL     1       1.169   9.683  20.353  0.00  0.00    +0.000 N 
ATOM     10  C   UNL     1       0.349  10.715  20.703  0.00  0.00    +0.000 A 
ATOM     11  N   UNL     1       0.315  11.272  21.895  0.00  0.00    +0.000 NA
ATOM     12  N   UNL     1      -0.673  12.226  21.856  0.00  0.00    +0.000 NA
ATOM     13  C   UNL     1      -1.206  12.152  20.653  0.00  0.00    +0.000 A 
ATOM     14  O   UNL     1      -0.587  11.229  19.849  0.00  0.00    +0.000 OA
ATOM     15  H   UNL     1       1.720   9.348  21.125  0.00  0.00    +0.000 HD
BRANCH  13  16
ATOM     16  C   UNL     1      -2.371  12.897  20.119  0.00  0.00    +0.000 C 
BRANCH  16  17
ATOM     17  S   UNL     1      -3.878  12.654  21.127  0.00  0.00    +0.000 S 
ATOM     18  C   UNL     1      -4.901  14.010  20.489  0.00  0.00    +0.000 C 
ENDBRANCH  16  17
ENDBRANCH  13  16
ENDBRANCH   4   7
BRANCH   1  19
ATOM     19  S   UNL     1       4.655   4.185  18.111  0.00  0.00    +0.000 S 
ATOM     20  O   UNL     1       3.759   3.378  17.309  0.00  0.00    +0.000 OA
ATOM     21  O   UNL     1       5.206   3.679  19.351  0.00  0.00    +0.000 OA
BRANCH  19  22
ATOM     22  N   UNL     1       5.976   4.666  17.124  0.00  0.00    +0.000 NA
BRANCH  22  24
ATOM     23  C   UNL     1       7.617   6.126  18.339  0.00  0.00    +0.000 C 
ATOM     24  C   UNL     1       7.288   4.729  17.833  0.00  0.00    +0.000 C 
ENDBRANCH  22  24
BRANCH  22  25
ATOM     25  C   UNL     1       6.005   3.982  15.791  0.00  0.00    +0.000 C 
ATOM     26  C   UNL     1       5.707   4.903  14.619  0.00  0.00    +0.000 C 
ENDBRANCH  22  25
ENDBRANCH  19  22
ENDBRANCH   1  19
TORSDOF 7
ENDMDL
MODEL 5
REMARK VINA RESULT:      -6.8      1.010      1.416
REMARK  Name = 
REMARK  10 active torsions:
REMARK  status: ('A' for Active; 'I' for Inactive)
REMARK    1  A    between atoms: C_1  and  C_2
REMARK    2  A    between atoms: C_2  and  N_3
REMARK    3  A    between atoms: N_3  and  C_4
REMARK    4  A    between atoms: N_3  and  S_6
REMARK    5  A    between atoms: C_4  and  C_5
REMARK    6  A    between atoms: S_6  and  C_9
REMARK    7  A    between atoms: C_12  and  C_13
REMARK    8  A    between atoms: C_19  and  C_20
REMARK    9  A    between atoms: C_20  and  S_21
REMARK   10  A    between atoms: S_21  and  C_22
REMARK                            x       y       z     vdW  Elec       q    Type
REMARK                         _______ _______ _______ _____ _____    ______ ____
ROOT
ATOM      1  C   UNL     1       3.305   5.592  18.653  0.00  0.00    +0.000 A 
ATOM      2  C   UNL     1       3.267   6.747  17.871  0.00  0.00    +0.000 A 
ATOM      3  C   UNL     1       2.585   7.881  18.339  0.00  0.00    +0.000 A 
ATOM      4  C   UNL     1       1.924   7.869  19.582  0.00  0.00    +0.000 A 
ATOM      5  C   UNL     1       1.989   6.700  20.360  0.00  0.00    +0.000 A 
ATOM      6  C   UNL     1       2.676   5.569  19.900  0.00  0.00    +0.000 A 
ENDROOT
BRANCH   4   7
ATOM      7  C   UNL     1       1.137   9.093  19.990  0.00  0.00    +0.000 C 
ATOM      8  O   UNL     1       0.872   9.936  19.143  0.00  0.00    +0.000 OA
ATOM      9  N   UNL     1       0.793   9.169  21.318  0.00  0.00    +0.000 N 
ATOM     10  C   UNL     1       0.017  10.149  21.864  0.00  0.00    +0.000 A 
ATOM     11  N   UNL     1      -0.195  10.303  23.154  0.00  0.00    +0.000 NA
ATOM     12  N   UNL     1      -1.067  11.356  23.286  0.00  0.00    +0.000 NA
ATOM     13  C   UNL     1      -1.364  11.741  22.061  0.00  0.00    +0.000 A 
ATOM     14  O   UNL     1      -0.688  11.036  21.099  0.00  0.00    +0.000 OA
ATOM     15  H   UNL     1       1.154   8.532  22.007  0.00  0.00    +0.000 HD
BRANCH  13  16
ATOM     16  C   UNL     1      -2.334  12.779  21.636  0.00  0.00    +0.000 C 
BRANCH  16  17
ATOM     17  S   UNL     1      -1.887  14.445  22.243  0.00  0.00    +0.000 S 
ATOM     18  C   UNL     1      -0.110  14.445  21.870  0.00  0.00    +0.000 C 
ENDBRANCH  16  17
ENDBRANCH  13  16
ENDBRANCH   4   7
BRANCH   1  19
ATOM     19  S   UNL     1       4.017   4.096  18.000  0.00  0.00    +0.000 S 
ATOM     20  O   UNL     1       3.072   3.568  17.037  0.00  0.00    +0.000 OA
ATOM     21  O   UNL     1       4.466   3.295  19.120  0.00  0.00    +0.000 OA
BRANCH  19  22
ATOM     22  N   UNL     1       5.417   4.618  17.152  0.00  0.00    +0.000 NA
BRANCH  22  24
ATOM     23  C   UNL     1       7.361   6.149  17.568  0.00  0.00    +0.000 C 
ATOM     24  C   UNL     1       6.592   4.917  18.021  0.00  0.00    +0.000 C 
ENDBRANCH  22  24
BRANCH  22  25
ATOM     25  C   UNL     1       5.717   3.798  15.934  0.00  0.00    +0.000 C 
ATOM     26  C   UNL     1       5.521   4.543  14.624  0.00  0.00    +0.000 C 
ENDBRANCH  22  25
ENDBRANCH  19  22
ENDBRANCH   1  19
TORSDOF 7
ENDMDL
MODEL 6
REMARK VINA RESULT:      -6.7      1.020      1.791
REMARK  Name = 
REMARK  10 active torsions:
REMARK  status: ('A' for Active; 'I' for Inactive)
REMARK    1  A    between atoms: C_1  and  C_2
REMARK    2  A    between atoms: C_2  and  N_3
REMARK    3  A    between atoms: N_3  and  C_4
REMARK    4  A    between atoms: N_3  and  S_6
REMARK    5  A    between atoms: C_4  and  C_5
REMARK    6  A    between atoms: S_6  and  C_9
REMARK    7  A    between atoms: C_12  and  C_13
REMARK    8  A    between atoms: C_19  and  C_20
REMARK    9  A    between atoms: C_20  and  S_21
REMARK   10  A    between atoms: S_21  and  C_22
REMARK                            x       y       z     vdW  Elec       q    Type
REMARK                         _______ _______ _______ _____ _____    ______ ____
ROOT
ATOM      1  C   UNL     1       3.586   5.212  18.734  0.00  0.00    +0.000 A 
ATOM      2  C   UNL     1       2.953   5.276  19.976  0.00  0.00    +0.000 A 
ATOM      3  C   UNL     1       2.224   6.424  20.324  0.00  0.00    +0.000 A 
ATOM      4  C   UNL     1       2.132   7.521  19.446  0.00  0.00    +0.000 A 
ATOM      5  C   UNL     1       2.765   7.428  18.195  0.00  0.00    +0.000 A 
ATOM      6  C   UNL     1       3.486   6.281  17.840  0.00  0.00    +0.000 A 
ENDROOT
BRANCH   4   7
ATOM      7  C   UNL     1       1.404   8.759  19.916  0.00  0.00    +0.000 C 
ATOM      8  O   UNL     1       1.127   9.629  19.102  0.00  0.00    +0.000 OA
ATOM      9  N   UNL     1       1.122   8.814  21.260  0.00  0.00    +0.000 N 
ATOM     10  C   UNL     1       0.403   9.804  21.863  0.00  0.00    +0.000 A 
ATOM     11  N   UNL     1       0.254   9.934  23.164  0.00  0.00    +0.000 NA
ATOM     12  N   UNL     1      -0.578  11.009  23.359  0.00  0.00    +0.000 NA
ATOM     13  C   UNL     1      -0.917  11.433  22.158  0.00  0.00    +0.000 A 
ATOM     14  O   UNL     1      -0.307  10.730  21.151  0.00  0.00    +0.000 OA
ATOM     15  H   UNL     1       1.493   8.150  21.918  0.00  0.00    +0.000 HD
BRANCH  13  16
ATOM     16  C   UNL     1      -1.872  12.509  21.801  0.00  0.00    +0.000 C 
BRANCH  16  17
ATOM     17  S   UNL     1      -1.034  14.089  21.421  0.00  0.00    +0.000 S 
ATOM     18  C   UNL     1      -0.870  13.928  19.620  0.00  0.00    +0.000 C 
ENDBRANCH  16  17
ENDBRANCH  13  16
ENDBRANCH   4   7
BRANCH   1  19
ATOM     19  S   UNL     1       4.653   3.839  18.348  0.00  0.00    +0.000 S 
ATOM     20  O   UNL     1       4.012   3.096  17.282  0.00  0.00    +0.000 OA
ATOM     21  O   UNL     1       5.012   3.194  19.594  0.00  0.00    +0.000 OA
BRANCH  19  22
ATOM     22  N   UNL     1       6.078   4.563  17.718  0.00  0.00    +0.000 NA
BRANCH  22  24
ATOM     23  C   UNL     1       6.640   4.292  15.287  0.00  0.00    +0.000 C 
ATOM     24  C   UNL     1       5.931   5.126  16.344  0.00  0.00    +0.000 C 
ENDBRANCH  22  24
BRANCH  22  25
ATOM     25  C   UNL     1       6.778   5.452  18.700  0.00  0.00    +0.000 C 
ATOM     26  C   UNL     1       7.410   6.686  18.074  0.00  0.00    +0.000 C 
ENDBRANCH  22  25
ENDBRANCH  19  22
ENDBRANCH   1  19
TORSDOF 7
ENDMDL
MODEL 7
REMARK VINA RESULT:      -6.7      1.690      1.850
REMARK  Name = 
REMARK  10 active torsions:
REMARK  status: ('A' for Active; 'I' for Inactive)
REMARK    1  A    between atoms: C_1  and  C_2
REMARK    2  A    between atoms: C_2  and  N_3
REMARK    3  A    between atoms: N_3  and  C_4
REMARK    4  A    between atoms: N_3  and  S_6
REMARK    5  A    between atoms: C_4  and  C_5
REMARK    6  A    between atoms: S_6  and  C_9
REMARK    7  A    between atoms: C_12  and  C_13
REMARK    8  A    between atoms: C_19  and  C_20
REMARK    9  A    between atoms: C_20  and  S_21
REMARK   10  A    between atoms: S_21  and  C_22
REMARK                            x       y       z     vdW  Elec       q    Type
REMARK                         _______ _______ _______ _____ _____    ______ ____
ROOT
ATOM      1  C   UNL     1       3.674   5.344  18.644  0.00  0.00    +0.000 A 
ATOM      2  C   UNL     1       2.937   5.292  19.827  0.00  0.00    +0.000 A 
ATOM      3  C   UNL     1       2.172   6.403  20.218  0.00  0.00    +0.000 A 
ATOM      4  C   UNL     1       2.147   7.577  19.442  0.00  0.00    +0.000 A 
ATOM      5  C   UNL     1       2.884   7.601  18.246  0.00  0.00    +0.000 A 
ATOM      6  C   UNL     1       3.642   6.492  17.848  0.00  0.00    +0.000 A 
ENDROOT
BRANCH   4   7
ATOM      7  C   UNL     1       1.371   8.765  19.962  0.00  0.00    +0.000 C 
ATOM      8  O   UNL     1       1.301   8.944  21.170  0.00  0.00    +0.000 OA
ATOM      9  N   UNL     1       0.778   9.557  19.008  0.00  0.00    +0.000 N 
ATOM     10  C   UNL     1       0.107  10.716  19.269  0.00  0.00    +0.000 A 
ATOM     11  N   UNL     1      -0.581  11.398  18.378  0.00  0.00    +0.000 NA
ATOM     12  N   UNL     1      -1.050  12.519  19.018  0.00  0.00    +0.000 NA
ATOM     13  C   UNL     1      -0.575  12.466  20.246  0.00  0.00    +0.000 A 
ATOM     14  O   UNL     1       0.151  11.329  20.490  0.00  0.00    +0.000 OA
ATOM     15  H   UNL     1       0.737   9.296  18.038  0.00  0.00    +0.000 HD
BRANCH  13  16
ATOM     16  C   UNL     1      -0.702  13.477  21.323  0.00  0.00    +0.000 C 
BRANCH  16  17
ATOM     17  S   UNL     1      -2.368  13.485  22.079  0.00  0.00    +0.000 S 
ATOM     18  C   UNL     1      -2.251  11.992  23.105  0.00  0.00    +0.000 C 
ENDBRANCH  16  17
ENDBRANCH  13  16
ENDBRANCH   4   7
BRANCH   1  19
ATOM     19  S   UNL     1       4.781   4.013  18.223  0.00  0.00    +0.000 S 
ATOM     20  O   UNL     1       3.986   3.002  17.557  0.00  0.00    +0.000 OA
ATOM     21  O   UNL     1       5.556   3.694  19.404  0.00  0.00    +0.000 OA
BRANCH  19  22
ATOM     22  N   UNL     1       5.859   4.696  17.074  0.00  0.00    +0.000 NA
BRANCH  22  24
ATOM     23  C   UNL     1       7.355   6.584  17.780  0.00  0.00    +0.000 C 
ATOM     24  C   UNL     1       7.192   5.079  17.626  0.00  0.00    +0.000 C 
ENDBRANCH  22  24
BRANCH  22  25
ATOM     25  C   UNL     1       5.899   3.948  15.776  0.00  0.00    +0.000 C 
ATOM     26  C   UNL     1       6.221   4.819  14.571  0.00  0.00    +0.000 C 
ENDBRANCH  22  25
ENDBRANCH  19  22
ENDBRANCH   1  19
TORSDOF 7
ENDMDL
MODEL 8
REMARK VINA RESULT:      -6.6      0.710      1.522
REMARK  Name = 
REMARK  10 active torsions:
REMARK  status: ('A' for Active; 'I' for Inactive)
REMARK    1  A    between atoms: C_1  and  C_2
REMARK    2  A    between atoms: C_2  and  N_3
REMARK    3  A    between atoms: N_3  and  C_4
REMARK    4  A    between atoms: N_3  and  S_6
REMARK    5  A    between atoms: C_4  and  C_5
REMARK    6  A    between atoms: S_6  and  C_9
REMARK    7  A    between atoms: C_12  and  C_13
REMARK    8  A    between atoms: C_19  and  C_20
REMARK    9  A    between atoms: C_20  and  S_21
REMARK   10  A    between atoms: S_21  and  C_22
REMARK                            x       y       z     vdW  Elec       q    Type
REMARK                         _______ _______ _______ _____ _____    ______ ____
ROOT
ATOM      1  C   UNL     1       3.616   5.469  18.515  0.00  0.00    +0.000 A 
ATOM      2  C   UNL     1       3.052   5.498  19.790  0.00  0.00    +0.000 A 
ATOM      3  C   UNL     1       2.290   6.609  20.187  0.00  0.00    +0.000 A 
ATOM      4  C   UNL     1       2.097   7.704  19.323  0.00  0.00    +0.000 A 
ATOM      5  C   UNL     1       2.662   7.646  18.038  0.00  0.00    +0.000 A 
ATOM      6  C   UNL     1       3.416   6.536  17.635  0.00  0.00    +0.000 A 
ENDROOT
BRANCH   4   7
ATOM      7  C   UNL     1       1.339   8.904  19.842  0.00  0.00    +0.000 C 
ATOM      8  O   UNL     1       1.024   9.789  19.059  0.00  0.00    +0.000 OA
ATOM      9  N   UNL     1       1.076   8.908  21.191  0.00  0.00    +0.000 N 
ATOM     10  C   UNL     1       0.336   9.857  21.834  0.00  0.00    +0.000 A 
ATOM     11  N   UNL     1       0.202   9.942  23.140  0.00  0.00    +0.000 NA
ATOM     12  N   UNL     1      -0.659  10.985  23.381  0.00  0.00    +0.000 NA
ATOM     13  C   UNL     1      -1.028  11.435  22.199  0.00  0.00    +0.000 A 
ATOM     14  O   UNL     1      -0.412  10.783  21.161  0.00  0.00    +0.000 OA
ATOM     15  H   UNL     1       1.476   8.236  21.822  0.00  0.00    +0.000 HD
BRANCH  13  16
ATOM     16  C   UNL     1      -2.020  12.492  21.889  0.00  0.00    +0.000 C 
BRANCH  16  17
ATOM     17  S   UNL     1      -1.740  14.019  22.856  0.00  0.00    +0.000 S 
ATOM     18  C   UNL     1      -3.363  14.185  23.651  0.00  0.00    +0.000 C 
ENDBRANCH  16  17
ENDBRANCH  13  16
ENDBRANCH   4   7
BRANCH   1  19
ATOM     19  S   UNL     1       4.724   4.150  18.060  0.00  0.00    +0.000 S 
ATOM     20  O   UNL     1       4.063   3.388  17.020  0.00  0.00    +0.000 OA
ATOM     21  O   UNL     1       5.175   3.512  19.279  0.00  0.00    +0.000 OA
BRANCH  19  22
ATOM     22  N   UNL     1       6.080   4.945  17.367  0.00  0.00    +0.000 NA
BRANCH  22  24
ATOM     23  C   UNL     1       7.021   4.627  15.062  0.00  0.00    +0.000 C 
ATOM     24  C   UNL     1       5.936   5.265  15.917  0.00  0.00    +0.000 C 
ENDBRANCH  22  24
BRANCH  22  25
ATOM     25  C   UNL     1       6.617   6.057  18.215  0.00  0.00    +0.000 C 
ATOM     26  C   UNL     1       7.905   5.710  18.946  0.00  0.00    +0.000 C 
ENDBRANCH  22  25
ENDBRANCH  19  22
ENDBRANCH   1  19
TORSDOF 7
ENDMDL
MODEL 9
REMARK VINA RESULT:      -6.6      2.105      2.303
REMARK  Name = 
REMARK  10 active torsions:
REMARK  status: ('A' for Active; 'I' for Inactive)
REMARK    1  A    between atoms: C_1  and  C_2
REMARK    2  A    between atoms: C_2  and  N_3
REMARK    3  A    between atoms: N_3  and  C_4
REMARK    4  A    between atoms: N_3  and  S_6
REMARK    5  A    between atoms: C_4  and  C_5
REMARK    6  A    between atoms: S_6  and  C_9
REMARK    7  A    between atoms: C_12  and  C_13
REMARK    8  A    between atoms: C_19  and  C_20
REMARK    9  A    between atoms: C_20  and  S_21
REMARK   10  A    between atoms: S_21  and  C_22
REMARK                            x       y       z     vdW  Elec       q    Type
REMARK                         _______ _______ _______ _____ _____    ______ ____
ROOT
ATOM      1  C   UNL     1       3.803   5.573  18.539  0.00  0.00    +0.000 A 
ATOM      2  C   UNL     1       3.045   5.591  19.710  0.00  0.00    +0.000 A 
ATOM      3  C   UNL     1       2.222   6.694  19.988  0.00  0.00    +0.000 A 
ATOM      4  C   UNL     1       2.159   7.792  19.109  0.00  0.00    +0.000 A 
ATOM      5  C   UNL     1       2.919   7.745  17.928  0.00  0.00    +0.000 A 
ATOM      6  C   UNL     1       3.735   6.643  17.643  0.00  0.00    +0.000 A 
ENDROOT
BRANCH   4   7
ATOM      7  C   UNL     1       1.320   8.984  19.508  0.00  0.00    +0.000 C 
ATOM      8  O   UNL     1       1.408   9.416  20.649  0.00  0.00    +0.000 OA
ATOM      9  N   UNL     1       0.491   9.485  18.533  0.00  0.00    +0.000 N 
ATOM     10  C   UNL     1      -0.281  10.602  18.670  0.00  0.00    +0.000 A 
ATOM     11  N   UNL     1      -1.179  11.001  17.794  0.00  0.00    +0.000 NA
ATOM     12  N   UNL     1      -1.692  12.184  18.269  0.00  0.00    +0.000 NA
ATOM     13  C   UNL     1      -1.035  12.448  19.380  0.00  0.00    +0.000 A 
ATOM     14  O   UNL     1      -0.136  11.469  19.717  0.00  0.00    +0.000 OA
ATOM     15  H   UNL     1       0.339   9.015  17.658  0.00  0.00    +0.000 HD
BRANCH  13  16
ATOM     16  C   UNL     1      -1.133  13.653  20.238  0.00  0.00    +0.000 C 
BRANCH  16  17
ATOM     17  S   UNL     1      -0.302  13.431  21.852  0.00  0.00    +0.000 S 
ATOM     18  C   UNL     1       1.251  14.313  21.527  0.00  0.00    +0.000 C 
ENDBRANCH  16  17
ENDBRANCH  13  16
ENDBRANCH   4   7
BRANCH   1  19
ATOM     19  S   UNL     1       4.978   4.263  18.258  0.00  0.00    +0.000 S 
ATOM     20  O   UNL     1       4.270   3.207  17.564  0.00  0.00    +0.000 OA
ATOM     21  O   UNL     1       5.660   4.006  19.509  0.00  0.00    +0.000 OA
BRANCH  19  22
ATOM     22  N   UNL     1       6.129   4.941  17.178  0.00  0.00    +0.000 NA
BRANCH  22  24
ATOM     23  C   UNL     1       7.569   6.853  17.932  0.00  0.00    +0.000 C 
ATOM     24  C   UNL     1       7.415   5.344  17.817  0.00  0.00    +0.000 C 
ENDBRANCH  22  24
BRANCH  22  25
ATOM     25  C   UNL     1       6.265   4.177  15.896  0.00  0.00    +0.000 C 
ATOM     26  C   UNL     1       5.718   4.909  14.680  0.00  0.00    +0.000 C 
ENDBRANCH  22  25
ENDBRANCH  19  22
ENDBRANCH   1  19
TORSDOF 7
ENDMDL
