MODEL 1
REMARK VINA RESULT:      -9.0      0.000      0.000
REMARK  Name = 
REMARK  10 active torsions:
REMARK  status: ('A' for Active; 'I' for Inactive)
REMARK    1  A    between atoms: C_1  and  C_2
REMARK    2  A    between atoms: C_2  and  S_3
REMARK    3  A    between atoms: C_2  and  C_10
REMARK    4  A    between atoms: S_3  and  C_4
REMARK    5  A    between atoms: N_8  and  C_9
REMARK    6  A    between atoms: C_14  and  N_15
REMARK    7  A    between atoms: C_16  and  C_18
REMARK    8  A    between atoms: C_20  and  C_21
REMARK    9  A    between atoms: C_25  and  O_26
REMARK   10  A    between atoms: C_28  and  C_29
REMARK                            x       y       z     vdW  Elec       q    Type
REMARK                         _______ _______ _______ _____ _____    ______ ____
ROOT
ATOM      1  N   UNL     1       0.797   7.998  21.330  0.00  0.00    +0.000 N 
ATOM      2  C   UNL     1       1.515   7.756  20.167  0.00  0.00    +0.000 C 
ATOM      3  O   UNL     1       1.717   8.567  19.266  0.00  0.00    +0.000 OA
ATOM      4  H   UNL     1       0.840   7.275  22.041  0.00  0.00    +0.000 HD
ENDROOT
BRANCH   1   9
ATOM      5  C   UNL     1      -0.869  11.323  20.868  0.00  0.00    +0.000 A 
ATOM      6  C   UNL     1      -1.244  11.587  22.198  0.00  0.00    +0.000 A 
ATOM      7  C   UNL     1      -0.956  10.686  23.210  0.00  0.00    +0.000 A 
ATOM      8  C   UNL     1      -0.301   9.487  22.935  0.00  0.00    +0.000 A 
ATOM      9  C   UNL     1       0.123   9.203  21.633  0.00  0.00    +0.000 A 
ATOM     10  C   UNL     1      -0.139  10.134  20.620  0.00  0.00    +0.000 A 
BRANCH   5  12
ATOM     11  C   UNL     1      -0.832  13.730  19.934  0.00  0.00    +0.000 C 
ATOM     12  C   UNL     1      -1.210  12.259  19.693  0.00  0.00    +0.000 C 
BRANCH  12  13
ATOM     13  S   UNL     1      -3.020  12.139  19.314  0.00  0.00    +0.000 S 
BRANCH  13  14
ATOM     14  C   UNL     1      -3.058  11.437  17.736  0.00  0.00    +0.000 A 
ATOM     15  N   UNL     1      -2.070  10.864  17.087  0.00  0.00    +0.000 NA
ATOM     16  N   UNL     1      -2.517  10.582  15.810  0.00  0.00    +0.000 NA
ATOM     17  C   UNL     1      -3.769  10.969  15.734  0.00  0.00    +0.000 A 
ATOM     18  N   UNL     1      -4.169  11.457  16.942  0.00  0.00    +0.000 N 
ATOM     19  C   UNL     1      -5.496  11.899  17.274  0.00  0.00    +0.000 C 
ENDBRANCH  13  14
ENDBRANCH  12  13
ENDBRANCH   5  12
ENDBRANCH   1   9
BRANCH   2  20
ATOM     20  C   UNL     1       2.159   6.408  20.064  0.00  0.00    +0.000 A 
ATOM     21  C   UNL     1       3.369   6.284  19.398  0.00  0.00    +0.000 A 
ATOM     22  C   UNL     1       4.145   5.157  19.597  0.00  0.00    +0.000 A 
ATOM     23  C   UNL     1       3.573   4.078  20.260  0.00  0.00    +0.000 A 
ATOM     24  C   UNL     1       2.286   4.229  20.765  0.00  0.00    +0.000 A 
ATOM     25  N   UNL     1       1.579   5.384  20.728  0.00  0.00    +0.000 NA
BRANCH  22  26
ATOM     26  C   UNL     1       5.527   5.073  19.049  0.00  0.00    +0.000 C 
ATOM     27  O   UNL     1       6.441   5.451  19.768  0.00  0.00    +0.000 OA
ATOM     28  N   UNL     1       5.731   4.555  17.758  0.00  0.00    +0.000 N 
ATOM     29  C   UNL     1       7.106   4.299  17.323  0.00  0.00    +0.000 C 
ATOM     30  C   UNL     1       7.211   4.934  15.940  0.00  0.00    +0.000 C 
ATOM     31  C   UNL     1       5.807   4.855  15.373  0.00  0.00    +0.000 C 
ATOM     32  C   UNL     1       4.864   4.795  16.587  0.00  0.00    +0.000 C 
ATOM     33  C   UNL     1       3.826   3.716  16.271  0.00  0.00    +0.000 C 
BRANCH  30  34
ATOM     34  O   UNL     1       7.621   6.298  16.007  0.00  0.00    +0.000 OA
ATOM     35  H   UNL     1       8.135   6.416  16.820  0.00  0.00    +0.000 HD
ENDBRANCH  30  34
ENDBRANCH  22  26
ENDBRANCH   2  20
TORSDOF 7
ENDMDL
MODEL 2
REMARK VINA RESULT:      -8.7      7.375     11.269
REMARK  Name = 
REMARK  10 active torsions:
REMARK  status: ('A' for Active; 'I' for Inactive)
REMARK    1  A    between atoms: C_1  and  C_2
REMARK    2  A    between atoms: C_2  and  S_3
REMARK    3  A    between atoms: C_2  and  C_10
REMARK    4  A    between atoms: S_3  and  C_4
REMARK    5  A    between atoms: N_8  and  C_9
REMARK    6  A    between atoms: C_14  and  N_15
REMARK    7  A    between atoms: C_16  and  C_18
REMARK    8  A    between atoms: C_20  and  C_21
REMARK    9  A    between atoms: C_25  and  O_26
REMARK   10  A    between atoms: C_28  and  C_29
REMARK                            x       y       z     vdW  Elec       q    Type
REMARK                         _______ _______ _______ _____ _____    ______ ____
ROOT
ATOM      1  N   UNL     1       8.281   9.182  17.659  0.00  0.00    +0.000 N 
ATOM      2  C   UNL     1       8.944   9.997  18.565  0.00  0.00    +0.000 C 
ATOM      3  O   UNL     1       9.264   9.687  19.711  0.00  0.00    +0.000 OA
ATOM      4  H   UNL     1       8.217   9.531  16.708  0.00  0.00    +0.000 HD
ENDROOT
BRANCH   1   9
ATOM      5  C   UNL     1       6.270   6.030  17.398  0.00  0.00    +0.000 A 
ATOM      6  C   UNL     1       6.861   5.286  18.435  0.00  0.00    +0.000 A 
ATOM      7  C   UNL     1       7.895   5.815  19.190  0.00  0.00    +0.000 A 
ATOM      8  C   UNL     1       8.389   7.092  18.931  0.00  0.00    +0.000 A 
ATOM      9  C   UNL     1       7.805   7.880  17.934  0.00  0.00    +0.000 A 
ATOM     10  C   UNL     1       6.735   7.354  17.199  0.00  0.00    +0.000 A 
BRANCH   5  12
ATOM     11  C   UNL     1       3.845   5.160  17.228  0.00  0.00    +0.000 C 
ATOM     12  C   UNL     1       5.156   5.475  16.490  0.00  0.00    +0.000 C 
BRANCH  12  13
ATOM     13  S   UNL     1       5.764   3.951  15.629  0.00  0.00    +0.000 S 
BRANCH  13  14
ATOM     14  C   UNL     1       6.826   4.569  14.414  0.00  0.00    +0.000 A 
ATOM     15  N   UNL     1       7.819   5.415  14.567  0.00  0.00    +0.000 NA
ATOM     16  N   UNL     1       8.293   5.736  13.310  0.00  0.00    +0.000 NA
ATOM     17  C   UNL     1       7.590   5.054  12.435  0.00  0.00    +0.000 A 
ATOM     18  N   UNL     1       6.697   4.260  13.089  0.00  0.00    +0.000 N 
ATOM     19  C   UNL     1       5.811   3.307  12.477  0.00  0.00    +0.000 C 
ENDBRANCH  13  14
ENDBRANCH  12  13
ENDBRANCH   5  12
ENDBRANCH   1   9
BRANCH   2  20
ATOM     20  C   UNL     1       9.370  11.338  18.051  0.00  0.00    +0.000 A 
ATOM     21  C   UNL     1       8.488  12.406  18.131  0.00  0.00    +0.000 A 
ATOM     22  C   UNL     1       8.968  13.697  18.007  0.00  0.00    +0.000 A 
ATOM     23  C   UNL     1      10.272  13.869  17.557  0.00  0.00    +0.000 A 
ATOM     24  C   UNL     1      11.046  12.733  17.348  0.00  0.00    +0.000 A 
ATOM     25  N   UNL     1      10.646  11.470  17.629  0.00  0.00    +0.000 NA
BRANCH  22  26
ATOM     26  C   UNL     1       8.089  14.869  18.272  0.00  0.00    +0.000 C 
ATOM     27  O   UNL     1       7.307  15.196  17.389  0.00  0.00    +0.000 OA
ATOM     28  N   UNL     1       8.171  15.534  19.508  0.00  0.00    +0.000 N 
ATOM     29  C   UNL     1       7.163  16.550  19.818  0.00  0.00    +0.000 C 
ATOM     30  C   UNL     1       7.954  17.757  20.311  0.00  0.00    +0.000 C 
ATOM     31  C   UNL     1       9.204  17.169  20.938  0.00  0.00    +0.000 C 
ATOM     32  C   UNL     1       9.414  15.805  20.258  0.00  0.00    +0.000 C 
ATOM     33  C   UNL     1       9.770  14.820  21.375  0.00  0.00    +0.000 C 
BRANCH  30  34
ATOM     34  O   UNL     1       8.321  18.629  19.245  0.00  0.00    +0.000 OA
ATOM     35  H   UNL     1       8.612  18.083  18.499  0.00  0.00    +0.000 HD
ENDBRANCH  30  34
ENDBRANCH  22  26
ENDBRANCH   2  20
TORSDOF 7
ENDMDL
MODEL 3
REMARK VINA RESULT:      -8.7      6.109      8.641
REMARK  Name = 
REMARK  10 active torsions:
REMARK  status: ('A' for Active; 'I' for Inactive)
REMARK    1  A    between atoms: C_1  and  C_2
REMARK    2  A    between atoms: C_2  and  S_3
REMARK    3  A    between atoms: C_2  and  C_10
REMARK    4  A    between atoms: S_3  and  C_4
REMARK    5  A    between atoms: N_8  and  C_9
REMARK    6  A    between atoms: C_14  and  N_15
REMARK    7  A    between atoms: C_16  and  C_18
REMARK    8  A    between atoms: C_20  and  C_21
REMARK    9  A    between atoms: C_25  and  O_26
REMARK   10  A    between atoms: C_28  and  C_29
REMARK                            x       y       z     vdW  Elec       q    Type
REMARK                         _______ _______ _______ _____ _____    ______ ____
ROOT
ATOM      1  N   UNL     1       7.810   8.796  17.810  0.00  0.00    +0.000 N 
ATOM      2  C   UNL     1       7.879   7.453  18.152  0.00  0.00    +0.000 C 
ATOM      3  O   UNL     1       8.597   6.970  19.025  0.00  0.00    +0.000 OA
ATOM      4  H   UNL     1       7.067   9.056  17.170  0.00  0.00    +0.000 HD
ENDROOT
BRANCH   1   9
ATOM      5  C   UNL     1       9.683  12.025  18.148  0.00  0.00    +0.000 A 
ATOM      6  C   UNL     1      10.167  11.881  19.461  0.00  0.00    +0.000 A 
ATOM      7  C   UNL     1       9.875  10.751  20.207  0.00  0.00    +0.000 A 
ATOM      8  C   UNL     1       9.080   9.733  19.682  0.00  0.00    +0.000 A 
ATOM      9  C   UNL     1       8.610   9.819  18.368  0.00  0.00    +0.000 A 
ATOM     10  C   UNL     1       8.939  10.947  17.606  0.00  0.00    +0.000 A 
BRANCH   5  12
ATOM     11  C   UNL     1      11.345  13.374  16.705  0.00  0.00    +0.000 C 
ATOM     12  C   UNL     1       9.927  13.281  17.291  0.00  0.00    +0.000 C 
BRANCH  12  13
ATOM     13  S   UNL     1       9.574  14.795  18.300  0.00  0.00    +0.000 S 
BRANCH  13  14
ATOM     14  C   UNL     1       7.851  14.913  18.263  0.00  0.00    +0.000 A 
ATOM     15  N   UNL     1       7.006  14.158  17.599  0.00  0.00    +0.000 NA
ATOM     16  N   UNL     1       5.747  14.706  17.749  0.00  0.00    +0.000 NA
ATOM     17  C   UNL     1       5.864  15.761  18.522  0.00  0.00    +0.000 A 
ATOM     18  N   UNL     1       7.161  15.894  18.918  0.00  0.00    +0.000 N 
ATOM     19  C   UNL     1       7.665  16.879  19.836  0.00  0.00    +0.000 C 
ENDBRANCH  13  14
ENDBRANCH  12  13
ENDBRANCH   5  12
ENDBRANCH   1   9
BRANCH   2  20
ATOM     20  C   UNL     1       6.925   6.545  17.438  0.00  0.00    +0.000 A 
ATOM     21  C   UNL     1       5.683   6.291  18.000  0.00  0.00    +0.000 A 
ATOM     22  C   UNL     1       4.672   5.769  17.212  0.00  0.00    +0.000 A 
ATOM     23  C   UNL     1       5.009   5.285  15.954  0.00  0.00    +0.000 A 
ATOM     24  C   UNL     1       6.322   5.439  15.524  0.00  0.00    +0.000 A 
ATOM     25  N   UNL     1       7.282   6.100  16.213  0.00  0.00    +0.000 NA
BRANCH  22  26
ATOM     26  C   UNL     1       3.281   5.658  17.728  0.00  0.00    +0.000 C 
ATOM     27  O   UNL     1       2.638   6.693  17.841  0.00  0.00    +0.000 OA
ATOM     28  N   UNL     1       2.756   4.392  18.046  0.00  0.00    +0.000 N 
ATOM     29  C   UNL     1       1.329   4.291  18.359  0.00  0.00    +0.000 C 
ATOM     30  C   UNL     1       1.261   3.474  19.645  0.00  0.00    +0.000 C 
ATOM     31  C   UNL     1       2.480   2.571  19.592  0.00  0.00    +0.000 C 
ATOM     32  C   UNL     1       3.498   3.290  18.691  0.00  0.00    +0.000 C 
ATOM     33  C   UNL     1       4.081   2.221  17.764  0.00  0.00    +0.000 C 
BRANCH  30  34
ATOM     34  O   UNL     1       1.328   4.296  20.807  0.00  0.00    +0.000 OA
ATOM     35  H   UNL     1       1.574   5.191  20.526  0.00  0.00    +0.000 HD
ENDBRANCH  30  34
ENDBRANCH  22  26
ENDBRANCH   2  20
TORSDOF 7
ENDMDL
MODEL 4
REMARK VINA RESULT:      -8.6      1.158      1.338
REMARK  Name = 
REMARK  10 active torsions:
REMARK  status: ('A' for Active; 'I' for Inactive)
REMARK    1  A    between atoms: C_1  and  C_2
REMARK    2  A    between atoms: C_2  and  S_3
REMARK    3  A    between atoms: C_2  and  C_10
REMARK    4  A    between atoms: S_3  and  C_4
REMARK    5  A    between atoms: N_8  and  C_9
REMARK    6  A    between atoms: C_14  and  N_15
REMARK    7  A    between atoms: C_16  and  C_18
REMARK    8  A    between atoms: C_20  and  C_21
REMARK    9  A    between atoms: C_25  and  O_26
REMARK   10  A    between atoms: C_28  and  C_29
REMARK                            x       y       z     vdW  Elec       q    Type
REMARK                         _______ _______ _______ _____ _____    ______ ____
ROOT
ATOM      1  N   UNL     1       1.189   8.135  21.475  0.00  0.00    +0.000 N 
ATOM      2  C   UNL     1       1.564   7.755  20.195  0.00  0.00    +0.000 C 
ATOM      3  O   UNL     1       1.470   8.446  19.183  0.00  0.00    +0.000 OA
ATOM      4  H   UNL     1       1.462   7.509  22.226  0.00  0.00    +0.000 HD
ENDROOT
BRANCH   1   9
ATOM      5  C   UNL     1       0.320  11.780  21.419  0.00  0.00    +0.000 A 
ATOM      6  C   UNL     1      -0.656  11.806  22.431  0.00  0.00    +0.000 A 
ATOM      7  C   UNL     1      -1.015  10.650  23.103  0.00  0.00    +0.000 A 
ATOM      8  C   UNL     1      -0.429   9.426  22.784  0.00  0.00    +0.000 A 
ATOM      9  C   UNL     1       0.573   9.362  21.811  0.00  0.00    +0.000 A 
ATOM     10  C   UNL     1       0.957  10.542  21.159  0.00  0.00    +0.000 A 
BRANCH   5  12
ATOM     11  C   UNL     1       1.288  14.174  21.443  0.00  0.00    +0.000 C 
ATOM     12  C   UNL     1       0.719  13.022  20.599  0.00  0.00    +0.000 C 
BRANCH  12  13
ATOM     13  S   UNL     1      -0.746  13.623  19.636  0.00  0.00    +0.000 S 
BRANCH  13  14
ATOM     14  C   UNL     1      -1.351  12.191  18.883  0.00  0.00    +0.000 A 
ATOM     15  N   UNL     1      -0.695  11.340  18.128  0.00  0.00    +0.000 NA
ATOM     16  N   UNL     1      -1.610  10.433  17.628  0.00  0.00    +0.000 NA
ATOM     17  C   UNL     1      -2.787  10.747  18.117  0.00  0.00    +0.000 A 
ATOM     18  N   UNL     1      -2.661  11.810  18.960  0.00  0.00    +0.000 N 
ATOM     19  C   UNL     1      -3.714  12.389  19.749  0.00  0.00    +0.000 C 
ENDBRANCH  13  14
ENDBRANCH  12  13
ENDBRANCH   5  12
ENDBRANCH   1   9
BRANCH   2  20
ATOM     20  C   UNL     1       2.214   6.410  20.075  0.00  0.00    +0.000 A 
ATOM     21  C   UNL     1       3.424   6.299  19.407  0.00  0.00    +0.000 A 
ATOM     22  C   UNL     1       4.205   5.173  19.592  0.00  0.00    +0.000 A 
ATOM     23  C   UNL     1       3.637   4.084  20.242  0.00  0.00    +0.000 A 
ATOM     24  C   UNL     1       2.350   4.224  20.750  0.00  0.00    +0.000 A 
ATOM     25  N   UNL     1       1.638   5.376  20.727  0.00  0.00    +0.000 NA
BRANCH  22  26
ATOM     26  C   UNL     1       5.586   5.101  19.042  0.00  0.00    +0.000 C 
ATOM     27  O   UNL     1       6.496   5.505  19.753  0.00  0.00    +0.000 OA
ATOM     28  N   UNL     1       5.796   4.566  17.759  0.00  0.00    +0.000 N 
ATOM     29  C   UNL     1       7.174   4.323  17.325  0.00  0.00    +0.000 C 
ATOM     30  C   UNL     1       7.266   4.938  15.932  0.00  0.00    +0.000 C 
ATOM     31  C   UNL     1       5.861   4.828  15.369  0.00  0.00    +0.000 C 
ATOM     32  C   UNL     1       4.922   4.773  16.586  0.00  0.00    +0.000 C 
ATOM     33  C   UNL     1       3.900   3.674  16.290  0.00  0.00    +0.000 C 
BRANCH  30  34
ATOM     34  O   UNL     1       7.655   6.308  15.976  0.00  0.00    +0.000 OA
ATOM     35  H   UNL     1       7.274   6.752  15.203  0.00  0.00    +0.000 HD
ENDBRANCH  30  34
ENDBRANCH  22  26
ENDBRANCH   2  20
TORSDOF 7
ENDMDL
MODEL 5
REMARK VINA RESULT:      -8.6      2.211      3.031
REMARK  Name = 
REMARK  10 active torsions:
REMARK  status: ('A' for Active; 'I' for Inactive)
REMARK    1  A    between atoms: C_1  and  C_2
REMARK    2  A    between atoms: C_2  and  S_3
REMARK    3  A    between atoms: C_2  and  C_10
REMARK    4  A    between atoms: S_3  and  C_4
REMARK    5  A    between atoms: N_8  and  C_9
REMARK    6  A    between atoms: C_14  and  N_15
REMARK    7  A    between atoms: C_16  and  C_18
REMARK    8  A    between atoms: C_20  and  C_21
REMARK    9  A    between atoms: C_25  and  O_26
REMARK   10  A    between atoms: C_28  and  C_29
REMARK                            x       y       z     vdW  Elec       q    Type
REMARK                         _______ _______ _______ _____ _____    ______ ____
ROOT
ATOM      1  N   UNL     1       0.941   9.353  19.519  0.00  0.00    +0.000 N 
ATOM      2  C   UNL     1       1.725   8.930  18.455  0.00  0.00    +0.000 C 
ATOM      3  O   UNL     1       1.910   9.546  17.409  0.00  0.00    +0.000 OA
ATOM      4  H   UNL     1       1.003   8.801  20.368  0.00  0.00    +0.000 HD
ENDROOT
BRANCH   1   9
ATOM      5  C   UNL     1      -1.997  11.659  19.206  0.00  0.00    +0.000 A 
ATOM      6  C   UNL     1      -1.393  12.867  19.600  0.00  0.00    +0.000 A 
ATOM      7  C   UNL     1      -0.056  12.909  19.962  0.00  0.00    +0.000 A 
ATOM      8  C   UNL     1       0.721  11.752  19.960  0.00  0.00    +0.000 A 
ATOM      9  C   UNL     1       0.170  10.538  19.539  0.00  0.00    +0.000 A 
ATOM     10  C   UNL     1      -1.172  10.509  19.139  0.00  0.00    +0.000 A 
BRANCH   5  12
ATOM     11  C   UNL     1      -3.766  11.454  17.338  0.00  0.00    +0.000 C 
ATOM     12  C   UNL     1      -3.490  11.540  18.847  0.00  0.00    +0.000 C 
BRANCH  12  13
ATOM     13  S   UNL     1      -4.414  12.978  19.564  0.00  0.00    +0.000 S 
BRANCH  13  14
ATOM     14  C   UNL     1      -5.792  12.245  20.305  0.00  0.00    +0.000 A 
ATOM     15  N   UNL     1      -5.960  11.945  21.572  0.00  0.00    +0.000 NA
ATOM     16  N   UNL     1      -7.146  11.244  21.682  0.00  0.00    +0.000 NA
ATOM     17  C   UNL     1      -7.672  11.164  20.482  0.00  0.00    +0.000 A 
ATOM     18  N   UNL     1      -6.884  11.833  19.594  0.00  0.00    +0.000 N 
ATOM     19  C   UNL     1      -7.172  12.039  18.201  0.00  0.00    +0.000 C 
ENDBRANCH  13  14
ENDBRANCH  12  13
ENDBRANCH   5  12
ENDBRANCH   1   9
BRANCH   2  20
ATOM     20  C   UNL     1       2.467   7.644  18.660  0.00  0.00    +0.000 A 
ATOM     21  C   UNL     1       3.583   7.374  17.882  0.00  0.00    +0.000 A 
ATOM     22  C   UNL     1       4.475   6.398  18.285  0.00  0.00    +0.000 A 
ATOM     23  C   UNL     1       4.095   5.552  19.319  0.00  0.00    +0.000 A 
ATOM     24  C   UNL     1       2.879   5.795  19.949  0.00  0.00    +0.000 A 
ATOM     25  N   UNL     1       2.074   6.850  19.680  0.00  0.00    +0.000 NA
BRANCH  22  26
ATOM     26  C   UNL     1       5.773   6.210  17.579  0.00  0.00    +0.000 C 
ATOM     27  O   UNL     1       6.613   7.090  17.703  0.00  0.00    +0.000 OA
ATOM     28  N   UNL     1       5.990   5.043  16.826  0.00  0.00    +0.000 N 
ATOM     29  C   UNL     1       7.338   4.791  16.310  0.00  0.00    +0.000 C 
ATOM     30  C   UNL     1       7.141   4.438  14.839  0.00  0.00    +0.000 C 
ATOM     31  C   UNL     1       5.764   3.805  14.776  0.00  0.00    +0.000 C 
ATOM     32  C   UNL     1       4.987   4.365  15.980  0.00  0.00    +0.000 C 
ATOM     33  C   UNL     1       4.253   3.177  16.606  0.00  0.00    +0.000 C 
BRANCH  30  34
ATOM     34  O   UNL     1       7.174   5.591  14.002  0.00  0.00    +0.000 OA
ATOM     35  H   UNL     1       7.753   5.399  13.250  0.00  0.00    +0.000 HD
ENDBRANCH  30  34
ENDBRANCH  22  26
ENDBRANCH   2  20
TORSDOF 7
ENDMDL
MODEL 6
REMARK VINA RESULT:      -8.5      7.412      9.823
REMARK  Name = 
REMARK  10 active torsions:
REMARK  status: ('A' for Active; 'I' for Inactive)
REMARK    1  A    between atoms: C_1  and  C_2
REMARK    2  A    between atoms: C_2  and  S_3
REMARK    3  A    between atoms: C_2  and  C_10
REMARK    4  A    between atoms: S_3  and  C_4
REMARK    5  A    between atoms: N_8  and  C_9
REMARK    6  A    between atoms: C_14  and  N_15
REMARK    7  A    between atoms: C_16  and  C_18
REMARK    8  A    between atoms: C_20  and  C_21
REMARK    9  A    between atoms: C_25  and  O_26
REMARK   10  A    between atoms: C_28  and  C_29
REMARK                            x       y       z     vdW  Elec       q    Type
REMARK                         _______ _______ _______ _____ _____    ______ ____
ROOT
ATOM      1  N   UNL     1       8.690   8.644  18.726  0.00  0.00    +0.000 N 
ATOM      2  C   UNL     1       7.678   8.417  17.804  0.00  0.00    +0.000 C 
ATOM      3  O   UNL     1       7.074   9.281  17.172  0.00  0.00    +0.000 OA
ATOM      4  H   UNL     1       9.186   7.823  19.056  0.00  0.00    +0.000 HD
ENDROOT
BRANCH   1   9
ATOM      5  C   UNL     1       9.898  12.187  18.549  0.00  0.00    +0.000 A 
ATOM      6  C   UNL     1      10.014  12.467  19.922  0.00  0.00    +0.000 A 
ATOM      7  C   UNL     1       9.695  11.510  20.872  0.00  0.00    +0.000 A 
ATOM      8  C   UNL     1       9.236  10.250  20.492  0.00  0.00    +0.000 A 
ATOM      9  C   UNL     1       9.143   9.918  19.137  0.00  0.00    +0.000 A 
ATOM     10  C   UNL     1       9.502  10.878  18.181  0.00  0.00    +0.000 A 
BRANCH   5  12
ATOM     11  C   UNL     1      11.679  13.490  17.208  0.00  0.00    +0.000 C 
ATOM     12  C   UNL     1      10.184  13.227  17.449  0.00  0.00    +0.000 C 
BRANCH  12  13
ATOM     13  S   UNL     1       9.336  14.820  17.870  0.00  0.00    +0.000 S 
BRANCH  13  14
ATOM     14  C   UNL     1      10.630  15.964  17.930  0.00  0.00    +0.000 A 
ATOM     15  N   UNL     1      11.177  16.613  16.928  0.00  0.00    +0.000 NA
ATOM     16  N   UNL     1      12.266  17.304  17.424  0.00  0.00    +0.000 NA
ATOM     17  C   UNL     1      12.329  17.073  18.714  0.00  0.00    +0.000 A 
ATOM     18  N   UNL     1      11.283  16.284  19.087  0.00  0.00    +0.000 N 
ATOM     19  C   UNL     1      10.965  15.885  20.431  0.00  0.00    +0.000 C 
ENDBRANCH  13  14
ENDBRANCH  12  13
ENDBRANCH   5  12
ENDBRANCH   1   9
BRANCH   2  20
ATOM     20  C   UNL     1       7.370   6.980  17.510  0.00  0.00    +0.000 A 
ATOM     21  C   UNL     1       6.631   6.245  18.424  0.00  0.00    +0.000 A 
ATOM     22  C   UNL     1       6.036   5.062  18.025  0.00  0.00    +0.000 A 
ATOM     23  C   UNL     1       6.405   4.526  16.798  0.00  0.00    +0.000 A 
ATOM     24  C   UNL     1       7.281   5.257  16.002  0.00  0.00    +0.000 A 
ATOM     25  N   UNL     1       7.737   6.496  16.303  0.00  0.00    +0.000 NA
BRANCH  22  26
ATOM     26  C   UNL     1       5.087   4.344  18.920  0.00  0.00    +0.000 C 
ATOM     27  O   UNL     1       5.509   3.363  19.516  0.00  0.00    +0.000 OA
ATOM     28  N   UNL     1       3.770   4.818  19.060  0.00  0.00    +0.000 N 
ATOM     29  C   UNL     1       2.922   4.217  20.091  0.00  0.00    +0.000 C 
ATOM     30  C   UNL     1       1.608   3.894  19.387  0.00  0.00    +0.000 C 
ATOM     31  C   UNL     1       1.496   4.932  18.287  0.00  0.00    +0.000 C 
ATOM     32  C   UNL     1       2.936   5.374  17.975  0.00  0.00    +0.000 C 
ATOM     33  C   UNL     1       2.899   6.899  17.852  0.00  0.00    +0.000 C 
BRANCH  30  34
ATOM     34  O   UNL     1       1.615   2.590  18.812  0.00  0.00    +0.000 OA
ATOM     35  H   UNL     1       2.119   2.630  17.986  0.00  0.00    +0.000 HD
ENDBRANCH  30  34
ENDBRANCH  22  26
ENDBRANCH   2  20
TORSDOF 7
ENDMDL
MODEL 7
REMARK VINA RESULT:      -8.4      2.858      3.556
REMARK  Name = 
REMARK  10 active torsions:
REMARK  status: ('A' for Active; 'I' for Inactive)
REMARK    1  A    between atoms: C_1  and  C_2
REMARK    2  A    between atoms: C_2  and  S_3
REMARK    3  A    between atoms: C_2  and  C_10
REMARK    4  A    between atoms: S_3  and  C_4
REMARK    5  A    between atoms: N_8  and  C_9
REMARK    6  A    between atoms: C_14  and  N_15
REMARK    7  A    between atoms: C_16  and  C_18
REMARK    8  A    between atoms: C_20  and  C_21
REMARK    9  A    between atoms: C_25  and  O_26
REMARK   10  A    between atoms: C_28  and  C_29
REMARK                            x       y       z     vdW  Elec       q    Type
REMARK                         _______ _______ _______ _____ _____    ______ ____
ROOT
ATOM      1  N   UNL     1       1.164   8.241  21.410  0.00  0.00    +0.000 N 
ATOM      2  C   UNL     1       1.583   7.872  20.139  0.00  0.00    +0.000 C 
ATOM      3  O   UNL     1       1.535   8.578  19.134  0.00  0.00    +0.000 OA
ATOM      4  H   UNL     1       1.400   7.602  22.161  0.00  0.00    +0.000 HD
ENDROOT
BRANCH   1   9
ATOM      5  C   UNL     1       0.232  11.869  21.273  0.00  0.00    +0.000 A 
ATOM      6  C   UNL     1      -0.682  11.918  22.341  0.00  0.00    +0.000 A 
ATOM      7  C   UNL     1      -0.980  10.783  23.076  0.00  0.00    +0.000 A 
ATOM      8  C   UNL     1      -0.394   9.557  22.766  0.00  0.00    +0.000 A 
ATOM      9  C   UNL     1       0.548   9.471  21.737  0.00  0.00    +0.000 A 
ATOM     10  C   UNL     1       0.873  10.631  21.021  0.00  0.00    +0.000 A 
BRANCH   5  12
ATOM     11  C   UNL     1       0.290  12.860  18.890  0.00  0.00    +0.000 C 
ATOM     12  C   UNL     1       0.562  13.084  20.387  0.00  0.00    +0.000 C 
BRANCH  12  13
ATOM     13  S   UNL     1       2.336  13.563  20.628  0.00  0.00    +0.000 S 
BRANCH  13  14
ATOM     14  C   UNL     1       2.669  14.580  19.272  0.00  0.00    +0.000 A 
ATOM     15  N   UNL     1       3.361  14.285  18.196  0.00  0.00    +0.000 NA
ATOM     16  N   UNL     1       3.490  15.442  17.451  0.00  0.00    +0.000 NA
ATOM     17  C   UNL     1       2.850  16.396  18.087  0.00  0.00    +0.000 A 
ATOM     18  N   UNL     1       2.267  15.884  19.207  0.00  0.00    +0.000 N 
ATOM     19  C   UNL     1       1.413  16.601  20.115  0.00  0.00    +0.000 C 
ENDBRANCH  13  14
ENDBRANCH  12  13
ENDBRANCH   5  12
ENDBRANCH   1   9
BRANCH   2  20
ATOM     20  C   UNL     1       2.222   6.522  20.027  0.00  0.00    +0.000 A 
ATOM     21  C   UNL     1       3.428   6.397  19.354  0.00  0.00    +0.000 A 
ATOM     22  C   UNL     1       4.202   5.266  19.545  0.00  0.00    +0.000 A 
ATOM     23  C   UNL     1       3.628   4.187  20.206  0.00  0.00    +0.000 A 
ATOM     24  C   UNL     1       2.344   4.340  20.718  0.00  0.00    +0.000 A 
ATOM     25  N   UNL     1       1.641   5.498  20.689  0.00  0.00    +0.000 NA
BRANCH  22  26
ATOM     26  C   UNL     1       5.580   5.180  18.990  0.00  0.00    +0.000 C 
ATOM     27  O   UNL     1       6.485   5.667  19.653  0.00  0.00    +0.000 OA
ATOM     28  N   UNL     1       5.793   4.539  17.756  0.00  0.00    +0.000 N 
ATOM     29  C   UNL     1       7.173   4.293  17.332  0.00  0.00    +0.000 C 
ATOM     30  C   UNL     1       7.239   4.784  15.889  0.00  0.00    +0.000 C 
ATOM     31  C   UNL     1       5.833   4.591  15.352  0.00  0.00    +0.000 C 
ATOM     32  C   UNL     1       4.905   4.621  16.579  0.00  0.00    +0.000 C 
ATOM     33  C   UNL     1       3.908   3.475  16.390  0.00  0.00    +0.000 C 
BRANCH  30  34
ATOM     34  O   UNL     1       7.594   6.162  15.809  0.00  0.00    +0.000 OA
ATOM     35  H   UNL     1       8.526   6.216  15.550  0.00  0.00    +0.000 HD
ENDBRANCH  30  34
ENDBRANCH  22  26
ENDBRANCH   2  20
TORSDOF 7
ENDMDL
MODEL 8
REMARK VINA RESULT:      -8.3      2.628      4.077
REMARK  Name = 
REMARK  10 active torsions:
REMARK  status: ('A' for Active; 'I' for Inactive)
REMARK    1  A    between atoms: C_1  and  C_2
REMARK    2  A    between atoms: C_2  and  S_3
REMARK    3  A    between atoms: C_2  and  C_10
REMARK    4  A    between atoms: S_3  and  C_4
REMARK    5  A    between atoms: N_8  and  C_9
REMARK    6  A    between atoms: C_14  and  N_15
REMARK    7  A    between atoms: C_16  and  C_18
REMARK    8  A    between atoms: C_20  and  C_21
REMARK    9  A    between atoms: C_25  and  O_26
REMARK   10  A    between atoms: C_28  and  C_29
REMARK                            x       y       z     vdW  Elec       q    Type
REMARK                         _______ _______ _______ _____ _____    ______ ____
ROOT
ATOM      1  N   UNL     1       1.477   9.555  17.903  0.00  0.00    +0.000 N 
ATOM      2  C   UNL     1       1.925   8.501  18.687  0.00  0.00    +0.000 C 
ATOM      3  O   UNL     1       1.403   8.109  19.728  0.00  0.00    +0.000 OA
ATOM      4  H   UNL     1       1.930   9.665  17.001  0.00  0.00    +0.000 HD
ENDROOT
BRANCH   1   9
ATOM      5  C   UNL     1      -2.031  10.861  18.077  0.00  0.00    +0.000 A 
ATOM      6  C   UNL     1      -1.815  12.018  18.848  0.00  0.00    +0.000 A 
ATOM      7  C   UNL     1      -0.547  12.347  19.297  0.00  0.00    +0.000 A 
ATOM      8  C   UNL     1       0.547  11.531  19.010  0.00  0.00    +0.000 A 
ATOM      9  C   UNL     1       0.383  10.393  18.216  0.00  0.00    +0.000 A 
ATOM     10  C   UNL     1      -0.897  10.085  17.734  0.00  0.00    +0.000 A 
BRANCH   5  12
ATOM     11  C   UNL     1      -3.443   9.840  16.172  0.00  0.00    +0.000 C 
ATOM     12  C   UNL     1      -3.425  10.415  17.597  0.00  0.00    +0.000 C 
BRANCH  12  13
ATOM     13  S   UNL     1      -4.601  11.843  17.703  0.00  0.00    +0.000 S 
BRANCH  13  14
ATOM     14  C   UNL     1      -5.744  11.339  18.898  0.00  0.00    +0.000 A 
ATOM     15  N   UNL     1      -6.694  10.441  18.773  0.00  0.00    +0.000 NA
ATOM     16  N   UNL     1      -7.452  10.472  19.929  0.00  0.00    +0.000 NA
ATOM     17  C   UNL     1      -6.921  11.369  20.727  0.00  0.00    +0.000 A 
ATOM     18  N   UNL     1      -5.808  11.896  20.144  0.00  0.00    +0.000 N 
ATOM     19  C   UNL     1      -4.912  12.846  20.744  0.00  0.00    +0.000 C 
ENDBRANCH  13  14
ENDBRANCH  12  13
ENDBRANCH   5  12
ENDBRANCH   1   9
BRANCH   2  20
ATOM     20  C   UNL     1       3.099   7.740  18.152  0.00  0.00    +0.000 A 
ATOM     21  C   UNL     1       3.568   6.638  18.852  0.00  0.00    +0.000 A 
ATOM     22  C   UNL     1       4.389   5.725  18.216  0.00  0.00    +0.000 A 
ATOM     23  C   UNL     1       4.917   6.072  16.979  0.00  0.00    +0.000 A 
ATOM     24  C   UNL     1       4.515   7.277  16.411  0.00  0.00    +0.000 A 
ATOM     25  N   UNL     1       3.580   8.100  16.943  0.00  0.00    +0.000 NA
BRANCH  22  26
ATOM     26  C   UNL     1       4.759   4.442  18.873  0.00  0.00    +0.000 C 
ATOM     27  O   UNL     1       5.944   4.252  19.110  0.00  0.00    +0.000 OA
ATOM     28  N   UNL     1       3.753   3.518  19.210  0.00  0.00    +0.000 N 
ATOM     29  C   UNL     1       4.119   2.362  20.030  0.00  0.00    +0.000 C 
ATOM     30  C   UNL     1       3.514   1.159  19.313  0.00  0.00    +0.000 C 
ATOM     31  C   UNL     1       2.290   1.708  18.606  0.00  0.00    +0.000 C 
ATOM     32  C   UNL     1       2.563   3.207  18.393  0.00  0.00    +0.000 C 
ATOM     33  C   UNL     1       1.268   3.935  18.762  0.00  0.00    +0.000 C 
BRANCH  30  34
ATOM     34  O   UNL     1       4.409   0.601  18.354  0.00  0.00    +0.000 OA
ATOM     35  H   UNL     1       5.314   0.781  18.649  0.00  0.00    +0.000 HD
ENDBRANCH  30  34
ENDBRANCH  22  26
ENDBRANCH   2  20
TORSDOF 7
ENDMDL
MODEL 9
REMARK VINA RESULT:      -8.3      2.649      4.491
REMARK  Name = 
REMARK  10 active torsions:
REMARK  status: ('A' for Active; 'I' for Inactive)
REMARK    1  A    between atoms: C_1  and  C_2
REMARK    2  A    between atoms: C_2  and  S_3
REMARK    3  A    between atoms: C_2  and  C_10
REMARK    4  A    between atoms: S_3  and  C_4
REMARK    5  A    between atoms: N_8  and  C_9
REMARK    6  A    between atoms: C_14  and  N_15
REMARK    7  A    between atoms: C_16  and  C_18
REMARK    8  A    between atoms: C_20  and  C_21
REMARK    9  A    between atoms: C_25  and  O_26
REMARK   10  A    between atoms: C_28  and  C_29
REMARK                            x       y       z     vdW  Elec       q    Type
REMARK                         _______ _______ _______ _____ _____    ______ ____
ROOT
ATOM      1  N   UNL     1       1.213   9.348  17.705  0.00  0.00    +0.000 N 
ATOM      2  C   UNL     1       1.886   8.577  18.642  0.00  0.00    +0.000 C 
ATOM      3  O   UNL     1       1.566   8.437  19.821  0.00  0.00    +0.000 OA
ATOM      4  H   UNL     1       1.518   9.248  16.742  0.00  0.00    +0.000 HD
ENDROOT
BRANCH   1   9
ATOM      5  C   UNL     1      -0.864  12.223  18.915  0.00  0.00    +0.000 A 
ATOM      6  C   UNL     1      -2.135  11.789  18.498  0.00  0.00    +0.000 A 
ATOM      7  C   UNL     1      -2.293  10.584  17.833  0.00  0.00    +0.000 A 
ATOM      8  C   UNL     1      -1.193   9.778  17.546  0.00  0.00    +0.000 A 
ATOM      9  C   UNL     1       0.083  10.153  17.976  0.00  0.00    +0.000 A 
ATOM     10  C   UNL     1       0.231  11.356  18.680  0.00  0.00    +0.000 A 
BRANCH   5  12
ATOM     11  C   UNL     1      -0.064  14.666  18.676  0.00  0.00    +0.000 C 
ATOM     12  C   UNL     1      -0.620  13.577  19.608  0.00  0.00    +0.000 C 
BRANCH  12  13
ATOM     13  S   UNL     1       0.533  13.340  21.039  0.00  0.00    +0.000 S 
BRANCH  13  14
ATOM     14  C   UNL     1      -0.347  12.297  22.099  0.00  0.00    +0.000 A 
ATOM     15  N   UNL     1      -0.116  11.029  22.355  0.00  0.00    +0.000 NA
ATOM     16  N   UNL     1      -1.153  10.566  23.142  0.00  0.00    +0.000 NA
ATOM     17  C   UNL     1      -1.966  11.574  23.360  0.00  0.00    +0.000 A 
ATOM     18  N   UNL     1      -1.466  12.697  22.773  0.00  0.00    +0.000 N 
ATOM     19  C   UNL     1      -2.030  14.017  22.862  0.00  0.00    +0.000 C 
ENDBRANCH  13  14
ENDBRANCH  12  13
ENDBRANCH   5  12
ENDBRANCH   1   9
BRANCH   2  20
ATOM     20  C   UNL     1       3.054   7.792  18.128  0.00  0.00    +0.000 A 
ATOM     21  C   UNL     1       3.492   6.685  18.839  0.00  0.00    +0.000 A 
ATOM     22  C   UNL     1       4.305   5.754  18.218  0.00  0.00    +0.000 A 
ATOM     23  C   UNL     1       4.858   6.087  16.987  0.00  0.00    +0.000 A 
ATOM     24  C   UNL     1       4.486   7.296  16.409  0.00  0.00    +0.000 A 
ATOM     25  N   UNL     1       3.559   8.139  16.924  0.00  0.00    +0.000 NA
BRANCH  22  26
ATOM     26  C   UNL     1       4.641   4.467  18.885  0.00  0.00    +0.000 C 
ATOM     27  O   UNL     1       5.810   4.285  19.200  0.00  0.00    +0.000 OA
ATOM     28  N   UNL     1       3.624   3.531  19.142  0.00  0.00    +0.000 N 
ATOM     29  C   UNL     1       3.944   2.368  19.973  0.00  0.00    +0.000 C 
ATOM     30  C   UNL     1       3.401   1.168  19.204  0.00  0.00    +0.000 C 
ATOM     31  C   UNL     1       2.223   1.714  18.420  0.00  0.00    +0.000 C 
ATOM     32  C   UNL     1       2.495   3.218  18.242  0.00  0.00    +0.000 C 
ATOM     33  C   UNL     1       1.171   3.930  18.530  0.00  0.00    +0.000 C 
BRANCH  30  34
ATOM     34  O   UNL     1       4.364   0.630  18.302  0.00  0.00    +0.000 OA
ATOM     35  H   UNL     1       4.386   1.195  17.515  0.00  0.00    +0.000 HD
ENDBRANCH  30  34
ENDBRANCH  22  26
ENDBRANCH   2  20
TORSDOF 7
ENDMDL
