MODEL 1
REMARK VINA RESULT:      -8.5      0.000      0.000
REMARK  Name = 
REMARK  5 active torsions:
REMARK  status: ('A' for Active; 'I' for Inactive)
REMARK    1  A    between atoms: O_1  and  C_2
REMARK    2  A    between atoms: C_6  and  N_7
REMARK    3  A    between atoms: N_7  and  C_8
REMARK    4  A    between atoms: N_11  and  C_12
REMARK    5  A    between atoms: C_22  and  C_23
REMARK                            x       y       z     vdW  Elec       q    Type
REMARK                         _______ _______ _______ _____ _____    ______ ____
ROOT
ATOM      1  C   UNL     1       2.809   6.628  19.543  0.00  0.00    +0.000 A 
ATOM      2  N   UNL     1       1.947   7.495  20.126  0.00  0.00    +0.000 NA
ATOM      3  C   UNL     1       1.573   8.577  19.426  0.00  0.00    +0.000 A 
ATOM      4  N   UNL     1       0.633   9.445  19.988  0.00  0.00    +0.000 N 
ATOM      5  N   UNL     1       2.073   8.875  18.224  0.00  0.00    +0.000 NA
ATOM      6  C   UNL     1       2.977   8.036  17.704  0.00  0.00    +0.000 A 
ATOM      7  C   UNL     1       3.383   6.848  18.280  0.00  0.00    +0.000 A 
ATOM      8  H   UNL     1       0.512   9.290  20.977  0.00  0.00    +0.000 HD
ENDROOT
BRANCH   4   9
ATOM      9  C   UNL     1      -0.217  10.348  19.337  0.00  0.00    +0.000 A 
ATOM     10  C   UNL     1      -1.318   9.917  18.581  0.00  0.00    +0.000 A 
ATOM     11  C   UNL     1      -2.105  10.825  17.869  0.00  0.00    +0.000 A 
ATOM     12 CL   UNL     1      -3.462  10.259  16.974  0.00  0.00    +0.000 Cl
ATOM     13  C   UNL     1      -1.796  12.178  17.872  0.00  0.00    +0.000 A 
ATOM     14  C   UNL     1      -0.699  12.615  18.609  0.00  0.00    +0.000 A 
ATOM     15 CL   UNL     1      -0.280  14.286  18.589  0.00  0.00    +0.000 Cl
ATOM     16  C   UNL     1       0.080  11.716  19.345  0.00  0.00    +0.000 A 
ENDBRANCH   4   9
BRANCH   7  17
ATOM     17  C   UNL     1       4.357   5.958  17.601  0.00  0.00    +0.000 A 
ATOM     18  C   UNL     1       3.971   4.732  17.032  0.00  0.00    +0.000 A 
ATOM     19  C   UNL     1       4.901   3.903  16.404  0.00  0.00    +0.000 A 
ATOM     20  C   UNL     1       6.223   4.303  16.377  0.00  0.00    +0.000 A 
ATOM     21  N   UNL     1       6.653   5.467  16.895  0.00  0.00    +0.000 NA
ATOM     22  C   UNL     1       5.714   6.265  17.465  0.00  0.00    +0.000 A 
ENDBRANCH   7  17
BRANCH   1  23
ATOM     23  N   UNL     1       3.093   5.420  20.204  0.00  0.00    +0.000 N 
ATOM     24  H   UNL     1       3.754   4.895  19.630  0.00  0.00    +0.000 HD
BRANCH  23  29
ATOM     25  C   UNL     1       1.570   3.611  19.580  0.00  0.00    +0.000 C 
ATOM     26  C   UNL     1       2.435   2.386  19.853  0.00  0.00    +0.000 C 
ATOM     27  O   UNL     1       2.807   2.401  21.235  0.00  0.00    +0.000 OA
ATOM     28  C   UNL     1       2.377   3.647  21.809  0.00  0.00    +0.000 C 
ATOM     29  C   UNL     1       1.969   4.599  20.678  0.00  0.00    +0.000 C 
BRANCH  25  30
ATOM     30  O   UNL     1       0.178   3.296  19.688  0.00  0.00    +0.000 OA
ATOM     31  H   UNL     1      -0.225   3.954  20.283  0.00  0.00    +0.000 HD
ENDBRANCH  25  30
ENDBRANCH  23  29
ENDBRANCH   1  23
TORSDOF 5
ENDMDL
MODEL 2
REMARK VINA RESULT:      -8.5      0.759      1.895
REMARK  Name = 
REMARK  5 active torsions:
REMARK  status: ('A' for Active; 'I' for Inactive)
REMARK    1  A    between atoms: O_1  and  C_2
REMARK    2  A    between atoms: C_6  and  N_7
REMARK    3  A    between atoms: N_7  and  C_8
REMARK    4  A    between atoms: N_11  and  C_12
REMARK    5  A    between atoms: C_22  and  C_23
REMARK                            x       y       z     vdW  Elec       q    Type
REMARK                         _______ _______ _______ _____ _____    ______ ____
ROOT
ATOM      1  C   UNL     1       3.157   6.532  19.267  0.00  0.00    +0.000 A 
ATOM      2  N   UNL     1       2.246   7.361  19.829  0.00  0.00    +0.000 NA
ATOM      3  C   UNL     1       1.883   8.457  19.142  0.00  0.00    +0.000 A 
ATOM      4  N   UNL     1       0.896   9.286  19.678  0.00  0.00    +0.000 N 
ATOM      5  N   UNL     1       2.439   8.802  17.977  0.00  0.00    +0.000 NA
ATOM      6  C   UNL     1       3.388   7.998  17.481  0.00  0.00    +0.000 A 
ATOM      7  C   UNL     1       3.792   6.803  18.044  0.00  0.00    +0.000 A 
ATOM      8  H   UNL     1       0.726   9.098  20.654  0.00  0.00    +0.000 HD
ENDROOT
BRANCH   4   9
ATOM      9  C   UNL     1       0.060  10.190  19.009  0.00  0.00    +0.000 A 
ATOM     10  C   UNL     1       0.245  11.578  19.101  0.00  0.00    +0.000 A 
ATOM     11  C   UNL     1      -0.647  12.467  18.498  0.00  0.00    +0.000 A 
ATOM     12 CL   UNL     1      -0.372  14.162  18.611  0.00  0.00    +0.000 Cl
ATOM     13  C   UNL     1      -1.758  11.993  17.812  0.00  0.00    +0.000 A 
ATOM     14  C   UNL     1      -1.957  10.618  17.724  0.00  0.00    +0.000 A 
ATOM     15 CL   UNL     1      -3.352  10.017  16.913  0.00  0.00    +0.000 Cl
ATOM     16  C   UNL     1      -1.055   9.720  18.305  0.00  0.00    +0.000 A 
ENDBRANCH   4   9
BRANCH   7  17
ATOM     17  C   UNL     1       4.821   5.955  17.392  0.00  0.00    +0.000 A 
ATOM     18  C   UNL     1       4.482   4.790  16.683  0.00  0.00    +0.000 A 
ATOM     19  C   UNL     1       5.463   4.000  16.083  0.00  0.00    +0.000 A 
ATOM     20  C   UNL     1       6.784   4.375  16.223  0.00  0.00    +0.000 A 
ATOM     21  N   UNL     1       7.172   5.483  16.881  0.00  0.00    +0.000 NA
ATOM     22  C   UNL     1       6.188   6.247  17.421  0.00  0.00    +0.000 A 
ENDBRANCH   7  17
BRANCH   1  23
ATOM     23  N   UNL     1       3.434   5.310  19.907  0.00  0.00    +0.000 N 
ATOM     24  H   UNL     1       4.370   5.014  19.627  0.00  0.00    +0.000 HD
BRANCH  23  29
ATOM     25  C   UNL     1       3.164   2.897  19.624  0.00  0.00    +0.000 C 
ATOM     26  C   UNL     1       3.410   2.401  21.044  0.00  0.00    +0.000 C 
ATOM     27  O   UNL     1       2.443   3.011  21.904  0.00  0.00    +0.000 OA
ATOM     28  C   UNL     1       1.715   3.993  21.146  0.00  0.00    +0.000 C 
ATOM     29  C   UNL     1       2.441   4.231  19.816  0.00  0.00    +0.000 C 
BRANCH  25  30
ATOM     30  O   UNL     1       2.330   1.989  18.896  0.00  0.00    +0.000 OA
ATOM     31  H   UNL     1       2.907   1.478  18.299  0.00  0.00    +0.000 HD
ENDBRANCH  25  30
ENDBRANCH  23  29
ENDBRANCH   1  23
TORSDOF 5
ENDMDL
MODEL 3
REMARK VINA RESULT:      -8.4      0.843      1.161
REMARK  Name = 
REMARK  5 active torsions:
REMARK  status: ('A' for Active; 'I' for Inactive)
REMARK    1  A    between atoms: O_1  and  C_2
REMARK    2  A    between atoms: C_6  and  N_7
REMARK    3  A    between atoms: N_7  and  C_8
REMARK    4  A    between atoms: N_11  and  C_12
REMARK    5  A    between atoms: C_22  and  C_23
REMARK                            x       y       z     vdW  Elec       q    Type
REMARK                         _______ _______ _______ _____ _____    ______ ____
ROOT
ATOM      1  C   UNL     1       3.039   6.539  19.379  0.00  0.00    +0.000 A 
ATOM      2  N   UNL     1       2.151   7.374  19.969  0.00  0.00    +0.000 NA
ATOM      3  C   UNL     1       1.749   8.455  19.280  0.00  0.00    +0.000 A 
ATOM      4  N   UNL     1       0.784   9.289  19.849  0.00  0.00    +0.000 N 
ATOM      5  N   UNL     1       2.246   8.781  18.084  0.00  0.00    +0.000 NA
ATOM      6  C   UNL     1       3.174   7.973  17.558  0.00  0.00    +0.000 A 
ATOM      7  C   UNL     1       3.611   6.791  18.122  0.00  0.00    +0.000 A 
ATOM      8  H   UNL     1       0.663   9.119  20.835  0.00  0.00    +0.000 HD
ENDROOT
BRANCH   4   9
ATOM      9  C   UNL     1      -0.089  10.176  19.205  0.00  0.00    +0.000 A 
ATOM     10  C   UNL     1      -1.148   9.724  18.403  0.00  0.00    +0.000 A 
ATOM     11  C   UNL     1      -1.955  10.620  17.700  0.00  0.00    +0.000 A 
ATOM     12 CL   UNL     1      -3.261  10.027  16.748  0.00  0.00    +0.000 Cl
ATOM     13  C   UNL     1      -1.708  11.986  17.759  0.00  0.00    +0.000 A 
ATOM     14  C   UNL     1      -0.653  12.444  18.542  0.00  0.00    +0.000 A 
ATOM     15 CL   UNL     1      -0.310  14.131  18.592  0.00  0.00    +0.000 Cl
ATOM     16  C   UNL     1       0.145  11.554  19.269  0.00  0.00    +0.000 A 
ENDBRANCH   4   9
BRANCH   7  17
ATOM     17  C   UNL     1       4.612   5.936  17.436  0.00  0.00    +0.000 A 
ATOM     18  C   UNL     1       5.980   6.256  17.425  0.00  0.00    +0.000 A 
ATOM     19  C   UNL     1       6.907   5.445  16.769  0.00  0.00    +0.000 A 
ATOM     20  C   UNL     1       6.444   4.327  16.104  0.00  0.00    +0.000 A 
ATOM     21  N   UNL     1       5.150   3.961  16.086  0.00  0.00    +0.000 NA
ATOM     22  C   UNL     1       4.282   4.754  16.765  0.00  0.00    +0.000 A 
ENDBRANCH   7  17
BRANCH   1  23
ATOM     23  N   UNL     1       3.354   5.331  20.027  0.00  0.00    +0.000 N 
ATOM     24  H   UNL     1       4.286   5.047  19.726  0.00  0.00    +0.000 HD
BRANCH  23  29
ATOM     25  C   UNL     1       3.092   2.940  19.585  0.00  0.00    +0.000 C 
ATOM     26  C   UNL     1       3.531   2.342  20.916  0.00  0.00    +0.000 C 
ATOM     27  O   UNL     1       2.674   2.855  21.941  0.00  0.00    +0.000 OA
ATOM     28  C   UNL     1       1.835   3.871  21.366  0.00  0.00    +0.000 C 
ATOM     29  C   UNL     1       2.376   4.234  19.977  0.00  0.00    +0.000 C 
BRANCH  25  30
ATOM     30  O   UNL     1       2.187   2.069  18.898  0.00  0.00    +0.000 OA
ATOM     31  H   UNL     1       1.432   2.609  18.600  0.00  0.00    +0.000 HD
ENDBRANCH  25  30
ENDBRANCH  23  29
ENDBRANCH   1  23
TORSDOF 5
ENDMDL
MODEL 4
REMARK VINA RESULT:      -8.3      1.015      1.992
REMARK  Name = 
REMARK  5 active torsions:
REMARK  status: ('A' for Active; 'I' for Inactive)
REMARK    1  A    between atoms: O_1  and  C_2
REMARK    2  A    between atoms: C_6  and  N_7
REMARK    3  A    between atoms: N_7  and  C_8
REMARK    4  A    between atoms: N_11  and  C_12
REMARK    5  A    between atoms: C_22  and  C_23
REMARK                            x       y       z     vdW  Elec       q    Type
REMARK                         _______ _______ _______ _____ _____    ______ ____
ROOT
ATOM      1  C   UNL     1       3.349   6.361  18.984  0.00  0.00    +0.000 A 
ATOM      2  N   UNL     1       2.412   7.136  19.582  0.00  0.00    +0.000 NA
ATOM      3  C   UNL     1       2.048   8.272  18.965  0.00  0.00    +0.000 A 
ATOM      4  N   UNL     1       1.035   9.047  19.536  0.00  0.00    +0.000 N 
ATOM      5  N   UNL     1       2.624   8.707  17.842  0.00  0.00    +0.000 NA
ATOM      6  C   UNL     1       3.596   7.954  17.313  0.00  0.00    +0.000 A 
ATOM      7  C   UNL     1       4.006   6.728  17.799  0.00  0.00    +0.000 A 
ATOM      8  H   UNL     1       0.847   8.788  20.491  0.00  0.00    +0.000 HD
ENDROOT
BRANCH   4   9
ATOM      9  C   UNL     1       0.201   9.984  18.913  0.00  0.00    +0.000 A 
ATOM     10  C   UNL     1       0.241  11.348  19.242  0.00  0.00    +0.000 A 
ATOM     11  C   UNL     1      -0.656  12.255  18.674  0.00  0.00    +0.000 A 
ATOM     12 CL   UNL     1      -0.557  13.924  19.085  0.00  0.00    +0.000 Cl
ATOM     13  C   UNL     1      -1.630  11.819  17.785  0.00  0.00    +0.000 A 
ATOM     14  C   UNL     1      -1.686  10.467  17.460  0.00  0.00    +0.000 A 
ATOM     15 CL   UNL     1      -2.914   9.906  16.391  0.00  0.00    +0.000 Cl
ATOM     16  C   UNL     1      -0.776   9.556  18.006  0.00  0.00    +0.000 A 
ENDBRANCH   4   9
BRANCH   7  17
ATOM     17  C   UNL     1       5.062   5.942  17.113  0.00  0.00    +0.000 A 
ATOM     18  C   UNL     1       4.765   5.052  16.068  0.00  0.00    +0.000 A 
ATOM     19  C   UNL     1       5.769   4.315  15.439  0.00  0.00    +0.000 A 
ATOM     20  C   UNL     1       7.068   4.462  15.886  0.00  0.00    +0.000 A 
ATOM     21  N   UNL     1       7.418   5.304  16.874  0.00  0.00    +0.000 NA
ATOM     22  C   UNL     1       6.419   6.032  17.438  0.00  0.00    +0.000 A 
ENDBRANCH   7  17
BRANCH   1  23
ATOM     23  N   UNL     1       3.630   5.102  19.543  0.00  0.00    +0.000 N 
ATOM     24  H   UNL     1       4.475   4.743  19.097  0.00  0.00    +0.000 HD
BRANCH  23  29
ATOM     25  C   UNL     1       2.294   3.551  18.206  0.00  0.00    +0.000 C 
ATOM     26  C   UNL     1       3.237   2.357  18.103  0.00  0.00    +0.000 C 
ATOM     27  O   UNL     1       3.528   1.903  19.429  0.00  0.00    +0.000 OA
ATOM     28  C   UNL     1       2.968   2.840  20.364  0.00  0.00    +0.000 C 
ATOM     29  C   UNL     1       2.550   4.107  19.608  0.00  0.00    +0.000 C 
BRANCH  25  30
ATOM     30  O   UNL     1       0.927   3.143  18.084  0.00  0.00    +0.000 OA
ATOM     31  H   UNL     1       0.874   2.212  18.368  0.00  0.00    +0.000 HD
ENDBRANCH  25  30
ENDBRANCH  23  29
ENDBRANCH   1  23
TORSDOF 5
ENDMDL
MODEL 5
REMARK VINA RESULT:      -8.3      0.992      1.040
REMARK  Name = 
REMARK  5 active torsions:
REMARK  status: ('A' for Active; 'I' for Inactive)
REMARK    1  A    between atoms: O_1  and  C_2
REMARK    2  A    between atoms: C_6  and  N_7
REMARK    3  A    between atoms: N_7  and  C_8
REMARK    4  A    between atoms: N_11  and  C_12
REMARK    5  A    between atoms: C_22  and  C_23
REMARK                            x       y       z     vdW  Elec       q    Type
REMARK                         _______ _______ _______ _____ _____    ______ ____
ROOT
ATOM      1  C   UNL     1       3.276   6.476  18.929  0.00  0.00    +0.000 A 
ATOM      2  N   UNL     1       2.332   7.189  19.588  0.00  0.00    +0.000 NA
ATOM      3  C   UNL     1       1.917   8.342  19.040  0.00  0.00    +0.000 A 
ATOM      4  N   UNL     1       0.897   9.055  19.674  0.00  0.00    +0.000 N 
ATOM      5  N   UNL     1       2.449   8.851  17.925  0.00  0.00    +0.000 NA
ATOM      6  C   UNL     1       3.430   8.157  17.334  0.00  0.00    +0.000 A 
ATOM      7  C   UNL     1       3.890   6.922  17.747  0.00  0.00    +0.000 A 
ATOM      8  H   UNL     1       0.743   8.743  20.620  0.00  0.00    +0.000 HD
ENDROOT
BRANCH   4   9
ATOM      9  C   UNL     1       0.018   9.995  19.121  0.00  0.00    +0.000 A 
ATOM     10  C   UNL     1      -0.890   9.654  18.105  0.00  0.00    +0.000 A 
ATOM     11  C   UNL     1      -1.699  10.621  17.506  0.00  0.00    +0.000 A 
ATOM     12 CL   UNL     1      -2.818  10.159  16.282  0.00  0.00    +0.000 Cl
ATOM     13  C   UNL     1      -1.603  11.954  17.885  0.00  0.00    +0.000 A 
ATOM     14  C   UNL     1      -0.699  12.304  18.883  0.00  0.00    +0.000 A 
ATOM     15 CL   UNL     1      -0.540  13.959  19.335  0.00  0.00    +0.000 Cl
ATOM     16  C   UNL     1       0.099  11.338  19.506  0.00  0.00    +0.000 A 
ENDBRANCH   4   9
BRANCH   7  17
ATOM     17  C   UNL     1       4.951   6.206  16.996  0.00  0.00    +0.000 A 
ATOM     18  C   UNL     1       4.666   5.093  16.186  0.00  0.00    +0.000 A 
ATOM     19  C   UNL     1       5.677   4.427  15.493  0.00  0.00    +0.000 A 
ATOM     20  C   UNL     1       6.976   4.871  15.641  0.00  0.00    +0.000 A 
ATOM     21  N   UNL     1       7.312   5.935  16.392  0.00  0.00    +0.000 NA
ATOM     22  C   UNL     1       6.298   6.581  17.023  0.00  0.00    +0.000 A 
ENDBRANCH   7  17
BRANCH   1  23
ATOM     23  N   UNL     1       3.612   5.200  19.416  0.00  0.00    +0.000 N 
ATOM     24  H   UNL     1       4.402   4.854  18.871  0.00  0.00    +0.000 HD
BRANCH  23  29
ATOM     25  C   UNL     1       2.298   3.520  18.219  0.00  0.00    +0.000 C 
ATOM     26  C   UNL     1       3.253   2.332  18.230  0.00  0.00    +0.000 C 
ATOM     27  O   UNL     1       3.541   2.003  19.592  0.00  0.00    +0.000 OA
ATOM     28  C   UNL     1       2.967   3.015  20.436  0.00  0.00    +0.000 C 
ATOM     29  C   UNL     1       2.541   4.204  19.566  0.00  0.00    +0.000 C 
BRANCH  25  30
ATOM     30  O   UNL     1       0.935   3.088  18.129  0.00  0.00    +0.000 OA
ATOM     31  H   UNL     1       0.412   3.843  17.803  0.00  0.00    +0.000 HD
ENDBRANCH  25  30
ENDBRANCH  23  29
ENDBRANCH   1  23
TORSDOF 5
ENDMDL
MODEL 6
REMARK VINA RESULT:      -8.2      0.623      1.958
REMARK  Name = 
REMARK  5 active torsions:
REMARK  status: ('A' for Active; 'I' for Inactive)
REMARK    1  A    between atoms: O_1  and  C_2
REMARK    2  A    between atoms: C_6  and  N_7
REMARK    3  A    between atoms: N_7  and  C_8
REMARK    4  A    between atoms: N_11  and  C_12
REMARK    5  A    between atoms: C_22  and  C_23
REMARK                            x       y       z     vdW  Elec       q    Type
REMARK                         _______ _______ _______ _____ _____    ______ ____
ROOT
ATOM      1  C   UNL     1       2.991   6.597  19.361  0.00  0.00    +0.000 A 
ATOM      2  N   UNL     1       2.102   7.460  19.909  0.00  0.00    +0.000 NA
ATOM      3  C   UNL     1       1.765   8.550  19.202  0.00  0.00    +0.000 A 
ATOM      4  N   UNL     1       0.799   9.413  19.724  0.00  0.00    +0.000 N 
ATOM      5  N   UNL     1       2.325   8.859  18.030  0.00  0.00    +0.000 NA
ATOM      6  C   UNL     1       3.253   8.023  17.547  0.00  0.00    +0.000 A 
ATOM      7  C   UNL     1       3.628   6.829  18.132  0.00  0.00    +0.000 A 
ATOM      8  H   UNL     1       0.628   9.249  20.704  0.00  0.00    +0.000 HD
ENDROOT
BRANCH   4   9
ATOM      9  C   UNL     1      -0.016  10.325  19.040  0.00  0.00    +0.000 A 
ATOM     10  C   UNL     1       0.204  11.710  19.104  0.00  0.00    +0.000 A 
ATOM     11  C   UNL     1      -0.668  12.609  18.486  0.00  0.00    +0.000 A 
ATOM     12 CL   UNL     1      -0.350  14.298  18.566  0.00  0.00    +0.000 Cl
ATOM     13  C   UNL     1      -1.792  12.149  17.813  0.00  0.00    +0.000 A 
ATOM     14  C   UNL     1      -2.025  10.778  17.752  0.00  0.00    +0.000 A 
ATOM     15 CL   UNL     1      -3.437  10.197  16.955  0.00  0.00    +0.000 Cl
ATOM     16  C   UNL     1      -1.144   9.870  18.348  0.00  0.00    +0.000 A 
ENDBRANCH   4   9
BRANCH   7  17
ATOM     17  C   UNL     1       4.634   5.943  17.494  0.00  0.00    +0.000 A 
ATOM     18  C   UNL     1       6.013   6.196  17.589  0.00  0.00    +0.000 A 
ATOM     19  C   UNL     1       6.944   5.357  16.976  0.00  0.00    +0.000 A 
ATOM     20  C   UNL     1       6.478   4.280  16.248  0.00  0.00    +0.000 A 
ATOM     21  N   UNL     1       5.173   3.980  16.127  0.00  0.00    +0.000 NA
ATOM     22  C   UNL     1       4.297   4.797  16.767  0.00  0.00    +0.000 A 
ENDBRANCH   7  17
BRANCH   1  23
ATOM     23  N   UNL     1       3.239   5.382  20.024  0.00  0.00    +0.000 N 
ATOM     24  H   UNL     1       4.029   4.929  19.564  0.00  0.00    +0.000 HD
BRANCH  23  29
ATOM     25  C   UNL     1       2.169   3.328  19.239  0.00  0.00    +0.000 C 
ATOM     26  C   UNL     1       3.027   2.267  19.918  0.00  0.00    +0.000 C 
ATOM     27  O   UNL     1       2.954   2.473  21.333  0.00  0.00    +0.000 OA
ATOM     28  C   UNL     1       2.247   3.700  21.578  0.00  0.00    +0.000 C 
ATOM     29  C   UNL     1       2.112   4.468  20.258  0.00  0.00    +0.000 C 
BRANCH  25  30
ATOM     30  O   UNL     1       0.849   2.839  18.978  0.00  0.00    +0.000 OA
ATOM     31  H   UNL     1       0.222   3.454  19.398  0.00  0.00    +0.000 HD
ENDBRANCH  25  30
ENDBRANCH  23  29
ENDBRANCH   1  23
TORSDOF 5
ENDMDL
MODEL 7
REMARK VINA RESULT:      -8.0      1.131      1.475
REMARK  Name = 
REMARK  5 active torsions:
REMARK  status: ('A' for Active; 'I' for Inactive)
REMARK    1  A    between atoms: O_1  and  C_2
REMARK    2  A    between atoms: C_6  and  N_7
REMARK    3  A    between atoms: N_7  and  C_8
REMARK    4  A    between atoms: N_11  and  C_12
REMARK    5  A    between atoms: C_22  and  C_23
REMARK                            x       y       z     vdW  Elec       q    Type
REMARK                         _______ _______ _______ _____ _____    ______ ____
ROOT
ATOM      1  C   UNL     1       3.329   6.153  18.919  0.00  0.00    +0.000 A 
ATOM      2  N   UNL     1       2.415   6.892  19.592  0.00  0.00    +0.000 NA
ATOM      3  C   UNL     1       2.099   8.102  19.102  0.00  0.00    +0.000 A 
ATOM      4  N   UNL     1       1.109   8.846  19.748  0.00  0.00    +0.000 N 
ATOM      5  N   UNL     1       2.701   8.635  18.037  0.00  0.00    +0.000 NA
ATOM      6  C   UNL     1       3.651   7.909  17.434  0.00  0.00    +0.000 A 
ATOM      7  C   UNL     1       4.011   6.623  17.785  0.00  0.00    +0.000 A 
ATOM      8  H   UNL     1       0.902   8.491  20.668  0.00  0.00    +0.000 HD
ENDROOT
BRANCH   4   9
ATOM      9  C   UNL     1       0.315   9.876  19.227  0.00  0.00    +0.000 A 
ATOM     10  C   UNL     1      -0.729   9.624  18.323  0.00  0.00    +0.000 A 
ATOM     11  C   UNL     1      -1.454  10.669  17.748  0.00  0.00    +0.000 A 
ATOM     12 CL   UNL     1      -2.745  10.316  16.664  0.00  0.00    +0.000 Cl
ATOM     13  C   UNL     1      -1.139  11.989  18.039  0.00  0.00    +0.000 A 
ATOM     14  C   UNL     1      -0.098  12.251  18.925  0.00  0.00    +0.000 A 
ATOM     15 CL   UNL     1       0.331  13.885  19.263  0.00  0.00    +0.000 Cl
ATOM     16  C   UNL     1       0.618  11.210  19.525  0.00  0.00    +0.000 A 
ENDBRANCH   4   9
BRANCH   7  17
ATOM     17  C   UNL     1       5.045   5.879  17.023  0.00  0.00    +0.000 A 
ATOM     18  C   UNL     1       4.725   5.111  15.891  0.00  0.00    +0.000 A 
ATOM     19  C   UNL     1       5.709   4.411  15.191  0.00  0.00    +0.000 A 
ATOM     20  C   UNL     1       7.009   4.469  15.654  0.00  0.00    +0.000 A 
ATOM     21  N   UNL     1       7.380   5.193  16.724  0.00  0.00    +0.000 NA
ATOM     22  C   UNL     1       6.403   5.890  17.359  0.00  0.00    +0.000 A 
ENDBRANCH   7  17
BRANCH   1  23
ATOM     23  N   UNL     1       3.560   4.830  19.338  0.00  0.00    +0.000 N 
ATOM     24  H   UNL     1       4.568   4.700  19.424  0.00  0.00    +0.000 HD
BRANCH  23  29
ATOM     25  C   UNL     1       3.005   2.450  19.423  0.00  0.00    +0.000 C 
ATOM     26  C   UNL     1       1.759   2.466  20.300  0.00  0.00    +0.000 C 
ATOM     27  O   UNL     1       0.774   3.284  19.661  0.00  0.00    +0.000 OA
ATOM     28  C   UNL     1       1.381   3.925  18.526  0.00  0.00    +0.000 C 
ATOM     29  C   UNL     1       2.901   3.739  18.605  0.00  0.00    +0.000 C 
BRANCH  25  30
ATOM     30  O   UNL     1       3.010   1.316  18.549  0.00  0.00    +0.000 OA
ATOM     31  H   UNL     1       2.561   1.581  17.725  0.00  0.00    +0.000 HD
ENDBRANCH  25  30
ENDBRANCH  23  29
ENDBRANCH   1  23
TORSDOF 5
ENDMDL
MODEL 8
REMARK VINA RESULT:      -7.7      2.839      4.373
REMARK  Name = 
REMARK  5 active torsions:
REMARK  status: ('A' for Active; 'I' for Inactive)
REMARK    1  A    between atoms: O_1  and  C_2
REMARK    2  A    between atoms: C_6  and  N_7
REMARK    3  A    between atoms: N_7  and  C_8
REMARK    4  A    between atoms: N_11  and  C_12
REMARK    5  A    between atoms: C_22  and  C_23
REMARK                            x       y       z     vdW  Elec       q    Type
REMARK                         _______ _______ _______ _____ _____    ______ ____
ROOT
ATOM      1  C   UNL     1       3.306   6.531  17.857  0.00  0.00    +0.000 A 
ATOM      2  N   UNL     1       2.959   7.748  17.372  0.00  0.00    +0.000 NA
ATOM      3  C   UNL     1       2.281   8.578  18.181  0.00  0.00    +0.000 A 
ATOM      4  N   UNL     1       1.975   9.859  17.718  0.00  0.00    +0.000 N 
ATOM      5  N   UNL     1       1.867   8.227  19.401  0.00  0.00    +0.000 NA
ATOM      6  C   UNL     1       2.164   6.992  19.825  0.00  0.00    +0.000 A 
ATOM      7  C   UNL     1       2.925   6.074  19.129  0.00  0.00    +0.000 A 
ATOM      8  H   UNL     1       2.090   9.944  16.720  0.00  0.00    +0.000 HD
ENDROOT
BRANCH   4   9
ATOM      9  C   UNL     1       1.690  11.010  18.465  0.00  0.00    +0.000 A 
ATOM     10  C   UNL     1       0.636  11.051  19.392  0.00  0.00    +0.000 A 
ATOM     11  C   UNL     1       0.312  12.230  20.065  0.00  0.00    +0.000 A 
ATOM     12 CL   UNL     1      -0.971  12.232  21.213  0.00  0.00    +0.000 Cl
ATOM     13  C   UNL     1       1.013  13.401  19.812  0.00  0.00    +0.000 A 
ATOM     14  C   UNL     1       2.053  13.375  18.887  0.00  0.00    +0.000 A 
ATOM     15 CL   UNL     1       2.904  14.829  18.532  0.00  0.00    +0.000 Cl
ATOM     16  C   UNL     1       2.400  12.192  18.225  0.00  0.00    +0.000 A 
ENDBRANCH   4   9
BRANCH   7  17
ATOM     17  C   UNL     1       3.243   4.744  19.705  0.00  0.00    +0.000 A 
ATOM     18  C   UNL     1       2.386   4.105  20.617  0.00  0.00    +0.000 A 
ATOM     19  C   UNL     1       2.704   2.858  21.155  0.00  0.00    +0.000 A 
ATOM     20  C   UNL     1       3.900   2.273  20.790  0.00  0.00    +0.000 A 
ATOM     21  N   UNL     1       4.758   2.828  19.916  0.00  0.00    +0.000 NA
ATOM     22  C   UNL     1       4.399   4.025  19.385  0.00  0.00    +0.000 A 
ENDBRANCH   7  17
BRANCH   1  23
ATOM     23  N   UNL     1       4.141   5.713  17.075  0.00  0.00    +0.000 N 
ATOM     24  H   UNL     1       4.427   4.919  17.647  0.00  0.00    +0.000 HD
BRANCH  23  29
ATOM     25  C   UNL     1       6.481   6.391  17.283  0.00  0.00    +0.000 C 
ATOM     26  C   UNL     1       7.197   5.070  17.027  0.00  0.00    +0.000 C 
ATOM     27  O   UNL     1       6.826   4.605  15.725  0.00  0.00    +0.000 OA
ATOM     28  C   UNL     1       5.787   5.459  15.216  0.00  0.00    +0.000 C 
ATOM     29  C   UNL     1       5.262   6.338  16.359  0.00  0.00    +0.000 C 
BRANCH  25  30
ATOM     30  O   UNL     1       7.310   7.505  16.935  0.00  0.00    +0.000 OA
ATOM     31  H   UNL     1       6.755   8.305  16.977  0.00  0.00    +0.000 HD
ENDBRANCH  25  30
ENDBRANCH  23  29
ENDBRANCH   1  23
TORSDOF 5
ENDMDL
MODEL 9
REMARK VINA RESULT:      -7.6      2.937      4.612
REMARK  Name = 
REMARK  5 active torsions:
REMARK  status: ('A' for Active; 'I' for Inactive)
REMARK    1  A    between atoms: O_1  and  C_2
REMARK    2  A    between atoms: C_6  and  N_7
REMARK    3  A    between atoms: N_7  and  C_8
REMARK    4  A    between atoms: N_11  and  C_12
REMARK    5  A    between atoms: C_22  and  C_23
REMARK                            x       y       z     vdW  Elec       q    Type
REMARK                         _______ _______ _______ _____ _____    ______ ____
ROOT
ATOM      1  C   UNL     1       3.272   6.506  17.871  0.00  0.00    +0.000 A 
ATOM      2  N   UNL     1       2.921   7.725  17.397  0.00  0.00    +0.000 NA
ATOM      3  C   UNL     1       2.273   8.560  18.225  0.00  0.00    +0.000 A 
ATOM      4  N   UNL     1       1.965   9.845  17.772  0.00  0.00    +0.000 N 
ATOM      5  N   UNL     1       1.891   8.212  19.456  0.00  0.00    +0.000 NA
ATOM      6  C   UNL     1       2.191   6.975  19.872  0.00  0.00    +0.000 A 
ATOM      7  C   UNL     1       2.924   6.051  19.153  0.00  0.00    +0.000 A 
ATOM      8  H   UNL     1       2.052   9.929  16.771  0.00  0.00    +0.000 HD
ENDROOT
BRANCH   4   9
ATOM      9  C   UNL     1       1.710  10.997  18.527  0.00  0.00    +0.000 A 
ATOM     10  C   UNL     1       2.364  12.212  18.270  0.00  0.00    +0.000 A 
ATOM     11  C   UNL     1       2.163  13.327  19.085  0.00  0.00    +0.000 A 
ATOM     12 CL   UNL     1       2.964  14.807  18.721  0.00  0.00    +0.000 Cl
ATOM     13  C   UNL     1       1.326  13.249  20.191  0.00  0.00    +0.000 A 
ATOM     14  C   UNL     1       0.681  12.046  20.462  0.00  0.00    +0.000 A 
ATOM     15 CL   UNL     1      -0.327  11.923  21.853  0.00  0.00    +0.000 Cl
ATOM     16  C   UNL     1       0.859  10.931  19.636  0.00  0.00    +0.000 A 
ENDBRANCH   4   9
BRANCH   7  17
ATOM     17  C   UNL     1       3.248   4.718  19.720  0.00  0.00    +0.000 A 
ATOM     18  C   UNL     1       2.400   4.075  20.637  0.00  0.00    +0.000 A 
ATOM     19  C   UNL     1       2.723   2.825  21.166  0.00  0.00    +0.000 A 
ATOM     20  C   UNL     1       3.916   2.241  20.787  0.00  0.00    +0.000 A 
ATOM     21  N   UNL     1       4.764   2.801  19.906  0.00  0.00    +0.000 NA
ATOM     22  C   UNL     1       4.400   4.000  19.384  0.00  0.00    +0.000 A 
ENDBRANCH   7  17
BRANCH   1  23
ATOM     23  N   UNL     1       4.078   5.681  17.065  0.00  0.00    +0.000 N 
ATOM     24  H   UNL     1       4.350   4.870  17.620  0.00  0.00    +0.000 HD
BRANCH  23  29
ATOM     25  C   UNL     1       6.435   6.300  17.262  0.00  0.00    +0.000 C 
ATOM     26  C   UNL     1       7.117   4.966  16.978  0.00  0.00    +0.000 C 
ATOM     27  O   UNL     1       6.723   4.531  15.673  0.00  0.00    +0.000 OA
ATOM     28  C   UNL     1       5.700   5.418  15.188  0.00  0.00    +0.000 C 
ATOM     29  C   UNL     1       5.207   6.290  16.349  0.00  0.00    +0.000 C 
BRANCH  25  30
ATOM     30  O   UNL     1       7.287   7.400  16.924  0.00  0.00    +0.000 OA
ATOM     31  H   UNL     1       7.867   7.107  16.197  0.00  0.00    +0.000 HD
ENDBRANCH  25  30
ENDBRANCH  23  29
ENDBRANCH   1  23
TORSDOF 5
ENDMDL
