MODEL 1
REMARK VINA RESULT:     -10.2      0.000      0.000
REMARK  Name = 
REMARK  5 active torsions:
REMARK  status: ('A' for Active; 'I' for Inactive)
REMARK    1  A    between atoms: C_2  and  O_3
REMARK    2  A    between atoms: C_2  and  C_4
REMARK    3  A    between atoms: C_8  and  N_9
REMARK    4  A    between atoms: C_10  and  C_11
REMARK    5  A    between atoms: C_12  and  C_13
REMARK                            x       y       z     vdW  Elec       q    Type
REMARK                         _______ _______ _______ _____ _____    ______ ____
ROOT
ATOM      1  N   UNL     1       4.544   3.752  17.356  0.00  0.00    +0.000 N 
ATOM      2  C   UNL     1       4.802   4.197  18.645  0.00  0.00    +0.000 A 
ATOM      3  N   UNL     1       4.713   3.304  19.585  0.00  0.00    +0.000 NA
ATOM      4  C   UNL     1       3.366   2.899  19.684  0.00  0.00    +0.000 A 
ATOM      5  C   UNL     1       2.815   2.827  20.962  0.00  0.00    +0.000 A 
ATOM      6  C   UNL     1       1.481   3.176  21.132  0.00  0.00    +0.000 A 
ATOM      7  C   UNL     1       0.709   3.544  20.023  0.00  0.00    +0.000 A 
ATOM      8  C   UNL     1       1.224   3.421  18.720  0.00  0.00    +0.000 A 
ATOM      9  C   UNL     1       2.550   3.033  18.549  0.00  0.00    +0.000 A 
ATOM     10  C   UNL     1       3.274   3.176  17.221  0.00  0.00    +0.000 A 
ATOM     11  O   UNL     1       2.673   2.923  16.183  0.00  0.00    +0.000 OA
ENDROOT
BRANCH   1  16
ATOM     12  C   UNL     1       5.939   4.022  13.916  0.00  0.00    +0.000 A 
ATOM     13  C   UNL     1       7.123   4.722  14.112  0.00  0.00    +0.000 A 
ATOM     14  C   UNL     1       7.435   5.184  15.396  0.00  0.00    +0.000 A 
ATOM     15  C   UNL     1       6.600   4.892  16.490  0.00  0.00    +0.000 A 
ATOM     16  C   UNL     1       5.411   4.181  16.302  0.00  0.00    +0.000 A 
ATOM     17  C   UNL     1       5.063   3.831  14.982  0.00  0.00    +0.000 A 
BRANCH  12  19
ATOM     18  O   UNL     1       4.501   3.553  12.082  0.00  0.00    +0.000 OA
ATOM     19  C   UNL     1       5.571   3.378  12.637  0.00  0.00    +0.000 C 
BRANCH  19  20
ATOM     20  O   UNL     1       6.479   2.461  12.243  0.00  0.00    +0.000 OA
ATOM     21  H   UNL     1       6.435   1.610  12.721  0.00  0.00    +0.000 HD
ENDBRANCH  19  20
ENDBRANCH  12  19
ENDBRANCH   1  16
BRANCH   2  22
ATOM     22  C   UNL     1       4.289   5.628  18.779  0.00  0.00    +0.000 C 
ATOM     23  C   UNL     1       3.454   5.945  19.787  0.00  0.00    +0.000 C 
BRANCH  23  24
ATOM     24  C   UNL     1       2.449   7.014  19.694  0.00  0.00    +0.000 A 
ATOM     25  C   UNL     1       2.426   7.806  18.538  0.00  0.00    +0.000 A 
ATOM     26  C   UNL     1       1.645   8.965  18.484  0.00  0.00    +0.000 A 
ATOM     27  C   UNL     1       0.895   9.349  19.590  0.00  0.00    +0.000 A 
ATOM     28  F   UNL     1       0.194  10.490  19.535  0.00  0.00    +0.000 F 
ATOM     29  C   UNL     1       0.893   8.570  20.743  0.00  0.00    +0.000 A 
ATOM     30 CL   UNL     1      -0.011   9.048  22.130  0.00  0.00    +0.000 Cl
ATOM     31  C   UNL     1       1.666   7.406  20.795  0.00  0.00    +0.000 A 
ENDBRANCH  23  24
ENDBRANCH   2  22
TORSDOF 5
ENDMDL
MODEL 2
REMARK VINA RESULT:      -9.4      2.315      2.869
REMARK  Name = 
REMARK  5 active torsions:
REMARK  status: ('A' for Active; 'I' for Inactive)
REMARK    1  A    between atoms: C_2  and  O_3
REMARK    2  A    between atoms: C_2  and  C_4
REMARK    3  A    between atoms: C_8  and  N_9
REMARK    4  A    between atoms: C_10  and  C_11
REMARK    5  A    between atoms: C_12  and  C_13
REMARK                            x       y       z     vdW  Elec       q    Type
REMARK                         _______ _______ _______ _____ _____    ______ ____
ROOT
ATOM      1  N   UNL     1       4.629   3.946  18.312  0.00  0.00    +0.000 N 
ATOM      2  C   UNL     1       4.140   4.718  19.357  0.00  0.00    +0.000 A 
ATOM      3  N   UNL     1       4.042   4.123  20.508  0.00  0.00    +0.000 NA
ATOM      4  C   UNL     1       3.057   3.119  20.405  0.00  0.00    +0.000 A 
ATOM      5  C   UNL     1       2.115   3.044  21.428  0.00  0.00    +0.000 A 
ATOM      6  C   UNL     1       0.810   2.692  21.107  0.00  0.00    +0.000 A 
ATOM      7  C   UNL     1       0.479   2.374  19.783  0.00  0.00    +0.000 A 
ATOM      8  C   UNL     1       1.481   2.262  18.802  0.00  0.00    +0.000 A 
ATOM      9  C   UNL     1       2.795   2.579  19.135  0.00  0.00    +0.000 A 
ATOM     10  C   UNL     1       3.872   2.790  18.086  0.00  0.00    +0.000 A 
ATOM     11  O   UNL     1       3.901   2.056  17.104  0.00  0.00    +0.000 OA
ENDROOT
BRANCH   1  16
ATOM     12  C   UNL     1       7.235   6.321  17.119  0.00  0.00    +0.000 A 
ATOM     13  C   UNL     1       7.398   5.964  15.786  0.00  0.00    +0.000 A 
ATOM     14  C   UNL     1       6.691   4.865  15.286  0.00  0.00    +0.000 A 
ATOM     15  C   UNL     1       5.775   4.168  16.095  0.00  0.00    +0.000 A 
ATOM     16  C   UNL     1       5.599   4.527  17.434  0.00  0.00    +0.000 A 
ATOM     17  C   UNL     1       6.411   5.559  17.944  0.00  0.00    +0.000 A 
BRANCH  12  19
ATOM     18  O   UNL     1       7.845   8.618  17.163  0.00  0.00    +0.000 OA
ATOM     19  C   UNL     1       7.829   7.535  17.720  0.00  0.00    +0.000 C 
BRANCH  19  20
ATOM     20  O   UNL     1       8.484   7.273  18.869  0.00  0.00    +0.000 OA
ATOM     21  H   UNL     1       8.710   6.333  19.006  0.00  0.00    +0.000 HD
ENDBRANCH  19  20
ENDBRANCH  12  19
ENDBRANCH   1  16
BRANCH   2  22
ATOM     22  C   UNL     1       3.091   5.678  18.803  0.00  0.00    +0.000 C 
ATOM     23  C   UNL     1       3.242   7.005  18.980  0.00  0.00    +0.000 C 
BRANCH  23  24
ATOM     24  C   UNL     1       2.111   7.938  19.071  0.00  0.00    +0.000 A 
ATOM     25  C   UNL     1       1.747   8.658  17.924  0.00  0.00    +0.000 A 
ATOM     26  C   UNL     1       0.830   9.710  18.004  0.00  0.00    +0.000 A 
ATOM     27  C   UNL     1       0.282  10.061  19.233  0.00  0.00    +0.000 A 
ATOM     28  F   UNL     1      -0.557  11.104  19.295  0.00  0.00    +0.000 F 
ATOM     29  C   UNL     1       0.618   9.352  20.382  0.00  0.00    +0.000 A 
ATOM     30 CL   UNL     1      -0.034   9.793  21.914  0.00  0.00    +0.000 Cl
ATOM     31  C   UNL     1       1.528   8.294  20.302  0.00  0.00    +0.000 A 
ENDBRANCH  23  24
ENDBRANCH   2  22
TORSDOF 5
ENDMDL
MODEL 3
REMARK VINA RESULT:      -9.3      2.793      5.675
REMARK  Name = 
REMARK  5 active torsions:
REMARK  status: ('A' for Active; 'I' for Inactive)
REMARK    1  A    between atoms: C_2  and  O_3
REMARK    2  A    between atoms: C_2  and  C_4
REMARK    3  A    between atoms: C_8  and  N_9
REMARK    4  A    between atoms: C_10  and  C_11
REMARK    5  A    between atoms: C_12  and  C_13
REMARK                            x       y       z     vdW  Elec       q    Type
REMARK                         _______ _______ _______ _____ _____    ______ ____
ROOT
ATOM      1  N   UNL     1       4.129   4.629  18.139  0.00  0.00    +0.000 N 
ATOM      2  C   UNL     1       4.044   5.756  17.334  0.00  0.00    +0.000 A 
ATOM      3  N   UNL     1       4.880   5.812  16.341  0.00  0.00    +0.000 NA
ATOM      4  C   UNL     1       6.184   5.931  16.866  0.00  0.00    +0.000 A 
ATOM      5  C   UNL     1       7.014   6.894  16.297  0.00  0.00    +0.000 A 
ATOM      6  C   UNL     1       7.904   7.574  17.118  0.00  0.00    +0.000 A 
ATOM      7  C   UNL     1       7.985   7.252  18.479  0.00  0.00    +0.000 A 
ATOM      8  C   UNL     1       7.284   6.147  18.995  0.00  0.00    +0.000 A 
ATOM      9  C   UNL     1       6.421   5.441  18.161  0.00  0.00    +0.000 A 
ATOM     10  C   UNL     1       5.402   4.450  18.695  0.00  0.00    +0.000 A 
ATOM     11  O   UNL     1       5.717   3.710  19.620  0.00  0.00    +0.000 OA
ENDROOT
BRANCH   1  16
ATOM     12  C   UNL     1       1.705   2.896  20.369  0.00  0.00    +0.000 A 
ATOM     13  C   UNL     1       0.700   2.503  19.494  0.00  0.00    +0.000 A 
ATOM     14  C   UNL     1       0.782   2.883  18.150  0.00  0.00    +0.000 A 
ATOM     15  C   UNL     1       1.895   3.596  17.669  0.00  0.00    +0.000 A 
ATOM     16  C   UNL     1       2.915   3.987  18.541  0.00  0.00    +0.000 A 
ATOM     17  C   UNL     1       2.750   3.694  19.910  0.00  0.00    +0.000 A 
BRANCH  12  19
ATOM     18  O   UNL     1       0.834   2.423  22.529  0.00  0.00    +0.000 OA
ATOM     19  C   UNL     1       1.790   2.444  21.775  0.00  0.00    +0.000 C 
BRANCH  19  20
ATOM     20  O   UNL     1       3.060   2.216  22.166  0.00  0.00    +0.000 OA
ATOM     21  H   UNL     1       3.417   1.345  21.908  0.00  0.00    +0.000 HD
ENDBRANCH  19  20
ENDBRANCH  12  19
ENDBRANCH   1  16
BRANCH   2  22
ATOM     22  C   UNL     1       3.679   6.952  18.208  0.00  0.00    +0.000 C 
ATOM     23  C   UNL     1       2.409   7.107  18.631  0.00  0.00    +0.000 C 
BRANCH  23  24
ATOM     24  C   UNL     1       1.808   8.419  18.909  0.00  0.00    +0.000 A 
ATOM     25  C   UNL     1       2.018   9.456  17.989  0.00  0.00    +0.000 A 
ATOM     26  C   UNL     1       1.659  10.770  18.304  0.00  0.00    +0.000 A 
ATOM     27  C   UNL     1       1.103  11.060  19.545  0.00  0.00    +0.000 A 
ATOM     28  F   UNL     1       0.813  12.334  19.845  0.00  0.00    +0.000 F 
ATOM     29  C   UNL     1       0.874  10.045  20.468  0.00  0.00    +0.000 A 
ATOM     30 CL   UNL     1       0.210  10.394  22.019  0.00  0.00    +0.000 Cl
ATOM     31  C   UNL     1       1.223   8.728  20.152  0.00  0.00    +0.000 A 
ENDBRANCH  23  24
ENDBRANCH   2  22
TORSDOF 5
ENDMDL
MODEL 4
REMARK VINA RESULT:      -9.2      2.875      5.772
REMARK  Name = 
REMARK  5 active torsions:
REMARK  status: ('A' for Active; 'I' for Inactive)
REMARK    1  A    between atoms: C_2  and  O_3
REMARK    2  A    between atoms: C_2  and  C_4
REMARK    3  A    between atoms: C_8  and  N_9
REMARK    4  A    between atoms: C_10  and  C_11
REMARK    5  A    between atoms: C_12  and  C_13
REMARK                            x       y       z     vdW  Elec       q    Type
REMARK                         _______ _______ _______ _____ _____    ______ ____
ROOT
ATOM      1  N   UNL     1       4.049   4.661  18.193  0.00  0.00    +0.000 N 
ATOM      2  C   UNL     1       3.937   5.875  17.531  0.00  0.00    +0.000 A 
ATOM      3  N   UNL     1       4.711   6.036  16.499  0.00  0.00    +0.000 NA
ATOM      4  C   UNL     1       6.047   6.074  16.949  0.00  0.00    +0.000 A 
ATOM      5  C   UNL     1       6.860   7.085  16.442  0.00  0.00    +0.000 A 
ATOM      6  C   UNL     1       7.815   7.653  17.276  0.00  0.00    +0.000 A 
ATOM      7  C   UNL     1       7.974   7.172  18.582  0.00  0.00    +0.000 A 
ATOM      8  C   UNL     1       7.283   6.025  19.012  0.00  0.00    +0.000 A 
ATOM      9  C   UNL     1       6.354   5.433  18.160  0.00  0.00    +0.000 A 
ATOM     10  C   UNL     1       5.350   4.401  18.642  0.00  0.00    +0.000 A 
ATOM     11  O   UNL     1       5.707   3.554  19.453  0.00  0.00    +0.000 OA
ENDROOT
BRANCH   1  16
ATOM     12  C   UNL     1       1.674   2.857  20.419  0.00  0.00    +0.000 A 
ATOM     13  C   UNL     1       0.667   2.460  19.547  0.00  0.00    +0.000 A 
ATOM     14  C   UNL     1       0.731   2.860  18.208  0.00  0.00    +0.000 A 
ATOM     15  C   UNL     1       1.828   3.598  17.728  0.00  0.00    +0.000 A 
ATOM     16  C   UNL     1       2.849   3.993  18.596  0.00  0.00    +0.000 A 
ATOM     17  C   UNL     1       2.701   3.679  19.962  0.00  0.00    +0.000 A 
BRANCH  12  19
ATOM     18  O   UNL     1       0.842   2.398  22.598  0.00  0.00    +0.000 OA
ATOM     19  C   UNL     1       1.777   2.387  21.818  0.00  0.00    +0.000 C 
BRANCH  19  20
ATOM     20  O   UNL     1       3.047   2.102  22.171  0.00  0.00    +0.000 OA
ATOM     21  H   UNL     1       3.154   1.774  23.085  0.00  0.00    +0.000 HD
ENDBRANCH  19  20
ENDBRANCH  12  19
ENDBRANCH   1  16
BRANCH   2  22
ATOM     22  C   UNL     1       3.654   6.967  18.559  0.00  0.00    +0.000 C 
ATOM     23  C   UNL     1       2.548   6.891  19.325  0.00  0.00    +0.000 C 
BRANCH  23  24
ATOM     24  C   UNL     1       1.854   8.072  19.856  0.00  0.00    +0.000 A 
ATOM     25  C   UNL     1       1.354   8.018  21.164  0.00  0.00    +0.000 A 
ATOM     26  C   UNL     1       0.503   9.019  21.644  0.00  0.00    +0.000 A 
ATOM     27  C   UNL     1       0.134  10.072  20.814  0.00  0.00    +0.000 A 
ATOM     28  F   UNL     1      -0.722  10.994  21.278  0.00  0.00    +0.000 F 
ATOM     29  C   UNL     1       0.628  10.153  19.517  0.00  0.00    +0.000 A 
ATOM     30 CL   UNL     1       0.158  11.438  18.470  0.00  0.00    +0.000 Cl
ATOM     31  C   UNL     1       1.487   9.158  19.039  0.00  0.00    +0.000 A 
ENDBRANCH  23  24
ENDBRANCH   2  22
TORSDOF 5
ENDMDL
MODEL 5
REMARK VINA RESULT:      -8.9      1.365      1.700
REMARK  Name = 
REMARK  5 active torsions:
REMARK  status: ('A' for Active; 'I' for Inactive)
REMARK    1  A    between atoms: C_2  and  O_3
REMARK    2  A    between atoms: C_2  and  C_4
REMARK    3  A    between atoms: C_8  and  N_9
REMARK    4  A    between atoms: C_10  and  C_11
REMARK    5  A    between atoms: C_12  and  C_13
REMARK                            x       y       z     vdW  Elec       q    Type
REMARK                         _______ _______ _______ _____ _____    ______ ____
ROOT
ATOM      1  N   UNL     1       4.599   4.472  18.411  0.00  0.00    +0.000 N 
ATOM      2  C   UNL     1       3.990   5.141  19.464  0.00  0.00    +0.000 A 
ATOM      3  N   UNL     1       3.885   4.478  20.577  0.00  0.00    +0.000 NA
ATOM      4  C   UNL     1       2.999   3.400  20.368  0.00  0.00    +0.000 A 
ATOM      5  C   UNL     1       2.015   3.189  21.331  0.00  0.00    +0.000 A 
ATOM      6  C   UNL     1       0.765   2.744  20.919  0.00  0.00    +0.000 A 
ATOM      7  C   UNL     1       0.533   2.472  19.564  0.00  0.00    +0.000 A 
ATOM      8  C   UNL     1       1.590   2.501  18.637  0.00  0.00    +0.000 A 
ATOM      9  C   UNL     1       2.852   2.910  19.060  0.00  0.00    +0.000 A 
ATOM     10  C   UNL     1       3.960   3.269  18.085  0.00  0.00    +0.000 A 
ATOM     11  O   UNL     1       4.105   2.596  17.071  0.00  0.00    +0.000 OA
ENDROOT
BRANCH   1  16
ATOM     12  C   UNL     1       6.661   5.352  15.441  0.00  0.00    +0.000 A 
ATOM     13  C   UNL     1       7.552   6.293  15.945  0.00  0.00    +0.000 A 
ATOM     14  C   UNL     1       7.423   6.705  17.275  0.00  0.00    +0.000 A 
ATOM     15  C   UNL     1       6.451   6.134  18.117  0.00  0.00    +0.000 A 
ATOM     16  C   UNL     1       5.558   5.181  17.620  0.00  0.00    +0.000 A 
ATOM     17  C   UNL     1       5.633   4.871  16.247  0.00  0.00    +0.000 A 
BRANCH  12  19
ATOM     18  O   UNL     1       6.242   3.704  13.780  0.00  0.00    +0.000 OA
ATOM     19  C   UNL     1       6.782   4.749  14.095  0.00  0.00    +0.000 C 
BRANCH  19  20
ATOM     20  O   UNL     1       7.677   5.396  13.321  0.00  0.00    +0.000 OA
ATOM     21  H   UNL     1       8.571   5.472  13.705  0.00  0.00    +0.000 HD
ENDBRANCH  19  20
ENDBRANCH  12  19
ENDBRANCH   1  16
BRANCH   2  22
ATOM     22  C   UNL     1       2.890   6.037  18.900  0.00  0.00    +0.000 C 
ATOM     23  C   UNL     1       2.979   7.373  19.044  0.00  0.00    +0.000 C 
BRANCH  23  24
ATOM     24  C   UNL     1       1.806   8.254  19.127  0.00  0.00    +0.000 A 
ATOM     25  C   UNL     1       1.406   8.940  17.972  0.00  0.00    +0.000 A 
ATOM     26  C   UNL     1       0.440   9.949  18.041  0.00  0.00    +0.000 A 
ATOM     27  C   UNL     1      -0.121  10.290  19.266  0.00  0.00    +0.000 A 
ATOM     28  F   UNL     1      -1.008  11.294  19.318  0.00  0.00    +0.000 F 
ATOM     29  C   UNL     1       0.252   9.613  20.424  0.00  0.00    +0.000 A 
ATOM     30 CL   UNL     1      -0.416  10.043  21.952  0.00  0.00    +0.000 Cl
ATOM     31  C   UNL     1       1.210   8.597  20.355  0.00  0.00    +0.000 A 
ENDBRANCH  23  24
ENDBRANCH   2  22
TORSDOF 5
ENDMDL
MODEL 6
REMARK VINA RESULT:      -8.9      1.008      1.336
REMARK  Name = 
REMARK  5 active torsions:
REMARK  status: ('A' for Active; 'I' for Inactive)
REMARK    1  A    between atoms: C_2  and  O_3
REMARK    2  A    between atoms: C_2  and  C_4
REMARK    3  A    between atoms: C_8  and  N_9
REMARK    4  A    between atoms: C_10  and  C_11
REMARK    5  A    between atoms: C_12  and  C_13
REMARK                            x       y       z     vdW  Elec       q    Type
REMARK                         _______ _______ _______ _____ _____    ______ ____
ROOT
ATOM      1  N   UNL     1       4.473   3.659  17.579  0.00  0.00    +0.000 N 
ATOM      2  C   UNL     1       4.813   3.868  18.909  0.00  0.00    +0.000 A 
ATOM      3  N   UNL     1       4.648   2.855  19.706  0.00  0.00    +0.000 NA
ATOM      4  C   UNL     1       3.267   2.587  19.800  0.00  0.00    +0.000 A 
ATOM      5  C   UNL     1       2.744   2.377  21.074  0.00  0.00    +0.000 A 
ATOM      6  C   UNL     1       1.463   2.837  21.353  0.00  0.00    +0.000 A 
ATOM      7  C   UNL     1       0.709   3.452  20.346  0.00  0.00    +0.000 A 
ATOM      8  C   UNL     1       1.173   3.479  19.018  0.00  0.00    +0.000 A 
ATOM      9  C   UNL     1       2.443   2.982  18.734  0.00  0.00    +0.000 A 
ATOM     10  C   UNL     1       3.144   3.249  17.414  0.00  0.00    +0.000 A 
ATOM     11  O   UNL     1       2.492   3.226  16.376  0.00  0.00    +0.000 OA
ENDROOT
BRANCH   1  16
ATOM     12  C   UNL     1       5.946   4.100  14.190  0.00  0.00    +0.000 A 
ATOM     13  C   UNL     1       7.108   4.818  14.444  0.00  0.00    +0.000 A 
ATOM     14  C   UNL     1       7.377   5.235  15.753  0.00  0.00    +0.000 A 
ATOM     15  C   UNL     1       6.522   4.880  16.813  0.00  0.00    +0.000 A 
ATOM     16  C   UNL     1       5.356   4.150  16.566  0.00  0.00    +0.000 A 
ATOM     17  C   UNL     1       5.049   3.846  15.225  0.00  0.00    +0.000 A 
BRANCH  12  19
ATOM     18  O   UNL     1       4.548   3.634  12.325  0.00  0.00    +0.000 OA
ATOM     19  C   UNL     1       5.626   3.500  12.877  0.00  0.00    +0.000 C 
BRANCH  19  20
ATOM     20  O   UNL     1       6.593   2.665  12.444  0.00  0.00    +0.000 OA
ATOM     21  H   UNL     1       6.278   1.932  11.881  0.00  0.00    +0.000 HD
ENDBRANCH  19  20
ENDBRANCH  12  19
ENDBRANCH   1  16
BRANCH   2  22
ATOM     22  C   UNL     1       4.467   5.308  19.278  0.00  0.00    +0.000 C 
ATOM     23  C   UNL     1       3.448   5.553  20.125  0.00  0.00    +0.000 C 
BRANCH  23  24
ATOM     24  C   UNL     1       2.644   6.783  20.082  0.00  0.00    +0.000 A 
ATOM     25  C   UNL     1       1.693   6.991  21.091  0.00  0.00    +0.000 A 
ATOM     26  C   UNL     1       0.757   8.024  20.984  0.00  0.00    +0.000 A 
ATOM     27  C   UNL     1       0.755   8.846  19.863  0.00  0.00    +0.000 A 
ATOM     28  F   UNL     1      -0.182   9.799  19.758  0.00  0.00    +0.000 F 
ATOM     29  C   UNL     1       1.699   8.666  18.856  0.00  0.00    +0.000 A 
ATOM     30 CL   UNL     1       1.691   9.661  17.450  0.00  0.00    +0.000 Cl
ATOM     31  C   UNL     1       2.641   7.639  18.966  0.00  0.00    +0.000 A 
ENDBRANCH  23  24
ENDBRANCH   2  22
TORSDOF 5
ENDMDL
MODEL 7
REMARK VINA RESULT:      -8.8      4.660      7.799
REMARK  Name = 
REMARK  5 active torsions:
REMARK  status: ('A' for Active; 'I' for Inactive)
REMARK    1  A    between atoms: C_2  and  O_3
REMARK    2  A    between atoms: C_2  and  C_4
REMARK    3  A    between atoms: C_8  and  N_9
REMARK    4  A    between atoms: C_10  and  C_11
REMARK    5  A    between atoms: C_12  and  C_13
REMARK                            x       y       z     vdW  Elec       q    Type
REMARK                         _______ _______ _______ _____ _____    ______ ____
ROOT
ATOM      1  N   UNL     1       1.375   9.156  20.242  0.00  0.00    +0.000 N 
ATOM      2  C   UNL     1       0.933  10.173  19.406  0.00  0.00    +0.000 A 
ATOM      3  N   UNL     1       1.378  11.364  19.674  0.00  0.00    +0.000 NA
ATOM      4  C   UNL     1       0.851  11.764  20.919  0.00  0.00    +0.000 A 
ATOM      5  C   UNL     1       0.317  13.048  21.001  0.00  0.00    +0.000 A 
ATOM      6  C   UNL     1      -0.796  13.256  21.806  0.00  0.00    +0.000 A 
ATOM      7  C   UNL     1      -1.327  12.195  22.549  0.00  0.00    +0.000 A 
ATOM      8  C   UNL     1      -0.661  10.958  22.608  0.00  0.00    +0.000 A 
ATOM      9  C   UNL     1       0.478  10.763  21.830  0.00  0.00    +0.000 A 
ATOM     10  C   UNL     1       1.073   9.387  21.590  0.00  0.00    +0.000 A 
ATOM     11  O   UNL     1       1.108   8.582  22.513  0.00  0.00    +0.000 OA
ENDROOT
BRANCH   1  16
ATOM     12  C   UNL     1       1.924   5.489  19.919  0.00  0.00    +0.000 A 
ATOM     13  C   UNL     1       2.701   5.388  18.772  0.00  0.00    +0.000 A 
ATOM     14  C   UNL     1       2.988   6.547  18.042  0.00  0.00    +0.000 A 
ATOM     15  C   UNL     1       2.557   7.808  18.491  0.00  0.00    +0.000 A 
ATOM     16  C   UNL     1       1.782   7.919  19.649  0.00  0.00    +0.000 A 
ATOM     17  C   UNL     1       1.408   6.726  20.300  0.00  0.00    +0.000 A 
BRANCH  12  19
ATOM     18  O   UNL     1       2.432   4.030  21.726  0.00  0.00    +0.000 OA
ATOM     19  C   UNL     1       1.667   4.357  20.836  0.00  0.00    +0.000 C 
BRANCH  19  20
ATOM     20  O   UNL     1       0.584   3.640  20.476  0.00  0.00    +0.000 OA
ATOM     21  H   UNL     1       0.063   3.282  21.221  0.00  0.00    +0.000 HD
ENDBRANCH  19  20
ENDBRANCH  12  19
ENDBRANCH   1  16
BRANCH   2  22
ATOM     22  C   UNL     1      -0.505   9.874  18.994  0.00  0.00    +0.000 C 
ATOM     23  C   UNL     1      -0.988  10.381  17.843  0.00  0.00    +0.000 C 
BRANCH  23  24
ATOM     24  C   UNL     1      -2.408  10.700  17.637  0.00  0.00    +0.000 A 
ATOM     25  C   UNL     1      -2.939  10.568  16.346  0.00  0.00    +0.000 A 
ATOM     26  C   UNL     1      -4.213  11.061  16.046  0.00  0.00    +0.000 A 
ATOM     27  C   UNL     1      -4.958  11.701  17.030  0.00  0.00    +0.000 A 
ATOM     28  F   UNL     1      -6.157  12.209  16.708  0.00  0.00    +0.000 F 
ATOM     29  C   UNL     1      -4.457  11.830  18.321  0.00  0.00    +0.000 A 
ATOM     30 CL   UNL     1      -5.360  12.644  19.542  0.00  0.00    +0.000 Cl
ATOM     31  C   UNL     1      -3.187  11.330  18.625  0.00  0.00    +0.000 A 
ENDBRANCH  23  24
ENDBRANCH   2  22
TORSDOF 5
ENDMDL
MODEL 8
REMARK VINA RESULT:      -8.8      4.830      7.861
REMARK  Name = 
REMARK  5 active torsions:
REMARK  status: ('A' for Active; 'I' for Inactive)
REMARK    1  A    between atoms: C_2  and  O_3
REMARK    2  A    between atoms: C_2  and  C_4
REMARK    3  A    between atoms: C_8  and  N_9
REMARK    4  A    between atoms: C_10  and  C_11
REMARK    5  A    between atoms: C_12  and  C_13
REMARK                            x       y       z     vdW  Elec       q    Type
REMARK                         _______ _______ _______ _____ _____    ______ ____
ROOT
ATOM      1  N   UNL     1       1.248   9.627  20.222  0.00  0.00    +0.000 N 
ATOM      2  C   UNL     1       0.667  10.725  19.603  0.00  0.00    +0.000 A 
ATOM      3  N   UNL     1       0.948  11.885  20.117  0.00  0.00    +0.000 NA
ATOM      4  C   UNL     1       0.380  11.947  21.406  0.00  0.00    +0.000 A 
ATOM      5  C   UNL     1      -0.322  13.103  21.737  0.00  0.00    +0.000 A 
ATOM      6  C   UNL     1      -1.448  12.991  22.544  0.00  0.00    +0.000 A 
ATOM      7  C   UNL     1      -1.825  11.738  23.044  0.00  0.00    +0.000 A 
ATOM      8  C   UNL     1      -0.996  10.616  22.863  0.00  0.00    +0.000 A 
ATOM      9  C   UNL     1       0.153  10.740  22.086  0.00  0.00    +0.000 A 
ATOM     10  C   UNL     1       0.928   9.535  21.583  0.00  0.00    +0.000 A 
ATOM     11  O   UNL     1       1.079   8.569  22.323  0.00  0.00    +0.000 OA
ENDROOT
BRANCH   1  16
ATOM     12  C   UNL     1       2.595   6.284  19.292  0.00  0.00    +0.000 A 
ATOM     13  C   UNL     1       3.125   6.501  18.026  0.00  0.00    +0.000 A 
ATOM     14  C   UNL     1       2.968   7.757  17.430  0.00  0.00    +0.000 A 
ATOM     15  C   UNL     1       2.344   8.811  18.122  0.00  0.00    +0.000 A 
ATOM     16  C   UNL     1       1.816   8.603  19.399  0.00  0.00    +0.000 A 
ATOM     17  C   UNL     1       1.882   7.298  19.928  0.00  0.00    +0.000 A 
BRANCH  12  19
ATOM     18  O   UNL     1       3.128   3.983  19.561  0.00  0.00    +0.000 OA
ATOM     19  C   UNL     1       2.811   5.044  20.069  0.00  0.00    +0.000 C 
BRANCH  19  20
ATOM     20  O   UNL     1       2.465   5.182  21.365  0.00  0.00    +0.000 OA
ATOM     21  H   UNL     1       2.713   4.431  21.937  0.00  0.00    +0.000 HD
ENDBRANCH  19  20
ENDBRANCH  12  19
ENDBRANCH   1  16
BRANCH   2  22
ATOM     22  C   UNL     1      -0.721  10.327  19.108  0.00  0.00    +0.000 C 
ATOM     23  C   UNL     1      -1.280  10.995  18.081  0.00  0.00    +0.000 C 
BRANCH  23  24
ATOM     24  C   UNL     1      -2.732  11.153  17.919  0.00  0.00    +0.000 A 
ATOM     25  C   UNL     1      -3.285  10.953  16.647  0.00  0.00    +0.000 A 
ATOM     26  C   UNL     1      -4.615  11.298  16.386  0.00  0.00    +0.000 A 
ATOM     27  C   UNL     1      -5.396  11.860  17.390  0.00  0.00    +0.000 A 
ATOM     28  F   UNL     1      -6.652  12.230  17.104  0.00  0.00    +0.000 F 
ATOM     29  C   UNL     1      -4.872  12.055  18.663  0.00  0.00    +0.000 A 
ATOM     30 CL   UNL     1      -5.820  12.775  19.909  0.00  0.00    +0.000 Cl
ATOM     31  C   UNL     1      -3.545  11.702  18.929  0.00  0.00    +0.000 A 
ENDBRANCH  23  24
ENDBRANCH   2  22
TORSDOF 5
ENDMDL
MODEL 9
REMARK VINA RESULT:      -8.6      5.357      8.505
REMARK  Name = 
REMARK  5 active torsions:
REMARK  status: ('A' for Active; 'I' for Inactive)
REMARK    1  A    between atoms: C_2  and  O_3
REMARK    2  A    between atoms: C_2  and  C_4
REMARK    3  A    between atoms: C_8  and  N_9
REMARK    4  A    between atoms: C_10  and  C_11
REMARK    5  A    between atoms: C_12  and  C_13
REMARK                            x       y       z     vdW  Elec       q    Type
REMARK                         _______ _______ _______ _____ _____    ______ ____
ROOT
ATOM      1  N   UNL     1       0.744  10.250  20.431  0.00  0.00    +0.000 N 
ATOM      2  C   UNL     1       0.158  11.369  19.857  0.00  0.00    +0.000 A 
ATOM      3  N   UNL     1       0.415  12.506  20.431  0.00  0.00    +0.000 NA
ATOM      4  C   UNL     1      -0.174  12.497  21.713  0.00  0.00    +0.000 A 
ATOM      5  C   UNL     1      -0.897  13.627  22.089  0.00  0.00    +0.000 A 
ATOM      6  C   UNL     1      -2.033  13.460  22.871  0.00  0.00    +0.000 A 
ATOM      7  C   UNL     1      -2.400  12.180  23.304  0.00  0.00    +0.000 A 
ATOM      8  C   UNL     1      -1.554  11.078  23.081  0.00  0.00    +0.000 A 
ATOM      9  C   UNL     1      -0.395  11.255  22.330  0.00  0.00    +0.000 A 
ATOM     10  C   UNL     1       0.404  10.086  21.780  0.00  0.00    +0.000 A 
ATOM     11  O   UNL     1       0.557   9.088  22.475  0.00  0.00    +0.000 OA
ENDROOT
BRANCH   1  16
ATOM     12  C   UNL     1       2.285   7.023  19.398  0.00  0.00    +0.000 A 
ATOM     13  C   UNL     1       2.720   7.284  18.104  0.00  0.00    +0.000 A 
ATOM     14  C   UNL     1       2.432   8.526  17.528  0.00  0.00    +0.000 A 
ATOM     15  C   UNL     1       1.771   9.526  18.263  0.00  0.00    +0.000 A 
ATOM     16  C   UNL     1       1.338   9.275  19.568  0.00  0.00    +0.000 A 
ATOM     17  C   UNL     1       1.536   7.977  20.082  0.00  0.00    +0.000 A 
BRANCH  12  19
ATOM     18  O   UNL     1       1.881   5.244  20.922  0.00  0.00    +0.000 OA
ATOM     19  C   UNL     1       2.642   5.801  20.151  0.00  0.00    +0.000 C 
BRANCH  19  20
ATOM     20  O   UNL     1       3.943   5.473  20.012  0.00  0.00    +0.000 OA
ATOM     21  H   UNL     1       4.155   4.544  20.223  0.00  0.00    +0.000 HD
ENDBRANCH  19  20
ENDBRANCH  12  19
ENDBRANCH   1  16
BRANCH   2  22
ATOM     22  C   UNL     1      -1.217  10.978  19.321  0.00  0.00    +0.000 C 
ATOM     23  C   UNL     1      -2.019  11.920  18.789  0.00  0.00    +0.000 C 
BRANCH  23  24
ATOM     24  C   UNL     1      -3.486  11.839  18.819  0.00  0.00    +0.000 A 
ATOM     25  C   UNL     1      -4.147  11.332  17.691  0.00  0.00    +0.000 A 
ATOM     26  C   UNL     1      -5.536  11.432  17.575  0.00  0.00    +0.000 A 
ATOM     27  C   UNL     1      -6.274  12.053  18.578  0.00  0.00    +0.000 A 
ATOM     28  F   UNL     1      -7.599  12.183  18.423  0.00  0.00    +0.000 F 
ATOM     29  C   UNL     1      -5.640  12.551  19.712  0.00  0.00    +0.000 A 
ATOM     30 CL   UNL     1      -6.538  13.346  20.948  0.00  0.00    +0.000 Cl
ATOM     31  C   UNL     1      -4.251  12.444  19.833  0.00  0.00    +0.000 A 
ENDBRANCH  23  24
ENDBRANCH   2  22
TORSDOF 5
ENDMDL
