MODEL 1
REMARK VINA RESULT:      -8.1      0.000      0.000
REMARK  Name = 
REMARK  2 active torsions:
REMARK  status: ('A' for Active; 'I' for Inactive)
REMARK    1  A    between atoms: C_14  and  C_15
REMARK    2  A    between atoms: C_15  and  O_17
REMARK                            x       y       z     vdW  Elec       q    Type
REMARK                         _______ _______ _______ _____ _____    ______ ____
ROOT
ATOM      1  N   UNL     1       2.057   9.459  17.690  0.00  0.00    +0.000 N 
ATOM      2  C   UNL     1       2.547   8.231  18.083  0.00  0.00    +0.000 A 
ATOM      3  N   UNL     1       3.556   7.710  17.383  0.00  0.00    +0.000 NA
ATOM      4  C   UNL     1       4.018   6.503  17.763  0.00  0.00    +0.000 A 
ATOM      5  N   UNL     1       5.054   5.900  17.022  0.00  0.00    +0.000 N 
ATOM      6  C   UNL     1       5.139   6.307  15.620  0.00  0.00    +0.000 C 
ATOM      7  C   UNL     1       5.850   5.218  14.808  0.00  0.00    +0.000 C 
ATOM      8  C   UNL     1       7.357   5.189  15.063  0.00  0.00    +0.000 C 
ATOM      9  O   UNL     1       7.810   4.455  16.192  0.00  0.00    +0.000 OA
ATOM     10  C   UNL     1       7.007   4.461  17.369  0.00  0.00    +0.000 C 
ATOM     11  C   UNL     1       6.351   5.805  17.725  0.00  0.00    +0.000 C 
ATOM     12  C   UNL     1       3.449   5.810  18.848  0.00  0.00    +0.000 A 
ATOM     13  C   UNL     1       3.820   4.507  19.263  0.00  0.00    +0.000 A 
ATOM     14  C   UNL     1       3.234   3.893  20.368  0.00  0.00    +0.000 A 
ATOM     15  C   UNL     1       2.241   4.573  21.065  0.00  0.00    +0.000 A 
ATOM     16  C   UNL     1       1.840   5.844  20.626  0.00  0.00    +0.000 A 
ATOM     17  C   UNL     1       2.423   6.472  19.526  0.00  0.00    +0.000 A 
ATOM     18  N   UNL     1       1.985   7.675  19.158  0.00  0.00    +0.000 NA
ATOM     19  H   UNL     1       2.765   9.977  17.193  0.00  0.00    +0.000 HD
ATOM     20  H   UNL     1       1.600   9.914  18.468  0.00  0.00    +0.000 HD
ENDROOT
BRANCH  14  21
ATOM     21  C   UNL     1       3.763   2.568  20.773  0.00  0.00    +0.000 C 
ATOM     22  O   UNL     1       3.349   1.970  21.751  0.00  0.00    +0.000 OA
BRANCH  21  23
ATOM     23  O   UNL     1       4.756   2.109  19.988  0.00  0.00    +0.000 OA
ATOM     24  H   UNL     1       4.845   1.141  19.951  0.00  0.00    +0.000 HD
ENDBRANCH  21  23
ENDBRANCH  14  21
TORSDOF 2
ENDMDL
MODEL 2
REMARK VINA RESULT:      -7.4      1.023      1.306
REMARK  Name = 
REMARK  2 active torsions:
REMARK  status: ('A' for Active; 'I' for Inactive)
REMARK    1  A    between atoms: C_14  and  C_15
REMARK    2  A    between atoms: C_15  and  O_17
REMARK                            x       y       z     vdW  Elec       q    Type
REMARK                         _______ _______ _______ _____ _____    ______ ____
ROOT
ATOM      1  N   UNL     1       1.650   8.261  18.956  0.00  0.00    +0.000 N 
ATOM      2  C   UNL     1       2.372   7.089  19.050  0.00  0.00    +0.000 A 
ATOM      3  N   UNL     1       3.353   6.889  18.169  0.00  0.00    +0.000 NA
ATOM      4  C   UNL     1       4.041   5.735  18.257  0.00  0.00    +0.000 A 
ATOM      5  N   UNL     1       5.057   5.468  17.317  0.00  0.00    +0.000 N 
ATOM      6  C   UNL     1       4.899   6.127  16.021  0.00  0.00    +0.000 C 
ATOM      7  C   UNL     1       5.663   5.346  14.946  0.00  0.00    +0.000 C 
ATOM      8  C   UNL     1       7.176   5.539  15.047  0.00  0.00    +0.000 C 
ATOM      9  O   UNL     1       7.877   4.706  15.961  0.00  0.00    +0.000 OA
ATOM     10  C   UNL     1       7.239   4.359  17.186  0.00  0.00    +0.000 C 
ATOM     11  C   UNL     1       6.431   5.480  17.862  0.00  0.00    +0.000 C 
ATOM     12  C   UNL     1       3.729   4.769  19.232  0.00  0.00    +0.000 A 
ATOM     13  C   UNL     1       4.349   3.500  19.343  0.00  0.00    +0.000 A 
ATOM     14  C   UNL     1       4.010   2.604  20.356  0.00  0.00    +0.000 A 
ATOM     15  C   UNL     1       3.019   2.960  21.264  0.00  0.00    +0.000 A 
ATOM     16  C   UNL     1       2.373   4.198  21.125  0.00  0.00    +0.000 A 
ATOM     17  C   UNL     1       2.707   5.106  20.121  0.00  0.00    +0.000 A 
ATOM     18  N   UNL     1       2.044   6.259  20.042  0.00  0.00    +0.000 NA
ATOM     19  H   UNL     1       2.200   8.977  18.506  0.00  0.00    +0.000 HD
ATOM     20  H   UNL     1       1.230   8.481  19.848  0.00  0.00    +0.000 HD
ENDROOT
BRANCH  14  21
ATOM     21  C   UNL     1       4.786   1.343  20.438  0.00  0.00    +0.000 C 
ATOM     22  O   UNL     1       5.415   1.026  21.433  0.00  0.00    +0.000 OA
BRANCH  21  23
ATOM     23  O   UNL     1       4.758   0.606  19.312  0.00  0.00    +0.000 OA
ATOM     24  H   UNL     1       4.688  -0.356  19.444  0.00  0.00    +0.000 HD
ENDBRANCH  21  23
ENDBRANCH  14  21
TORSDOF 2
ENDMDL
MODEL 3
REMARK VINA RESULT:      -7.1      3.075      4.367
REMARK  Name = 
REMARK  2 active torsions:
REMARK  status: ('A' for Active; 'I' for Inactive)
REMARK    1  A    between atoms: C_14  and  C_15
REMARK    2  A    between atoms: C_15  and  O_17
REMARK                            x       y       z     vdW  Elec       q    Type
REMARK                         _______ _______ _______ _____ _____    ______ ____
ROOT
ATOM      1  N   UNL     1       3.862   0.700  18.565  0.00  0.00    +0.000 N 
ATOM      2  C   UNL     1       3.649   2.045  18.786  0.00  0.00    +0.000 A 
ATOM      3  N   UNL     1       4.557   2.904  18.323  0.00  0.00    +0.000 NA
ATOM      4  C   UNL     1       4.350   4.214  18.558  0.00  0.00    +0.000 A 
ATOM      5  N   UNL     1       5.310   5.150  18.123  0.00  0.00    +0.000 N 
ATOM      6  C   UNL     1       6.673   4.637  18.001  0.00  0.00    +0.000 C 
ATOM      7  C   UNL     1       7.674   5.794  18.110  0.00  0.00    +0.000 C 
ATOM      8  C   UNL     1       7.708   6.657  16.849  0.00  0.00    +0.000 C 
ATOM      9  O   UNL     1       6.734   7.686  16.740  0.00  0.00    +0.000 OA
ATOM     10  C   UNL     1       5.430   7.439  17.256  0.00  0.00    +0.000 C 
ATOM     11  C   UNL     1       4.870   6.027  17.017  0.00  0.00    +0.000 C 
ATOM     12  C   UNL     1       3.225   4.660  19.277  0.00  0.00    +0.000 A 
ATOM     13  C   UNL     1       2.972   6.007  19.635  0.00  0.00    +0.000 A 
ATOM     14  C   UNL     1       1.819   6.381  20.322  0.00  0.00    +0.000 A 
ATOM     15  C   UNL     1       0.905   5.397  20.685  0.00  0.00    +0.000 A 
ATOM     16  C   UNL     1       1.178   4.057  20.372  0.00  0.00    +0.000 A 
ATOM     17  C   UNL     1       2.325   3.670  19.679  0.00  0.00    +0.000 A 
ATOM     18  N   UNL     1       2.525   2.378  19.425  0.00  0.00    +0.000 NA
ATOM     19  H   UNL     1       4.449   0.565  17.755  0.00  0.00    +0.000 HD
ATOM     20  H   UNL     1       2.984   0.200  18.598  0.00  0.00    +0.000 HD
ENDROOT
BRANCH  14  21
ATOM     21  C   UNL     1       1.608   7.828  20.563  0.00  0.00    +0.000 C 
ATOM     22  O   UNL     1       1.433   8.624  19.656  0.00  0.00    +0.000 OA
BRANCH  21  23
ATOM     23  O   UNL     1       1.661   8.183  21.861  0.00  0.00    +0.000 OA
ATOM     24  H   UNL     1       2.025   7.511  22.463  0.00  0.00    +0.000 HD
ENDBRANCH  21  23
ENDBRANCH  14  21
TORSDOF 2
ENDMDL
MODEL 4
REMARK VINA RESULT:      -7.1      3.233      6.316
REMARK  Name = 
REMARK  2 active torsions:
REMARK  status: ('A' for Active; 'I' for Inactive)
REMARK    1  A    between atoms: C_14  and  C_15
REMARK    2  A    between atoms: C_15  and  O_17
REMARK                            x       y       z     vdW  Elec       q    Type
REMARK                         _______ _______ _______ _____ _____    ______ ____
ROOT
ATOM      1  N   UNL     1       8.054   6.689  18.989  0.00  0.00    +0.000 N 
ATOM      2  C   UNL     1       7.389   5.991  18.002  0.00  0.00    +0.000 A 
ATOM      3  N   UNL     1       6.337   5.254  18.361  0.00  0.00    +0.000 NA
ATOM      4  C   UNL     1       5.704   4.562  17.395  0.00  0.00    +0.000 A 
ATOM      5  N   UNL     1       4.616   3.736  17.742  0.00  0.00    +0.000 N 
ATOM      6  C   UNL     1       4.627   3.231  19.113  0.00  0.00    +0.000 C 
ATOM      7  C   UNL     1       3.795   1.945  19.198  0.00  0.00    +0.000 C 
ATOM      8  C   UNL     1       2.293   2.216  19.133  0.00  0.00    +0.000 C 
ATOM      9  O   UNL     1       1.712   2.347  17.843  0.00  0.00    +0.000 OA
ATOM     10  C   UNL     1       2.475   2.980  16.820  0.00  0.00    +0.000 C 
ATOM     11  C   UNL     1       3.299   4.202  17.257  0.00  0.00    +0.000 C 
ATOM     12  C   UNL     1       6.143   4.604  16.057  0.00  0.00    +0.000 A 
ATOM     13  C   UNL     1       5.584   3.848  14.997  0.00  0.00    +0.000 A 
ATOM     14  C   UNL     1       6.050   3.965  13.688  0.00  0.00    +0.000 A 
ATOM     15  C   UNL     1       7.107   4.829  13.426  0.00  0.00    +0.000 A 
ATOM     16  C   UNL     1       7.691   5.541  14.485  0.00  0.00    +0.000 A 
ATOM     17  C   UNL     1       7.230   5.440  15.797  0.00  0.00    +0.000 A 
ATOM     18  N   UNL     1       7.839   6.138  16.754  0.00  0.00    +0.000 NA
ATOM     19  H   UNL     1       7.438   6.872  19.766  0.00  0.00    +0.000 HD
ATOM     20  H   UNL     1       8.547   7.474  18.585  0.00  0.00    +0.000 HD
ENDROOT
BRANCH  14  21
ATOM     21  C   UNL     1       5.333   3.200  12.639  0.00  0.00    +0.000 C 
ATOM     22  O   UNL     1       4.237   3.531  12.222  0.00  0.00    +0.000 OA
BRANCH  21  23
ATOM     23  O   UNL     1       5.984   2.098  12.220  0.00  0.00    +0.000 OA
ATOM     24  H   UNL     1       5.423   1.324  12.044  0.00  0.00    +0.000 HD
ENDBRANCH  21  23
ENDBRANCH  14  21
TORSDOF 2
ENDMDL
MODEL 5
REMARK VINA RESULT:      -6.7      1.532      5.011
REMARK  Name = 
REMARK  2 active torsions:
REMARK  status: ('A' for Active; 'I' for Inactive)
REMARK    1  A    between atoms: C_14  and  C_15
REMARK    2  A    between atoms: C_15  and  O_17
REMARK                            x       y       z     vdW  Elec       q    Type
REMARK                         _______ _______ _______ _____ _____    ______ ____
ROOT
ATOM      1  N   UNL     1       1.369   9.356  18.665  0.00  0.00    +0.000 N 
ATOM      2  C   UNL     1       2.162   8.262  18.384  0.00  0.00    +0.000 A 
ATOM      3  N   UNL     1       1.908   7.125  19.033  0.00  0.00    +0.000 NA
ATOM      4  C   UNL     1       2.697   6.068  18.766  0.00  0.00    +0.000 A 
ATOM      5  N   UNL     1       2.488   4.861  19.464  0.00  0.00    +0.000 N 
ATOM      6  C   UNL     1       1.876   5.000  20.784  0.00  0.00    +0.000 C 
ATOM      7  C   UNL     1       2.232   3.785  21.650  0.00  0.00    +0.000 C 
ATOM      8  C   UNL     1       1.460   2.531  21.242  0.00  0.00    +0.000 C 
ATOM      9  O   UNL     1       1.994   1.759  20.175  0.00  0.00    +0.000 OA
ATOM     10  C   UNL     1       2.632   2.442  19.100  0.00  0.00    +0.000 C 
ATOM     11  C   UNL     1       1.962   3.749  18.644  0.00  0.00    +0.000 C 
ATOM     12  C   UNL     1       3.760   6.160  17.846  0.00  0.00    +0.000 A 
ATOM     13  C   UNL     1       4.683   5.123  17.566  0.00  0.00    +0.000 A 
ATOM     14  C   UNL     1       5.693   5.275  16.618  0.00  0.00    +0.000 A 
ATOM     15  C   UNL     1       5.808   6.489  15.949  0.00  0.00    +0.000 A 
ATOM     16  C   UNL     1       4.923   7.532  16.261  0.00  0.00    +0.000 A 
ATOM     17  C   UNL     1       3.904   7.390  17.202  0.00  0.00    +0.000 A 
ATOM     18  N   UNL     1       3.107   8.427  17.456  0.00  0.00    +0.000 NA
ATOM     19  H   UNL     1       0.470   9.058  19.013  0.00  0.00    +0.000 HD
ATOM     20  H   UNL     1       1.383  10.002  17.888  0.00  0.00    +0.000 HD
ENDROOT
BRANCH  14  21
ATOM     21  C   UNL     1       6.545   4.095  16.335  0.00  0.00    +0.000 C 
ATOM     22  O   UNL     1       7.745   4.089  16.550  0.00  0.00    +0.000 OA
BRANCH  21  23
ATOM     23  O   UNL     1       5.883   3.057  15.791  0.00  0.00    +0.000 OA
ATOM     24  H   UNL     1       6.388   2.228  15.726  0.00  0.00    +0.000 HD
ENDBRANCH  21  23
ENDBRANCH  14  21
TORSDOF 2
ENDMDL
MODEL 6
REMARK VINA RESULT:      -6.6      3.117      4.446
REMARK  Name = 
REMARK  2 active torsions:
REMARK  status: ('A' for Active; 'I' for Inactive)
REMARK    1  A    between atoms: C_14  and  C_15
REMARK    2  A    between atoms: C_15  and  O_17
REMARK                            x       y       z     vdW  Elec       q    Type
REMARK                         _______ _______ _______ _____ _____    ______ ____
ROOT
ATOM      1  N   UNL     1       4.280   1.680  21.031  0.00  0.00    +0.000 N 
ATOM      2  C   UNL     1       4.023   2.878  20.396  0.00  0.00    +0.000 A 
ATOM      3  N   UNL     1       4.771   3.195  19.338  0.00  0.00    +0.000 NA
ATOM      4  C   UNL     1       4.524   4.373  18.734  0.00  0.00    +0.000 A 
ATOM      5  N   UNL     1       5.323   4.764  17.641  0.00  0.00    +0.000 N 
ATOM      6  C   UNL     1       6.671   4.199  17.616  0.00  0.00    +0.000 C 
ATOM      7  C   UNL     1       7.595   5.100  16.789  0.00  0.00    +0.000 C 
ATOM      8  C   UNL     1       7.338   4.979  15.287  0.00  0.00    +0.000 C 
ATOM      9  O   UNL     1       6.295   5.774  14.741  0.00  0.00    +0.000 OA
ATOM     10  C   UNL     1       5.128   5.992  15.528  0.00  0.00    +0.000 C 
ATOM     11  C   UNL     1       4.628   4.782  16.335  0.00  0.00    +0.000 C 
ATOM     12  C   UNL     1       3.525   5.245  19.208  0.00  0.00    +0.000 A 
ATOM     13  C   UNL     1       3.255   6.532  18.682  0.00  0.00    +0.000 A 
ATOM     14  C   UNL     1       2.227   7.328  19.182  0.00  0.00    +0.000 A 
ATOM     15  C   UNL     1       1.463   6.852  20.243  0.00  0.00    +0.000 A 
ATOM     16  C   UNL     1       1.762   5.597  20.794  0.00  0.00    +0.000 A 
ATOM     17  C   UNL     1       2.783   4.787  20.299  0.00  0.00    +0.000 A 
ATOM     18  N   UNL     1       3.018   3.611  20.879  0.00  0.00    +0.000 NA
ATOM     19  H   UNL     1       4.714   1.030  20.393  0.00  0.00    +0.000 HD
ATOM     20  H   UNL     1       3.458   1.371  21.532  0.00  0.00    +0.000 HD
ENDROOT
BRANCH  14  21
ATOM     21  C   UNL     1       1.968   8.618  18.497  0.00  0.00    +0.000 C 
ATOM     22  O   UNL     1       2.371   8.852  17.370  0.00  0.00    +0.000 OA
BRANCH  21  23
ATOM     23  O   UNL     1       1.286   9.509  19.241  0.00  0.00    +0.000 OA
ATOM     24  H   UNL     1       0.341   9.594  19.027  0.00  0.00    +0.000 HD
ENDBRANCH  21  23
ENDBRANCH  14  21
TORSDOF 2
ENDMDL
MODEL 7
REMARK VINA RESULT:      -6.5      3.311      4.580
REMARK  Name = 
REMARK  2 active torsions:
REMARK  status: ('A' for Active; 'I' for Inactive)
REMARK    1  A    between atoms: C_14  and  C_15
REMARK    2  A    between atoms: C_15  and  O_17
REMARK                            x       y       z     vdW  Elec       q    Type
REMARK                         _______ _______ _______ _____ _____    ______ ____
ROOT
ATOM      1  N   UNL     1       2.805   2.610  21.622  0.00  0.00    +0.000 N 
ATOM      2  C   UNL     1       2.810   3.788  20.903  0.00  0.00    +0.000 A 
ATOM      3  N   UNL     1       3.726   3.929  19.944  0.00  0.00    +0.000 NA
ATOM      4  C   UNL     1       3.734   5.088  19.258  0.00  0.00    +0.000 A 
ATOM      5  N   UNL     1       4.715   5.292  18.267  0.00  0.00    +0.000 N 
ATOM      6  C   UNL     1       5.958   4.545  18.454  0.00  0.00    +0.000 C 
ATOM      7  C   UNL     1       7.103   5.253  17.719  0.00  0.00    +0.000 C 
ATOM      8  C   UNL     1       7.026   5.070  16.204  0.00  0.00    +0.000 C 
ATOM      9  O   UNL     1       6.190   5.965  15.484  0.00  0.00    +0.000 OA
ATOM     10  C   UNL     1       4.976   6.393  16.093  0.00  0.00    +0.000 C 
ATOM     11  C   UNL     1       4.205   5.320  16.880  0.00  0.00    +0.000 C 
ATOM     12  C   UNL     1       2.820   6.118  19.550  0.00  0.00    +0.000 A 
ATOM     13  C   UNL     1       2.811   7.393  18.933  0.00  0.00    +0.000 A 
ATOM     14  C   UNL     1       1.854   8.355  19.250  0.00  0.00    +0.000 A 
ATOM     15  C   UNL     1       0.899   8.060  20.217  0.00  0.00    +0.000 A 
ATOM     16  C   UNL     1       0.938   6.814  20.862  0.00  0.00    +0.000 A 
ATOM     17  C   UNL     1       1.885   5.840  20.549  0.00  0.00    +0.000 A 
ATOM     18  N   UNL     1       1.869   4.683  21.210  0.00  0.00    +0.000 NA
ATOM     19  H   UNL     1       3.218   1.866  21.081  0.00  0.00    +0.000 HD
ATOM     20  H   UNL     1       1.890   2.451  22.020  0.00  0.00    +0.000 HD
ENDROOT
BRANCH  14  21
ATOM     21  C   UNL     1       1.878   9.621  18.477  0.00  0.00    +0.000 C 
ATOM     22  O   UNL     1       1.576  10.694  18.971  0.00  0.00    +0.000 OA
BRANCH  21  23
ATOM     23  O   UNL     1       2.225   9.470  17.186  0.00  0.00    +0.000 OA
ATOM     24  H   UNL     1       3.181   9.494  17.005  0.00  0.00    +0.000 HD
ENDBRANCH  21  23
ENDBRANCH  14  21
TORSDOF 2
ENDMDL
MODEL 8
REMARK VINA RESULT:      -6.3      1.574      4.859
REMARK  Name = 
REMARK  2 active torsions:
REMARK  status: ('A' for Active; 'I' for Inactive)
REMARK    1  A    between atoms: C_14  and  C_15
REMARK    2  A    between atoms: C_15  and  O_17
REMARK                            x       y       z     vdW  Elec       q    Type
REMARK                         _______ _______ _______ _____ _____    ______ ____
ROOT
ATOM      1  N   UNL     1       1.217   8.794  17.574  0.00  0.00    +0.000 N 
ATOM      2  C   UNL     1       2.259   7.918  17.797  0.00  0.00    +0.000 A 
ATOM      3  N   UNL     1       2.004   6.813  18.499  0.00  0.00    +0.000 NA
ATOM      4  C   UNL     1       3.030   5.971  18.727  0.00  0.00    +0.000 A 
ATOM      5  N   UNL     1       2.811   4.815  19.502  0.00  0.00    +0.000 N 
ATOM      6  C   UNL     1       1.713   4.906  20.464  0.00  0.00    +0.000 C 
ATOM      7  C   UNL     1       1.934   3.899  21.599  0.00  0.00    +0.000 C 
ATOM      8  C   UNL     1       1.657   2.460  21.166  0.00  0.00    +0.000 C 
ATOM      9  O   UNL     1       2.712   1.761  20.520  0.00  0.00    +0.000 OA
ATOM     10  C   UNL     1       3.571   2.489  19.647  0.00  0.00    +0.000 C 
ATOM     11  C   UNL     1       2.886   3.540  18.758  0.00  0.00    +0.000 C 
ATOM     12  C   UNL     1       4.327   6.253  18.256  0.00  0.00    +0.000 A 
ATOM     13  C   UNL     1       5.474   5.464  18.517  0.00  0.00    +0.000 A 
ATOM     14  C   UNL     1       6.723   5.787  17.990  0.00  0.00    +0.000 A 
ATOM     15  C   UNL     1       6.846   6.929  17.206  0.00  0.00    +0.000 A 
ATOM     16  C   UNL     1       5.719   7.736  16.986  0.00  0.00    +0.000 A 
ATOM     17  C   UNL     1       4.462   7.420  17.502  0.00  0.00    +0.000 A 
ATOM     18  N   UNL     1       3.439   8.238  17.262  0.00  0.00    +0.000 NA
ATOM     19  H   UNL     1       0.334   8.308  17.618  0.00  0.00    +0.000 HD
ATOM     20  H   UNL     1       1.405   9.354  16.754  0.00  0.00    +0.000 HD
ENDROOT
BRANCH  14  21
ATOM     21  C   UNL     1       7.837   4.842  18.248  0.00  0.00    +0.000 C 
ATOM     22  O   UNL     1       8.461   4.837  19.295  0.00  0.00    +0.000 OA
BRANCH  21  23
ATOM     23  O   UNL     1       8.114   4.024  17.216  0.00  0.00    +0.000 OA
ATOM     24  H   UNL     1       8.376   4.467  16.390  0.00  0.00    +0.000 HD
ENDBRANCH  21  23
ENDBRANCH  14  21
TORSDOF 2
ENDMDL
MODEL 9
REMARK VINA RESULT:      -6.2      8.312     10.625
REMARK  Name = 
REMARK  2 active torsions:
REMARK  status: ('A' for Active; 'I' for Inactive)
REMARK    1  A    between atoms: C_14  and  C_15
REMARK    2  A    between atoms: C_15  and  O_17
REMARK                            x       y       z     vdW  Elec       q    Type
REMARK                         _______ _______ _______ _____ _____    ______ ____
ROOT
ATOM      1  N   UNL     1      -2.846  10.398  14.788  0.00  0.00    +0.000 N 
ATOM      2  C   UNL     1      -3.185  10.869  16.039  0.00  0.00    +0.000 A 
ATOM      3  N   UNL     1      -2.244  10.859  16.985  0.00  0.00    +0.000 NA
ATOM      4  C   UNL     1      -2.588  11.304  18.208  0.00  0.00    +0.000 A 
ATOM      5  N   UNL     1      -1.634  11.268  19.245  0.00  0.00    +0.000 N 
ATOM      6  C   UNL     1      -0.595  10.250  19.104  0.00  0.00    +0.000 C 
ATOM      7  C   UNL     1      -0.012   9.910  20.481  0.00  0.00    +0.000 C 
ATOM      8  C   UNL     1       0.905  11.009  21.015  0.00  0.00    +0.000 C 
ATOM      9  O   UNL     1       0.289  12.096  21.692  0.00  0.00    +0.000 OA
ATOM     10  C   UNL     1      -0.977  12.553  21.226  0.00  0.00    +0.000 C 
ATOM     11  C   UNL     1      -1.156  12.591  19.699  0.00  0.00    +0.000 C 
ATOM     12  C   UNL     1      -3.895  11.750  18.485  0.00  0.00    +0.000 A 
ATOM     13  C   UNL     1      -4.359  12.158  19.759  0.00  0.00    +0.000 A 
ATOM     14  C   UNL     1      -5.660  12.619  19.953  0.00  0.00    +0.000 A 
ATOM     15  C   UNL     1      -6.529  12.654  18.868  0.00  0.00    +0.000 A 
ATOM     16  C   UNL     1      -6.083  12.205  17.616  0.00  0.00    +0.000 A 
ATOM     17  C   UNL     1      -4.782  11.748  17.407  0.00  0.00    +0.000 A 
ATOM     18  N   UNL     1      -4.430  11.326  16.193  0.00  0.00    +0.000 NA
ATOM     19  H   UNL     1      -1.853  10.483  14.637  0.00  0.00    +0.000 HD
ATOM     20  H   UNL     1      -3.463  10.794  14.091  0.00  0.00    +0.000 HD
ENDROOT
BRANCH  14  21
ATOM     21  C   UNL     1      -6.015  13.111  21.307  0.00  0.00    +0.000 C 
ATOM     22  O   UNL     1      -6.687  14.113  21.483  0.00  0.00    +0.000 OA
BRANCH  21  23
ATOM     23  O   UNL     1      -5.502  12.376  22.311  0.00  0.00    +0.000 OA
ATOM     24  H   UNL     1      -4.808  12.812  22.835  0.00  0.00    +0.000 HD
ENDBRANCH  21  23
ENDBRANCH  14  21
TORSDOF 2
ENDMDL
