MODEL 1
REMARK VINA RESULT:      -7.5      0.000      0.000
REMARK  Name = 
REMARK  8 active torsions:
REMARK  status: ('A' for Active; 'I' for Inactive)
REMARK    1  A    between atoms: C_1  and  N_2
REMARK    2  A    between atoms: N_2  and  C_3
REMARK    3  A    between atoms: N_2  and  C_21
REMARK    4  A    between atoms: C_3  and  C_4
REMARK    5  A    between atoms: N_15  and  C_16
REMARK    6  A    between atoms: C_16  and  C_17
REMARK    7  A    between atoms: C_17  and  C_18
REMARK    8  A    between atoms: C_18  and  N_19
REMARK                            x       y       z     vdW  Elec       q    Type
REMARK                         _______ _______ _______ _____ _____    ______ ____
ROOT
ATOM      1  C   UNL     1       1.833   7.939  19.841  0.00  0.00    +0.000 A 
ATOM      2  N   UNL     1       1.787   9.104  19.095  0.00  0.00    +0.000 NA
ATOM      3  C   UNL     1       2.419   9.216  17.903  0.00  0.00    +0.000 A 
ATOM      4  C   UNL     1       3.132   8.203  17.297  0.00  0.00    +0.000 A 
ATOM      5  C   UNL     1       3.182   6.979  17.974  0.00  0.00    +0.000 A 
ATOM      6  C   UNL     1       3.774   5.704  17.647  0.00  0.00    +0.000 A 
ATOM      7  C   UNL     1       4.511   5.209  16.548  0.00  0.00    +0.000 A 
ATOM      8  C   UNL     1       4.934   3.866  16.546  0.00  0.00    +0.000 A 
ATOM      9  C   UNL     1       4.620   3.016  17.601  0.00  0.00    +0.000 A 
ATOM     10  C   UNL     1       3.880   3.485  18.695  0.00  0.00    +0.000 A 
ATOM     11  C   UNL     1       3.488   4.824  18.695  0.00  0.00    +0.000 A 
ATOM     12  N   UNL     1       2.795   5.572  19.610  0.00  0.00    +0.000 N 
ATOM     13  C   UNL     1       2.552   6.870  19.224  0.00  0.00    +0.000 A 
ENDROOT
BRANCH   1  14
ATOM     14  C   UNL     1       1.027   7.986  21.186  0.00  0.00    +0.000 C 
BRANCH  14  16
ATOM     15  C   UNL     1       1.078   9.189  23.223  0.00  0.00    +0.000 C 
ATOM     16  N   UNL     1       0.655   9.277  21.813  0.00  0.00    +0.000 NA
BRANCH  16  17
ATOM     17  C   UNL     1      -0.646  10.039  21.575  0.00  0.00    +0.000 C 
ATOM     18  C   UNL     1      -0.919  10.708  22.955  0.00  0.00    +0.000 C 
ATOM     19  C   UNL     1      -1.625  12.040  23.070  0.00  0.00    +0.000 C 
ATOM     20  C   UNL     1      -1.283  13.062  22.018  0.00  0.00    +0.000 C 
ATOM     21  C   UNL     1      -0.963  12.487  20.682  0.00  0.00    +0.000 A 
ATOM     22  C   UNL     1      -0.984  13.404  19.600  0.00  0.00    +0.000 A 
ATOM     23  C   UNL     1      -1.054  12.944  18.305  0.00  0.00    +0.000 A 
ATOM     24  C   UNL     1      -1.180  11.587  18.158  0.00  0.00    +0.000 A 
ATOM     25  N   UNL     1      -1.079  10.699  19.191  0.00  0.00    +0.000 NA
ATOM     26  C   UNL     1      -0.819  11.117  20.451  0.00  0.00    +0.000 A 
ENDBRANCH  16  17
ENDBRANCH  14  16
ENDBRANCH   1  14
BRANCH  12  27
ATOM     27  C   UNL     1       2.373   5.054  20.897  0.00  0.00    +0.000 C 
BRANCH  27  28
ATOM     28  C   UNL     1       1.145   4.175  20.716  0.00  0.00    +0.000 C 
BRANCH  28  29
ATOM     29  C   UNL     1       1.275   2.752  21.179  0.00  0.00    +0.000 C 
BRANCH  29  30
ATOM     30  N   UNL     1       2.441   2.734  22.065  0.00  0.00    +0.000 NA
ATOM     31  H   UNL     1       2.759   1.781  22.192  0.00  0.00    +0.000 HD
ATOM     32  H   UNL     1       2.168   3.069  22.994  0.00  0.00    +0.000 HD
ENDBRANCH  29  30
ENDBRANCH  28  29
ENDBRANCH  27  28
ENDBRANCH  12  27
TORSDOF 7
ENDMDL
MODEL 2
REMARK VINA RESULT:      -7.5      2.923      5.938
REMARK  Name = 
REMARK  8 active torsions:
REMARK  status: ('A' for Active; 'I' for Inactive)
REMARK    1  A    between atoms: C_1  and  N_2
REMARK    2  A    between atoms: N_2  and  C_3
REMARK    3  A    between atoms: N_2  and  C_21
REMARK    4  A    between atoms: C_3  and  C_4
REMARK    5  A    between atoms: N_15  and  C_16
REMARK    6  A    between atoms: C_16  and  C_17
REMARK    7  A    between atoms: C_17  and  C_18
REMARK    8  A    between atoms: C_18  and  N_19
REMARK                            x       y       z     vdW  Elec       q    Type
REMARK                         _______ _______ _______ _____ _____    ______ ____
ROOT
ATOM      1  C   UNL     1      -0.729  11.616  21.388  0.00  0.00    +0.000 A 
ATOM      2  N   UNL     1      -1.116  11.312  22.682  0.00  0.00    +0.000 NA
ATOM      3  C   UNL     1      -0.831  10.117  23.251  0.00  0.00    +0.000 A 
ATOM      4  C   UNL     1      -0.116   9.108  22.641  0.00  0.00    +0.000 A 
ATOM      5  C   UNL     1       0.348   9.365  21.345  0.00  0.00    +0.000 A 
ATOM      6  C   UNL     1       1.150   8.596  20.424  0.00  0.00    +0.000 A 
ATOM      7  C   UNL     1       1.760   7.323  20.468  0.00  0.00    +0.000 A 
ATOM      8  C   UNL     1       2.509   6.874  19.363  0.00  0.00    +0.000 A 
ATOM      9  C   UNL     1       2.670   7.673  18.237  0.00  0.00    +0.000 A 
ATOM     10  C   UNL     1       2.082   8.944  18.177  0.00  0.00    +0.000 A 
ATOM     11  C   UNL     1       1.323   9.367  19.269  0.00  0.00    +0.000 A 
ATOM     12  N   UNL     1       0.615  10.517  19.499  0.00  0.00    +0.000 N 
ATOM     13  C   UNL     1       0.029  10.591  20.741  0.00  0.00    +0.000 A 
ENDROOT
BRANCH   1  14
ATOM     14  C   UNL     1      -1.129  13.053  20.902  0.00  0.00    +0.000 C 
BRANCH  14  16
ATOM     15  C   UNL     1      -3.024  14.464  21.041  0.00  0.00    +0.000 C 
ATOM     16  N   UNL     1      -2.459  13.318  20.303  0.00  0.00    +0.000 NA
BRANCH  16  17
ATOM     17  C   UNL     1      -3.472  12.257  19.881  0.00  0.00    +0.000 C 
ATOM     18  C   UNL     1      -4.836  12.993  20.036  0.00  0.00    +0.000 C 
ATOM     19  C   UNL     1      -6.018  12.678  19.148  0.00  0.00    +0.000 C 
ATOM     20  C   UNL     1      -5.701  12.399  17.701  0.00  0.00    +0.000 C 
ATOM     21  C   UNL     1      -4.385  11.738  17.476  0.00  0.00    +0.000 A 
ATOM     22  C   UNL     1      -4.208  11.149  16.198  0.00  0.00    +0.000 A 
ATOM     23  C   UNL     1      -3.207  10.227  15.995  0.00  0.00    +0.000 A 
ATOM     24  C   UNL     1      -2.480   9.879  17.104  0.00  0.00    +0.000 A 
ATOM     25  N   UNL     1      -2.595  10.503  18.314  0.00  0.00    +0.000 NA
ATOM     26  C   UNL     1      -3.441  11.544  18.487  0.00  0.00    +0.000 A 
ENDBRANCH  16  17
ENDBRANCH  14  16
ENDBRANCH   1  14
BRANCH  12  27
ATOM     27  C   UNL     1       0.467  11.565  18.507  0.00  0.00    +0.000 C 
BRANCH  27  28
ATOM     28  C   UNL     1       1.496  12.655  18.759  0.00  0.00    +0.000 C 
BRANCH  28  29
ATOM     29  C   UNL     1       2.753  12.582  17.938  0.00  0.00    +0.000 C 
BRANCH  29  30
ATOM     30  N   UNL     1       3.267  13.953  17.890  0.00  0.00    +0.000 NA
ATOM     31  H   UNL     1       3.075  14.421  18.768  0.00  0.00    +0.000 HD
ATOM     32  H   UNL     1       2.763  14.480  17.170  0.00  0.00    +0.000 HD
ENDBRANCH  29  30
ENDBRANCH  28  29
ENDBRANCH  27  28
ENDBRANCH  12  27
TORSDOF 7
ENDMDL
MODEL 3
REMARK VINA RESULT:      -7.5      3.095      6.119
REMARK  Name = 
REMARK  8 active torsions:
REMARK  status: ('A' for Active; 'I' for Inactive)
REMARK    1  A    between atoms: C_1  and  N_2
REMARK    2  A    between atoms: N_2  and  C_3
REMARK    3  A    between atoms: N_2  and  C_21
REMARK    4  A    between atoms: C_3  and  C_4
REMARK    5  A    between atoms: N_15  and  C_16
REMARK    6  A    between atoms: C_16  and  C_17
REMARK    7  A    between atoms: C_17  and  C_18
REMARK    8  A    between atoms: C_18  and  N_19
REMARK                            x       y       z     vdW  Elec       q    Type
REMARK                         _______ _______ _______ _____ _____    ______ ____
ROOT
ATOM      1  C   UNL     1      -0.580  11.639  21.901  0.00  0.00    +0.000 A 
ATOM      2  N   UNL     1      -0.717  11.135  23.184  0.00  0.00    +0.000 NA
ATOM      3  C   UNL     1      -0.286   9.895  23.515  0.00  0.00    +0.000 A 
ATOM      4  C   UNL     1       0.349   9.029  22.650  0.00  0.00    +0.000 A 
ATOM      5  C   UNL     1       0.563   9.491  21.346  0.00  0.00    +0.000 A 
ATOM      6  C   UNL     1       1.219   8.911  20.199  0.00  0.00    +0.000 A 
ATOM      7  C   UNL     1       1.880   7.686  19.952  0.00  0.00    +0.000 A 
ATOM      8  C   UNL     1       2.437   7.444  18.682  0.00  0.00    +0.000 A 
ATOM      9  C   UNL     1       2.362   8.399  17.674  0.00  0.00    +0.000 A 
ATOM     10  C   UNL     1       1.722   9.624  17.903  0.00  0.00    +0.000 A 
ATOM     11  C   UNL     1       1.153   9.842  19.158  0.00  0.00    +0.000 A 
ATOM     12  N   UNL     1       0.451  10.901  19.671  0.00  0.00    +0.000 N 
ATOM     13  C   UNL     1       0.092  10.765  20.992  0.00  0.00    +0.000 A 
ENDROOT
BRANCH   1  14
ATOM     14  C   UNL     1      -1.118  13.099  21.707  0.00  0.00    +0.000 C 
BRANCH  14  16
ATOM     15  C   UNL     1      -2.313  14.559  23.136  0.00  0.00    +0.000 C 
ATOM     16  N   UNL     1      -2.482  13.479  22.145  0.00  0.00    +0.000 NA
BRANCH  16  17
ATOM     17  C   UNL     1      -3.625  12.511  22.434  0.00  0.00    +0.000 C 
ATOM     18  C   UNL     1      -3.694  12.502  23.990  0.00  0.00    +0.000 C 
ATOM     19  C   UNL     1      -4.995  12.291  24.731  0.00  0.00    +0.000 C 
ATOM     20  C   UNL     1      -6.212  12.943  24.128  0.00  0.00    +0.000 C 
ATOM     21  C   UNL     1      -6.190  13.029  22.641  0.00  0.00    +0.000 A 
ATOM     22  C   UNL     1      -7.439  13.304  22.026  0.00  0.00    +0.000 A 
ATOM     23  C   UNL     1      -7.616  13.062  20.683  0.00  0.00    +0.000 A 
ATOM     24  C   UNL     1      -6.558  12.480  20.035  0.00  0.00    +0.000 A 
ATOM     25  N   UNL     1      -5.330  12.291  20.604  0.00  0.00    +0.000 NA
ATOM     26  C   UNL     1      -5.075  12.697  21.869  0.00  0.00    +0.000 A 
ENDBRANCH  16  17
ENDBRANCH  14  16
ENDBRANCH   1  14
BRANCH  12  27
ATOM     27  C   UNL     1       0.085  12.063  18.884  0.00  0.00    +0.000 C 
BRANCH  27  28
ATOM     28  C   UNL     1      -1.038  11.698  17.927  0.00  0.00    +0.000 C 
BRANCH  28  29
ATOM     29  C   UNL     1      -2.356  11.341  18.555  0.00  0.00    +0.000 C 
BRANCH  29  30
ATOM     30  N   UNL     1      -2.965  12.617  18.937  0.00  0.00    +0.000 NA
ATOM     31  H   UNL     1      -3.974  12.541  18.890  0.00  0.00    +0.000 HD
ATOM     32  H   UNL     1      -2.701  13.337  18.257  0.00  0.00    +0.000 HD
ENDBRANCH  29  30
ENDBRANCH  28  29
ENDBRANCH  27  28
ENDBRANCH  12  27
TORSDOF 7
ENDMDL
MODEL 4
REMARK VINA RESULT:      -7.4      2.144      7.729
REMARK  Name = 
REMARK  8 active torsions:
REMARK  status: ('A' for Active; 'I' for Inactive)
REMARK    1  A    between atoms: C_1  and  N_2
REMARK    2  A    between atoms: N_2  and  C_3
REMARK    3  A    between atoms: N_2  and  C_21
REMARK    4  A    between atoms: C_3  and  C_4
REMARK    5  A    between atoms: N_15  and  C_16
REMARK    6  A    between atoms: C_16  and  C_17
REMARK    7  A    between atoms: C_17  and  C_18
REMARK    8  A    between atoms: C_18  and  N_19
REMARK                            x       y       z     vdW  Elec       q    Type
REMARK                         _______ _______ _______ _____ _____    ______ ____
ROOT
ATOM      1  C   UNL     1       3.151   5.864  18.499  0.00  0.00    +0.000 A 
ATOM      2  N   UNL     1       3.662   6.397  17.328  0.00  0.00    +0.000 NA
ATOM      3  C   UNL     1       3.393   7.666  16.943  0.00  0.00    +0.000 A 
ATOM      4  C   UNL     1       2.630   8.559  17.665  0.00  0.00    +0.000 A 
ATOM      5  C   UNL     1       2.118   8.103  18.886  0.00  0.00    +0.000 A 
ATOM      6  C   UNL     1       1.337   8.741  19.917  0.00  0.00    +0.000 A 
ATOM      7  C   UNL     1       0.799  10.036  20.093  0.00  0.00    +0.000 A 
ATOM      8  C   UNL     1       0.079  10.333  21.265  0.00  0.00    +0.000 A 
ATOM      9  C   UNL     1      -0.096   9.377  22.260  0.00  0.00    +0.000 A 
ATOM     10  C   UNL     1       0.440   8.090  22.110  0.00  0.00    +0.000 A 
ATOM     11  C   UNL     1       1.131   7.802  20.933  0.00  0.00    +0.000 A 
ATOM     12  N   UNL     1       1.734   6.655  20.486  0.00  0.00    +0.000 N 
ATOM     13  C   UNL     1       2.372   6.778  19.273  0.00  0.00    +0.000 A 
ENDROOT
BRANCH   1  14
ATOM     14  C   UNL     1       3.585   4.385  18.794  0.00  0.00    +0.000 C 
BRANCH  14  16
ATOM     15  C   UNL     1       3.826   2.169  18.002  0.00  0.00    +0.000 C 
ATOM     16  N   UNL     1       4.252   3.561  17.759  0.00  0.00    +0.000 NA
BRANCH  16  17
ATOM     17  C   UNL     1       5.693   3.723  17.286  0.00  0.00    +0.000 C 
ATOM     18  C   UNL     1       5.560   3.691  15.734  0.00  0.00    +0.000 C 
ATOM     19  C   UNL     1       6.500   4.462  14.836  0.00  0.00    +0.000 C 
ATOM     20  C   UNL     1       6.913   5.825  15.327  0.00  0.00    +0.000 C 
ATOM     21  C   UNL     1       7.014   5.940  16.809  0.00  0.00    +0.000 A 
ATOM     22  C   UNL     1       7.726   7.070  17.287  0.00  0.00    +0.000 A 
ATOM     23  C   UNL     1       8.183   7.101  18.585  0.00  0.00    +0.000 A 
ATOM     24  C   UNL     1       7.974   5.963  19.320  0.00  0.00    +0.000 A 
ATOM     25  N   UNL     1       7.219   4.909  18.889  0.00  0.00    +0.000 NA
ATOM     26  C   UNL     1       6.599   4.936  17.687  0.00  0.00    +0.000 A 
ENDBRANCH  16  17
ENDBRANCH  14  16
ENDBRANCH   1  14
BRANCH  12  27
ATOM     27  C   UNL     1       1.685   5.401  21.213  0.00  0.00    +0.000 C 
BRANCH  27  28
ATOM     28  C   UNL     1       0.802   4.413  20.467  0.00  0.00    +0.000 C 
BRANCH  28  29
ATOM     29  C   UNL     1       1.048   2.958  20.752  0.00  0.00    +0.000 C 
BRANCH  29  30
ATOM     30  N   UNL     1       1.892   2.932  21.948  0.00  0.00    +0.000 NA
ATOM     31  H   UNL     1       1.982   3.869  22.323  0.00  0.00    +0.000 HD
ATOM     32  H   UNL     1       2.839   2.636  21.691  0.00  0.00    +0.000 HD
ENDBRANCH  29  30
ENDBRANCH  28  29
ENDBRANCH  27  28
ENDBRANCH  12  27
TORSDOF 7
ENDMDL
MODEL 5
REMARK VINA RESULT:      -7.3      1.522      8.538
REMARK  Name = 
REMARK  8 active torsions:
REMARK  status: ('A' for Active; 'I' for Inactive)
REMARK    1  A    between atoms: C_1  and  N_2
REMARK    2  A    between atoms: N_2  and  C_3
REMARK    3  A    between atoms: N_2  and  C_21
REMARK    4  A    between atoms: C_3  and  C_4
REMARK    5  A    between atoms: N_15  and  C_16
REMARK    6  A    between atoms: C_16  and  C_17
REMARK    7  A    between atoms: C_17  and  C_18
REMARK    8  A    between atoms: C_18  and  N_19
REMARK                            x       y       z     vdW  Elec       q    Type
REMARK                         _______ _______ _______ _____ _____    ______ ____
ROOT
ATOM      1  C   UNL     1       1.101   8.822  19.866  0.00  0.00    +0.000 A 
ATOM      2  N   UNL     1       1.714   8.261  20.974  0.00  0.00    +0.000 NA
ATOM      3  C   UNL     1       1.470   8.708  22.229  0.00  0.00    +0.000 A 
ATOM      4  C   UNL     1       0.586   9.718  22.543  0.00  0.00    +0.000 A 
ATOM      5  C   UNL     1      -0.106  10.301  21.474  0.00  0.00    +0.000 A 
ATOM      6  C   UNL     1      -1.121  11.325  21.409  0.00  0.00    +0.000 A 
ATOM      7  C   UNL     1      -1.792  12.115  22.368  0.00  0.00    +0.000 A 
ATOM      8  C   UNL     1      -2.770  13.036  21.946  0.00  0.00    +0.000 A 
ATOM      9  C   UNL     1      -3.097  13.165  20.601  0.00  0.00    +0.000 A 
ATOM     10  C   UNL     1      -2.451  12.382  19.634  0.00  0.00    +0.000 A 
ATOM     11  C   UNL     1      -1.468  11.490  20.064  0.00  0.00    +0.000 A 
ATOM     12  N   UNL     1      -0.656  10.627  19.377  0.00  0.00    +0.000 N 
ATOM     13  C   UNL     1       0.167   9.860  20.170  0.00  0.00    +0.000 A 
ENDROOT
BRANCH   1  14
ATOM     14  C   UNL     1       1.490   8.165  18.496  0.00  0.00    +0.000 C 
BRANCH  14  16
ATOM     15  C   UNL     1       3.671   7.904  17.615  0.00  0.00    +0.000 C 
ATOM     16  N   UNL     1       2.624   7.216  18.394  0.00  0.00    +0.000 NA
BRANCH  16  17
ATOM     17  C   UNL     1       2.508   5.716  18.138  0.00  0.00    +0.000 C 
ATOM     18  C   UNL     1       3.782   5.404  17.297  0.00  0.00    +0.000 C 
ATOM     19  C   UNL     1       4.482   4.066  17.375  0.00  0.00    +0.000 C 
ATOM     20  C   UNL     1       4.554   3.437  18.742  0.00  0.00    +0.000 C 
ATOM     21  C   UNL     1       3.386   3.735  19.619  0.00  0.00    +0.000 A 
ATOM     22  C   UNL     1       3.245   2.896  20.754  0.00  0.00    +0.000 A 
ATOM     23  C   UNL     1       2.045   2.841  21.427  0.00  0.00    +0.000 A 
ATOM     24  C   UNL     1       1.020   3.569  20.882  0.00  0.00    +0.000 A 
ATOM     25  N   UNL     1       1.175   4.439  19.840  0.00  0.00    +0.000 NA
ATOM     26  C   UNL     1       2.390   4.654  19.283  0.00  0.00    +0.000 A 
ENDBRANCH  16  17
ENDBRANCH  14  16
ENDBRANCH   1  14
BRANCH  12  27
ATOM     27  C   UNL     1      -0.638  10.541  17.929  0.00  0.00    +0.000 C 
BRANCH  27  28
ATOM     28  C   UNL     1      -1.823   9.718  17.452  0.00  0.00    +0.000 C 
BRANCH  28  29
ATOM     29  C   UNL     1      -2.478  10.174  16.179  0.00  0.00    +0.000 C 
BRANCH  29  30
ATOM     30  N   UNL     1      -2.339  11.632  16.170  0.00  0.00    +0.000 NA
ATOM     31  H   UNL     1      -3.195  12.055  15.832  0.00  0.00    +0.000 HD
ATOM     32  H   UNL     1      -1.607  11.901  15.504  0.00  0.00    +0.000 HD
ENDBRANCH  29  30
ENDBRANCH  28  29
ENDBRANCH  27  28
ENDBRANCH  12  27
TORSDOF 7
ENDMDL
MODEL 6
REMARK VINA RESULT:      -7.3      3.229      6.345
REMARK  Name = 
REMARK  8 active torsions:
REMARK  status: ('A' for Active; 'I' for Inactive)
REMARK    1  A    between atoms: C_1  and  N_2
REMARK    2  A    between atoms: N_2  and  C_3
REMARK    3  A    between atoms: N_2  and  C_21
REMARK    4  A    between atoms: C_3  and  C_4
REMARK    5  A    between atoms: N_15  and  C_16
REMARK    6  A    between atoms: C_16  and  C_17
REMARK    7  A    between atoms: C_17  and  C_18
REMARK    8  A    between atoms: C_18  and  N_19
REMARK                            x       y       z     vdW  Elec       q    Type
REMARK                         _______ _______ _______ _____ _____    ______ ____
ROOT
ATOM      1  C   UNL     1      -0.919  11.183  21.693  0.00  0.00    +0.000 A 
ATOM      2  N   UNL     1      -0.855  10.849  23.035  0.00  0.00    +0.000 NA
ATOM      3  C   UNL     1      -0.153   9.777  23.473  0.00  0.00    +0.000 A 
ATOM      4  C   UNL     1       0.584   8.939  22.663  0.00  0.00    +0.000 A 
ATOM      5  C   UNL     1       0.602   9.245  21.296  0.00  0.00    +0.000 A 
ATOM      6  C   UNL     1       1.279   8.648  20.170  0.00  0.00    +0.000 A 
ATOM      7  C   UNL     1       2.160   7.554  20.012  0.00  0.00    +0.000 A 
ATOM      8  C   UNL     1       2.662   7.249  18.732  0.00  0.00    +0.000 A 
ATOM      9  C   UNL     1       2.316   8.018  17.626  0.00  0.00    +0.000 A 
ATOM     10  C   UNL     1       1.453   9.114  17.764  0.00  0.00    +0.000 A 
ATOM     11  C   UNL     1       0.945   9.391  19.034  0.00  0.00    +0.000 A 
ATOM     12  N   UNL     1       0.077  10.353  19.479  0.00  0.00    +0.000 N 
ATOM     13  C   UNL     1      -0.148  10.338  20.837  0.00  0.00    +0.000 A 
ENDROOT
BRANCH   1  14
ATOM     14  C   UNL     1      -1.762  12.467  21.374  0.00  0.00    +0.000 C 
BRANCH  14  16
ATOM     15  C   UNL     1      -3.896  13.185  20.645  0.00  0.00    +0.000 C 
ATOM     16  N   UNL     1      -3.183  12.573  21.783  0.00  0.00    +0.000 NA
BRANCH  16  17
ATOM     17  C   UNL     1      -3.682  12.995  23.161  0.00  0.00    +0.000 C 
ATOM     18  C   UNL     1      -2.781  14.219  23.502  0.00  0.00    +0.000 C 
ATOM     19  C   UNL     1      -3.279  15.365  24.353  0.00  0.00    +0.000 C 
ATOM     20  C   UNL     1      -4.712  15.778  24.132  0.00  0.00    +0.000 C 
ATOM     21  C   UNL     1      -5.622  14.661  23.755  0.00  0.00    +0.000 A 
ATOM     22  C   UNL     1      -7.009  14.933  23.883  0.00  0.00    +0.000 A 
ATOM     23  C   UNL     1      -7.917  13.899  23.906  0.00  0.00    +0.000 A 
ATOM     24  C   UNL     1      -7.385  12.635  23.881  0.00  0.00    +0.000 A 
ATOM     25  N   UNL     1      -6.060  12.373  23.676  0.00  0.00    +0.000 NA
ATOM     26  C   UNL     1      -5.174  13.372  23.459  0.00  0.00    +0.000 A 
ENDBRANCH  16  17
ENDBRANCH  14  16
ENDBRANCH   1  14
BRANCH  12  27
ATOM     27  C   UNL     1      -0.578  11.297  18.595  0.00  0.00    +0.000 C 
BRANCH  27  28
ATOM     28  C   UNL     1      -1.783  10.636  17.945  0.00  0.00    +0.000 C 
BRANCH  28  29
ATOM     29  C   UNL     1      -2.848  11.561  17.425  0.00  0.00    +0.000 C 
BRANCH  29  30
ATOM     30  N   UNL     1      -4.120  10.925  17.772  0.00  0.00    +0.000 NA
ATOM     31  H   UNL     1      -4.714  10.879  16.952  0.00  0.00    +0.000 HD
ATOM     32  H   UNL     1      -4.619  11.509  18.452  0.00  0.00    +0.000 HD
ENDBRANCH  29  30
ENDBRANCH  28  29
ENDBRANCH  27  28
ENDBRANCH  12  27
TORSDOF 7
ENDMDL
MODEL 7
REMARK VINA RESULT:      -7.2      2.236      4.730
REMARK  Name = 
REMARK  8 active torsions:
REMARK  status: ('A' for Active; 'I' for Inactive)
REMARK    1  A    between atoms: C_1  and  N_2
REMARK    2  A    between atoms: N_2  and  C_3
REMARK    3  A    between atoms: N_2  and  C_21
REMARK    4  A    between atoms: C_3  and  C_4
REMARK    5  A    between atoms: N_15  and  C_16
REMARK    6  A    between atoms: C_16  and  C_17
REMARK    7  A    between atoms: C_17  and  C_18
REMARK    8  A    between atoms: C_18  and  N_19
REMARK                            x       y       z     vdW  Elec       q    Type
REMARK                         _______ _______ _______ _____ _____    ______ ____
ROOT
ATOM      1  C   UNL     1       4.984   4.922  19.089  0.00  0.00    +0.000 A 
ATOM      2  N   UNL     1       5.999   5.503  19.830  0.00  0.00    +0.000 NA
ATOM      3  C   UNL     1       7.209   5.783  19.292  0.00  0.00    +0.000 A 
ATOM      4  C   UNL     1       7.551   5.560  17.975  0.00  0.00    +0.000 A 
ATOM      5  C   UNL     1       6.556   5.017  17.152  0.00  0.00    +0.000 A 
ATOM      6  C   UNL     1       6.519   4.695  15.746  0.00  0.00    +0.000 A 
ATOM      7  C   UNL     1       7.444   4.798  14.683  0.00  0.00    +0.000 A 
ATOM      8  C   UNL     1       7.060   4.395  13.390  0.00  0.00    +0.000 A 
ATOM      9  C   UNL     1       5.780   3.912  13.141  0.00  0.00    +0.000 A 
ATOM     10  C   UNL     1       4.844   3.813  14.180  0.00  0.00    +0.000 A 
ATOM     11  C   UNL     1       5.244   4.195  15.461  0.00  0.00    +0.000 A 
ATOM     12  N   UNL     1       4.587   4.188  16.662  0.00  0.00    +0.000 N 
ATOM     13  C   UNL     1       5.310   4.699  17.715  0.00  0.00    +0.000 A 
ENDROOT
BRANCH   1  14
ATOM     14  C   UNL     1       3.646   4.689  19.873  0.00  0.00    +0.000 C 
BRANCH  14  16
ATOM     15  C   UNL     1       1.550   5.117  18.861  0.00  0.00    +0.000 C 
ATOM     16  N   UNL     1       2.537   5.670  19.808  0.00  0.00    +0.000 NA
BRANCH  16  17
ATOM     17  C   UNL     1       2.694   7.187  19.764  0.00  0.00    +0.000 C 
ATOM     18  C   UNL     1       2.829   7.483  18.241  0.00  0.00    +0.000 C 
ATOM     19  C   UNL     1       2.330   8.773  17.631  0.00  0.00    +0.000 C 
ATOM     20  C   UNL     1       1.035   9.309  18.186  0.00  0.00    +0.000 C 
ATOM     21  C   UNL     1       0.819   9.019  19.631  0.00  0.00    +0.000 A 
ATOM     22  C   UNL     1      -0.189   9.789  20.265  0.00  0.00    +0.000 A 
ATOM     23  C   UNL     1      -0.240   9.866  21.638  0.00  0.00    +0.000 A 
ATOM     24  C   UNL     1       0.772   9.231  22.310  0.00  0.00    +0.000 A 
ATOM     25  N   UNL     1       1.694   8.423  21.708  0.00  0.00    +0.000 NA
ATOM     26  C   UNL     1       1.648   8.179  20.378  0.00  0.00    +0.000 A 
ENDBRANCH  16  17
ENDBRANCH  14  16
ENDBRANCH   1  14
BRANCH  12  27
ATOM     27  C   UNL     1       3.245   3.662  16.826  0.00  0.00    +0.000 C 
BRANCH  27  28
ATOM     28  C   UNL     1       3.311   2.164  17.075  0.00  0.00    +0.000 C 
BRANCH  28  29
ATOM     29  C   UNL     1       3.083   1.715  18.490  0.00  0.00    +0.000 C 
BRANCH  29  30
ATOM     30  N   UNL     1       4.382   1.227  18.959  0.00  0.00    +0.000 NA
ATOM     31  H   UNL     1       4.475   1.403  19.952  0.00  0.00    +0.000 HD
ATOM     32  H   UNL     1       5.131   1.760  18.504  0.00  0.00    +0.000 HD
ENDBRANCH  29  30
ENDBRANCH  28  29
ENDBRANCH  27  28
ENDBRANCH  12  27
TORSDOF 7
ENDMDL
MODEL 8
REMARK VINA RESULT:      -7.2      1.758      8.618
REMARK  Name = 
REMARK  8 active torsions:
REMARK  status: ('A' for Active; 'I' for Inactive)
REMARK    1  A    between atoms: C_1  and  N_2
REMARK    2  A    between atoms: N_2  and  C_3
REMARK    3  A    between atoms: N_2  and  C_21
REMARK    4  A    between atoms: C_3  and  C_4
REMARK    5  A    between atoms: N_15  and  C_16
REMARK    6  A    between atoms: C_16  and  C_17
REMARK    7  A    between atoms: C_17  and  C_18
REMARK    8  A    between atoms: C_18  and  N_19
REMARK                            x       y       z     vdW  Elec       q    Type
REMARK                         _______ _______ _______ _____ _____    ______ ____
ROOT
ATOM      1  C   UNL     1       0.896   8.923  20.253  0.00  0.00    +0.000 A 
ATOM      2  N   UNL     1       1.445   8.381  21.403  0.00  0.00    +0.000 NA
ATOM      3  C   UNL     1       1.160   8.873  22.632  0.00  0.00    +0.000 A 
ATOM      4  C   UNL     1       0.292   9.915  22.877  0.00  0.00    +0.000 A 
ATOM      5  C   UNL     1      -0.337  10.482  21.762  0.00  0.00    +0.000 A 
ATOM      6  C   UNL     1      -1.320  11.530  21.621  0.00  0.00    +0.000 A 
ATOM      7  C   UNL     1      -2.009  12.368  22.527  0.00  0.00    +0.000 A 
ATOM      8  C   UNL     1      -2.942  13.300  22.035  0.00  0.00    +0.000 A 
ATOM      9  C   UNL     1      -3.208  13.396  20.673  0.00  0.00    +0.000 A 
ATOM     10  C   UNL     1      -2.544  12.566  19.760  0.00  0.00    +0.000 A 
ATOM     11  C   UNL     1      -1.604  11.663  20.258  0.00  0.00    +0.000 A 
ATOM     12  N   UNL     1      -0.788  10.757  19.634  0.00  0.00    +0.000 N 
ATOM     13  C   UNL     1      -0.021   9.994  20.484  0.00  0.00    +0.000 A 
ENDROOT
BRANCH   1  14
ATOM     14  C   UNL     1       1.324   8.213  18.921  0.00  0.00    +0.000 C 
BRANCH  14  16
ATOM     15  C   UNL     1       3.211   8.292  17.495  0.00  0.00    +0.000 C 
ATOM     16  N   UNL     1       2.698   7.687  18.739  0.00  0.00    +0.000 NA
BRANCH  16  17
ATOM     17  C   UNL     1       3.140   6.249  18.989  0.00  0.00    +0.000 C 
ATOM     18  C   UNL     1       1.806   5.450  18.895  0.00  0.00    +0.000 C 
ATOM     19  C   UNL     1       1.762   4.025  18.392  0.00  0.00    +0.000 C 
ATOM     20  C   UNL     1       2.682   3.702  17.243  0.00  0.00    +0.000 C 
ATOM     21  C   UNL     1       3.960   4.467  17.244  0.00  0.00    +0.000 A 
ATOM     22  C   UNL     1       4.982   3.952  16.406  0.00  0.00    +0.000 A 
ATOM     23  C   UNL     1       6.288   4.350  16.583  0.00  0.00    +0.000 A 
ATOM     24  C   UNL     1       6.519   5.185  17.646  0.00  0.00    +0.000 A 
ATOM     25  N   UNL     1       5.529   5.745  18.402  0.00  0.00    +0.000 NA
ATOM     26  C   UNL     1       4.224   5.519  18.125  0.00  0.00    +0.000 A 
ENDBRANCH  16  17
ENDBRANCH  14  16
ENDBRANCH   1  14
BRANCH  12  27
ATOM     27  C   UNL     1      -0.710  10.626  18.192  0.00  0.00    +0.000 C 
BRANCH  27  28
ATOM     28  C   UNL     1      -1.868   9.776  17.693  0.00  0.00    +0.000 C 
BRANCH  28  29
ATOM     29  C   UNL     1      -2.487  10.196  16.390  0.00  0.00    +0.000 C 
BRANCH  29  30
ATOM     30  N   UNL     1      -2.217  11.631  16.275  0.00  0.00    +0.000 NA
ATOM     31  H   UNL     1      -1.450  11.783  15.630  0.00  0.00    +0.000 HD
ATOM     32  H   UNL     1      -1.903  11.992  17.181  0.00  0.00    +0.000 HD
ENDBRANCH  29  30
ENDBRANCH  28  29
ENDBRANCH  27  28
ENDBRANCH  12  27
TORSDOF 7
ENDMDL
MODEL 9
REMARK VINA RESULT:      -7.2      3.247      6.602
REMARK  Name = 
REMARK  8 active torsions:
REMARK  status: ('A' for Active; 'I' for Inactive)
REMARK    1  A    between atoms: C_1  and  N_2
REMARK    2  A    between atoms: N_2  and  C_3
REMARK    3  A    between atoms: N_2  and  C_21
REMARK    4  A    between atoms: C_3  and  C_4
REMARK    5  A    between atoms: N_15  and  C_16
REMARK    6  A    between atoms: C_16  and  C_17
REMARK    7  A    between atoms: C_17  and  C_18
REMARK    8  A    between atoms: C_18  and  N_19
REMARK                            x       y       z     vdW  Elec       q    Type
REMARK                         _______ _______ _______ _____ _____    ______ ____
ROOT
ATOM      1  C   UNL     1      -0.678  11.346  21.939  0.00  0.00    +0.000 A 
ATOM      2  N   UNL     1      -0.800  10.796  23.204  0.00  0.00    +0.000 NA
ATOM      3  C   UNL     1      -0.311   9.569  23.501  0.00  0.00    +0.000 A 
ATOM      4  C   UNL     1       0.374   8.763  22.615  0.00  0.00    +0.000 A 
ATOM      5  C   UNL     1       0.576   9.276  21.328  0.00  0.00    +0.000 A 
ATOM      6  C   UNL     1       1.270   8.766  20.171  0.00  0.00    +0.000 A 
ATOM      7  C   UNL     1       1.993   7.584  19.892  0.00  0.00    +0.000 A 
ATOM      8  C   UNL     1       2.572   7.410  18.621  0.00  0.00    +0.000 A 
ATOM      9  C   UNL     1       2.457   8.391  17.642  0.00  0.00    +0.000 A 
ATOM     10  C   UNL     1       1.755   9.576  17.902  0.00  0.00    +0.000 A 
ATOM     11  C   UNL     1       1.166   9.725  19.158  0.00  0.00    +0.000 A 
ATOM     12  N   UNL     1       0.407  10.730  19.697  0.00  0.00    +0.000 N 
ATOM     13  C   UNL     1       0.045  10.536  21.010  0.00  0.00    +0.000 A 
ENDROOT
BRANCH   1  14
ATOM     14  C   UNL     1      -1.287  12.783  21.785  0.00  0.00    +0.000 C 
BRANCH  14  16
ATOM     15  C   UNL     1      -3.201  13.857  20.899  0.00  0.00    +0.000 C 
ATOM     16  N   UNL     1      -2.726  13.037  22.031  0.00  0.00    +0.000 NA
BRANCH  16  17
ATOM     17  C   UNL     1      -3.351  13.375  23.381  0.00  0.00    +0.000 C 
ATOM     18  C   UNL     1      -2.601  14.675  23.800  0.00  0.00    +0.000 C 
ATOM     19  C   UNL     1      -3.265  15.745  24.636  0.00  0.00    +0.000 C 
ATOM     20  C   UNL     1      -4.715  16.018  24.329  0.00  0.00    +0.000 C 
ATOM     21  C   UNL     1      -5.483  14.825  23.875  0.00  0.00    +0.000 A 
ATOM     22  C   UNL     1      -6.895  14.955  23.917  0.00  0.00    +0.000 A 
ATOM     23  C   UNL     1      -7.694  13.835  23.863  0.00  0.00    +0.000 A 
ATOM     24  C   UNL     1      -7.037  12.632  23.851  0.00  0.00    +0.000 A 
ATOM     25  N   UNL     1      -5.682  12.507  23.729  0.00  0.00    +0.000 NA
ATOM     26  C   UNL     1      -4.889  13.594  23.587  0.00  0.00    +0.000 A 
ENDBRANCH  16  17
ENDBRANCH  14  16
ENDBRANCH   1  14
BRANCH  12  27
ATOM     27  C   UNL     1      -0.010  11.897  18.943  0.00  0.00    +0.000 C 
BRANCH  27  28
ATOM     28  C   UNL     1       1.137  12.893  18.868  0.00  0.00    +0.000 C 
BRANCH  28  29
ATOM     29  C   UNL     1       0.758  14.346  18.911  0.00  0.00    +0.000 C 
BRANCH  29  30
ATOM     30  N   UNL     1      -0.660  14.390  18.546  0.00  0.00    +0.000 NA
ATOM     31  H   UNL     1      -1.168  13.682  19.063  0.00  0.00    +0.000 HD
ATOM     32  H   UNL     1      -0.764  14.149  17.555  0.00  0.00    +0.000 HD
ENDBRANCH  29  30
ENDBRANCH  28  29
ENDBRANCH  27  28
ENDBRANCH  12  27
TORSDOF 7
ENDMDL
