MODEL 1
REMARK VINA RESULT:      -7.4      0.000      0.000
REMARK  Name = 
REMARK  5 active torsions:
REMARK  status: ('A' for Active; 'I' for Inactive)
REMARK    1  A    between atoms: C_6  and  C_7
REMARK    2  A    between atoms: C_16  and  C_17
REMARK    3  A    between atoms: N_20  and  C_21
REMARK    4  A    between atoms: C_21  and  C_22
REMARK    5  A    between atoms: C_26  and  C_27
REMARK                            x       y       z     vdW  Elec       q    Type
REMARK                         _______ _______ _______ _____ _____    ______ ____
ROOT
ATOM      1  O   UNL     1      -1.496  10.223  17.134  0.00  0.00    +0.000 OA
ATOM      2  C   UNL     1      -1.172  10.963  18.057  0.00  0.00    +0.000 C 
ATOM      3  C   UNL     1      -2.108  11.691  18.884  0.00  0.00    +0.000 A 
ATOM      4  N   UNL     1      -3.412  11.728  18.732  0.00  0.00    +0.000 NA
ATOM      5  N   UNL     1      -3.937  12.332  19.849  0.00  0.00    +0.000 NA
ATOM      6  C   UNL     1      -2.950  12.650  20.678  0.00  0.00    +0.000 A 
ATOM      7  N   UNL     1      -1.775  12.339  20.044  0.00  0.00    +0.000 N 
ATOM      8  C   UNL     1      -0.403  12.444  20.489  0.00  0.00    +0.000 C 
ATOM      9  C   UNL     1       0.581  12.215  19.317  0.00  0.00    +0.000 C 
ATOM     10  N   UNL     1       0.158  11.080  18.484  0.00  0.00    +0.000 N 
ENDROOT
BRANCH   6  11
ATOM     11  C   UNL     1      -3.105  13.193  22.026  0.00  0.00    +0.000 A 
ATOM     12  N   UNL     1      -2.714  14.470  22.210  0.00  0.00    +0.000 NA
ATOM     13  C   UNL     1      -2.845  14.967  23.457  0.00  0.00    +0.000 A 
ATOM     14  C   UNL     1      -3.345  14.236  24.503  0.00  0.00    +0.000 A 
ATOM     15  F   UNL     1      -3.448  14.743  25.736  0.00  0.00    +0.000 F 
ATOM     16  C   UNL     1      -3.730  12.949  24.212  0.00  0.00    +0.000 A 
ATOM     17  N   UNL     1      -3.632  12.396  22.981  0.00  0.00    +0.000 NA
ENDBRANCH   6  11
BRANCH   9  18
ATOM     18  C   UNL     1       0.762  13.503  18.512  0.00  0.00    +0.000 C 
ATOM     19  C   UNL     1       0.767  14.867  19.165  0.00  0.00    +0.000 C 
ATOM     20  C   UNL     1       2.015  14.354  18.506  0.00  0.00    +0.000 C 
ENDBRANCH   9  18
BRANCH  10  21
ATOM     21  C   UNL     1       1.118  10.054  18.097  0.00  0.00    +0.000 C 
BRANCH  21  22
ATOM     22  C   UNL     1       1.385   9.023  19.190  0.00  0.00    +0.000 A 
ATOM     23  C   UNL     1       0.673   9.114  20.405  0.00  0.00    +0.000 A 
ATOM     24  C   UNL     1       0.761   8.122  21.380  0.00  0.00    +0.000 A 
ATOM     25  C   UNL     1       1.523   6.986  21.142  0.00  0.00    +0.000 A 
ATOM     26  C   UNL     1       2.236   6.845  19.940  0.00  0.00    +0.000 A 
ATOM     27  C   UNL     1       2.201   7.889  18.990  0.00  0.00    +0.000 A 
ATOM     28 CL   UNL     1       3.187   7.774  17.568  0.00  0.00    +0.000 Cl
BRANCH  26  29
ATOM     29  C   UNL     1       2.958   5.549  19.665  0.00  0.00    +0.000 C 
ATOM     30  F   UNL     1       2.759   4.609  20.635  0.00  0.00    +0.000 F 
ATOM     31  F   UNL     1       2.550   4.956  18.509  0.00  0.00    +0.000 F 
ATOM     32  F   UNL     1       4.308   5.690  19.572  0.00  0.00    +0.000 F 
ENDBRANCH  26  29
ENDBRANCH  21  22
ENDBRANCH  10  21
TORSDOF 5
ENDMDL
MODEL 2
REMARK VINA RESULT:      -7.4      0.136      1.074
REMARK  Name = 
REMARK  5 active torsions:
REMARK  status: ('A' for Active; 'I' for Inactive)
REMARK    1  A    between atoms: C_6  and  C_7
REMARK    2  A    between atoms: C_16  and  C_17
REMARK    3  A    between atoms: N_20  and  C_21
REMARK    4  A    between atoms: C_21  and  C_22
REMARK    5  A    between atoms: C_26  and  C_27
REMARK                            x       y       z     vdW  Elec       q    Type
REMARK                         _______ _______ _______ _____ _____    ______ ____
ROOT
ATOM      1  O   UNL     1      -1.365  10.164  17.148  0.00  0.00    +0.000 OA
ATOM      2  C   UNL     1      -1.045  10.913  18.064  0.00  0.00    +0.000 C 
ATOM      3  C   UNL     1      -1.983  11.650  18.879  0.00  0.00    +0.000 A 
ATOM      4  N   UNL     1      -3.287  11.685  18.722  0.00  0.00    +0.000 NA
ATOM      5  N   UNL     1      -3.816  12.302  19.831  0.00  0.00    +0.000 NA
ATOM      6  C   UNL     1      -2.833  12.628  20.659  0.00  0.00    +0.000 A 
ATOM      7  N   UNL     1      -1.655  12.311  20.033  0.00  0.00    +0.000 N 
ATOM      8  C   UNL     1      -0.284  12.420  20.483  0.00  0.00    +0.000 C 
ATOM      9  C   UNL     1       0.704  12.179  19.316  0.00  0.00    +0.000 C 
ATOM     10  N   UNL     1       0.284  11.035  18.494  0.00  0.00    +0.000 N 
ENDROOT
BRANCH   6  11
ATOM     11  C   UNL     1      -2.992  13.186  22.001  0.00  0.00    +0.000 A 
ATOM     12  N   UNL     1      -3.517  12.369  22.935  0.00  0.00    +0.000 NA
ATOM     13  C   UNL     1      -3.677  12.888  24.171  0.00  0.00    +0.000 A 
ATOM     14  C   UNL     1      -3.335  14.177  24.488  0.00  0.00    +0.000 A 
ATOM     15  F   UNL     1      -3.519  14.676  25.714  0.00  0.00    +0.000 F 
ATOM     16  C   UNL     1      -2.794  14.927  23.471  0.00  0.00    +0.000 A 
ATOM     17  N   UNL     1      -2.601  14.461  22.216  0.00  0.00    +0.000 NA
ENDBRANCH   6  11
BRANCH   9  18
ATOM     18  C   UNL     1       0.888  13.457  18.498  0.00  0.00    +0.000 C 
ATOM     19  C   UNL     1       1.070  14.811  19.149  0.00  0.00    +0.000 C 
ATOM     20  C   UNL     1       2.193  14.213  18.350  0.00  0.00    +0.000 C 
ENDBRANCH   9  18
BRANCH  10  21
ATOM     21  C   UNL     1       1.245  10.005  18.122  0.00  0.00    +0.000 C 
BRANCH  21  22
ATOM     22  C   UNL     1       1.467   8.955  19.208  0.00  0.00    +0.000 A 
ATOM     23  C   UNL     1       0.749   9.058  20.417  0.00  0.00    +0.000 A 
ATOM     24  C   UNL     1       0.794   8.055  21.384  0.00  0.00    +0.000 A 
ATOM     25  C   UNL     1       1.519   6.897  21.141  0.00  0.00    +0.000 A 
ATOM     26  C   UNL     1       2.237   6.742  19.943  0.00  0.00    +0.000 A 
ATOM     27  C   UNL     1       2.247   7.796  19.004  0.00  0.00    +0.000 A 
ATOM     28 CL   UNL     1       3.240   7.660  17.588  0.00  0.00    +0.000 Cl
BRANCH  26  29
ATOM     29  C   UNL     1       2.917   5.425  19.662  0.00  0.00    +0.000 C 
ATOM     30  F   UNL     1       4.276   5.531  19.575  0.00  0.00    +0.000 F 
ATOM     31  F   UNL     1       2.696   4.501  20.638  0.00  0.00    +0.000 F 
ATOM     32  F   UNL     1       2.525   4.852  18.491  0.00  0.00    +0.000 F 
ENDBRANCH  26  29
ENDBRANCH  21  22
ENDBRANCH  10  21
TORSDOF 5
ENDMDL
MODEL 3
REMARK VINA RESULT:      -7.3      3.967      7.993
REMARK  Name = 
REMARK  5 active torsions:
REMARK  status: ('A' for Active; 'I' for Inactive)
REMARK    1  A    between atoms: C_6  and  C_7
REMARK    2  A    between atoms: C_16  and  C_17
REMARK    3  A    between atoms: N_20  and  C_21
REMARK    4  A    between atoms: C_21  and  C_22
REMARK    5  A    between atoms: C_26  and  C_27
REMARK                            x       y       z     vdW  Elec       q    Type
REMARK                         _______ _______ _______ _____ _____    ______ ____
ROOT
ATOM      1  O   UNL     1      -1.284  11.466  21.819  0.00  0.00    +0.000 OA
ATOM      2  C   UNL     1      -0.509  11.138  20.927  0.00  0.00    +0.000 C 
ATOM      3  C   UNL     1       0.372   9.994  20.992  0.00  0.00    +0.000 A 
ATOM      4  N   UNL     1       0.525   9.191  22.020  0.00  0.00    +0.000 NA
ATOM      5  N   UNL     1       1.265   8.114  21.591  0.00  0.00    +0.000 NA
ATOM      6  C   UNL     1       1.548   8.265  20.303  0.00  0.00    +0.000 A 
ATOM      7  N   UNL     1       1.073   9.495  19.927  0.00  0.00    +0.000 N 
ATOM      8  C   UNL     1       1.077  10.158  18.641  0.00  0.00    +0.000 C 
ATOM      9  C   UNL     1       0.660  11.642  18.780  0.00  0.00    +0.000 C 
ATOM     10  N   UNL     1      -0.491  11.786  19.684  0.00  0.00    +0.000 N 
ENDROOT
BRANCH   6  11
ATOM     11  C   UNL     1       2.209   7.279  19.451  0.00  0.00    +0.000 A 
ATOM     12  N   UNL     1       2.903   7.759  18.399  0.00  0.00    +0.000 NA
ATOM     13  C   UNL     1       3.502   6.849  17.604  0.00  0.00    +0.000 A 
ATOM     14  C   UNL     1       3.427   5.499  17.828  0.00  0.00    +0.000 A 
ATOM     15  F   UNL     1       4.013   4.612  17.017  0.00  0.00    +0.000 F 
ATOM     16  C   UNL     1       2.709   5.108  18.934  0.00  0.00    +0.000 A 
ATOM     17  N   UNL     1       2.093   5.972  19.773  0.00  0.00    +0.000 NA
ENDBRANCH   6  11
BRANCH   9  18
ATOM     18  C   UNL     1       1.855  12.496  19.204  0.00  0.00    +0.000 C 
ATOM     19  C   UNL     1       2.729  13.213  18.200  0.00  0.00    +0.000 C 
ATOM     20  C   UNL     1       1.898  14.010  19.165  0.00  0.00    +0.000 C 
ENDBRANCH   9  18
BRANCH  10  21
ATOM     21  C   UNL     1      -1.634  12.602  19.294  0.00  0.00    +0.000 C 
BRANCH  21  22
ATOM     22  C   UNL     1      -2.734  11.814  18.588  0.00  0.00    +0.000 A 
ATOM     23  C   UNL     1      -2.375  10.864  17.609  0.00  0.00    +0.000 A 
ATOM     24  C   UNL     1      -3.317  10.011  17.037  0.00  0.00    +0.000 A 
ATOM     25  C   UNL     1      -4.635  10.050  17.469  0.00  0.00    +0.000 A 
ATOM     26  C   UNL     1      -5.036  10.969  18.454  0.00  0.00    +0.000 A 
ATOM     27  C   UNL     1      -4.090  11.881  18.972  0.00  0.00    +0.000 A 
ATOM     28 CL   UNL     1      -4.614  13.102  20.087  0.00  0.00    +0.000 Cl
BRANCH  26  29
ATOM     29  C   UNL     1      -6.447  10.906  18.983  0.00  0.00    +0.000 C 
ATOM     30  F   UNL     1      -6.507  10.883  20.347  0.00  0.00    +0.000 F 
ATOM     31  F   UNL     1      -7.195  11.982  18.614  0.00  0.00    +0.000 F 
ATOM     32  F   UNL     1      -7.130   9.802  18.575  0.00  0.00    +0.000 F 
ENDBRANCH  26  29
ENDBRANCH  21  22
ENDBRANCH  10  21
TORSDOF 5
ENDMDL
MODEL 4
REMARK VINA RESULT:      -7.2      1.314      1.342
REMARK  Name = 
REMARK  5 active torsions:
REMARK  status: ('A' for Active; 'I' for Inactive)
REMARK    1  A    between atoms: C_6  and  C_7
REMARK    2  A    between atoms: C_16  and  C_17
REMARK    3  A    between atoms: N_20  and  C_21
REMARK    4  A    between atoms: C_21  and  C_22
REMARK    5  A    between atoms: C_26  and  C_27
REMARK                            x       y       z     vdW  Elec       q    Type
REMARK                         _______ _______ _______ _____ _____    ______ ____
ROOT
ATOM      1  O   UNL     1      -1.284  10.183  17.141  0.00  0.00    +0.000 OA
ATOM      2  C   UNL     1      -1.331  11.054  18.002  0.00  0.00    +0.000 C 
ATOM      3  C   UNL     1      -2.554  11.616  18.527  0.00  0.00    +0.000 A 
ATOM      4  N   UNL     1      -3.772  11.337  18.122  0.00  0.00    +0.000 NA
ATOM      5  N   UNL     1      -4.643  11.898  19.025  0.00  0.00    +0.000 NA
ATOM      6  C   UNL     1      -3.949  12.506  19.979  0.00  0.00    +0.000 A 
ATOM      7  N   UNL     1      -2.625  12.421  19.632  0.00  0.00    +0.000 N 
ATOM      8  C   UNL     1      -1.436  12.879  20.317  0.00  0.00    +0.000 C 
ATOM      9  C   UNL     1      -0.194  12.782  19.398  0.00  0.00    +0.000 C 
ATOM     10  N   UNL     1      -0.180  11.512  18.658  0.00  0.00    +0.000 N 
ENDROOT
BRANCH   6  11
ATOM     11  C   UNL     1      -4.504  13.114  21.187  0.00  0.00    +0.000 A 
ATOM     12  N   UNL     1      -5.033  14.346  21.053  0.00  0.00    +0.000 NA
ATOM     13  C   UNL     1      -5.534  14.913  22.171  0.00  0.00    +0.000 A 
ATOM     14  C   UNL     1      -5.517  14.293  23.393  0.00  0.00    +0.000 A 
ATOM     15  F   UNL     1      -6.002  14.881  24.492  0.00  0.00    +0.000 F 
ATOM     16  C   UNL     1      -4.969  13.033  23.425  0.00  0.00    +0.000 A 
ATOM     17  N   UNL     1      -4.460  12.408  22.338  0.00  0.00    +0.000 NA
ENDBRANCH   6  11
BRANCH   9  18
ATOM     18  C   UNL     1      -0.113  14.002  18.479  0.00  0.00    +0.000 C 
ATOM     19  C   UNL     1      -0.455  15.395  18.958  0.00  0.00    +0.000 C 
ATOM     20  C   UNL     1       0.955  15.074  18.551  0.00  0.00    +0.000 C 
ENDBRANCH   9  18
BRANCH  10  21
ATOM     21  C   UNL     1       1.034  10.706  18.604  0.00  0.00    +0.000 C 
BRANCH  21  22
ATOM     22  C   UNL     1       1.086   9.611  19.666  0.00  0.00    +0.000 A 
ATOM     23  C   UNL     1       0.317   9.756  20.838  0.00  0.00    +0.000 A 
ATOM     24  C   UNL     1       0.206   8.728  21.773  0.00  0.00    +0.000 A 
ATOM     25  C   UNL     1       0.821   7.507  21.532  0.00  0.00    +0.000 A 
ATOM     26  C   UNL     1       1.585   7.311  20.369  0.00  0.00    +0.000 A 
ATOM     27  C   UNL     1       1.754   8.383  19.466  0.00  0.00    +0.000 A 
ATOM     28 CL   UNL     1       2.805   8.183  18.101  0.00  0.00    +0.000 Cl
BRANCH  26  29
ATOM     29  C   UNL     1       2.142   5.939  20.082  0.00  0.00    +0.000 C 
ATOM     30  F   UNL     1       1.792   5.011  21.021  0.00  0.00    +0.000 F 
ATOM     31  F   UNL     1       1.698   5.429  18.899  0.00  0.00    +0.000 F 
ATOM     32  F   UNL     1       3.502   5.905  20.032  0.00  0.00    +0.000 F 
ENDBRANCH  26  29
ENDBRANCH  21  22
ENDBRANCH  10  21
TORSDOF 5
ENDMDL
MODEL 5
REMARK VINA RESULT:      -7.2      3.936      8.071
REMARK  Name = 
REMARK  5 active torsions:
REMARK  status: ('A' for Active; 'I' for Inactive)
REMARK    1  A    between atoms: C_6  and  C_7
REMARK    2  A    between atoms: C_16  and  C_17
REMARK    3  A    between atoms: N_20  and  C_21
REMARK    4  A    between atoms: C_21  and  C_22
REMARK    5  A    between atoms: C_26  and  C_27
REMARK                            x       y       z     vdW  Elec       q    Type
REMARK                         _______ _______ _______ _____ _____    ______ ____
ROOT
ATOM      1  O   UNL     1      -1.156  11.480  21.846  0.00  0.00    +0.000 OA
ATOM      2  C   UNL     1      -0.395  11.173  20.936  0.00  0.00    +0.000 C 
ATOM      3  C   UNL     1       0.478  10.022  20.957  0.00  0.00    +0.000 A 
ATOM      4  N   UNL     1       0.639   9.189  21.959  0.00  0.00    +0.000 NA
ATOM      5  N   UNL     1       1.366   8.120  21.491  0.00  0.00    +0.000 NA
ATOM      6  C   UNL     1       1.634   8.306  20.205  0.00  0.00    +0.000 A 
ATOM      7  N   UNL     1       1.163   9.549  19.869  0.00  0.00    +0.000 N 
ATOM      8  C   UNL     1       1.155  10.249  18.603  0.00  0.00    +0.000 C 
ATOM      9  C   UNL     1       0.750  11.731  18.790  0.00  0.00    +0.000 C 
ATOM     10  N   UNL     1      -0.388  11.856  19.712  0.00  0.00    +0.000 N 
ENDROOT
BRANCH   6  11
ATOM     11  C   UNL     1       2.278   7.340  19.316  0.00  0.00    +0.000 A 
ATOM     12  N   UNL     1       2.096   6.037  19.608  0.00  0.00    +0.000 NA
ATOM     13  C   UNL     1       2.701   5.146  18.796  0.00  0.00    +0.000 A 
ATOM     14  C   UNL     1       3.468   5.516  17.722  0.00  0.00    +0.000 A 
ATOM     15  F   UNL     1       4.075   4.616  16.941  0.00  0.00    +0.000 F 
ATOM     16  C   UNL     1       3.582   6.868  17.498  0.00  0.00    +0.000 A 
ATOM     17  N   UNL     1       2.994   7.809  18.271  0.00  0.00    +0.000 NA
ENDBRANCH   6  11
BRANCH   9  18
ATOM     18  C   UNL     1       1.957  12.564  19.223  0.00  0.00    +0.000 C 
ATOM     19  C   UNL     1       2.597  13.588  18.313  0.00  0.00    +0.000 C 
ATOM     20  C   UNL     1       1.914  14.038  19.572  0.00  0.00    +0.000 C 
ENDBRANCH   9  18
BRANCH  10  21
ATOM     21  C   UNL     1      -1.530  12.691  19.360  0.00  0.00    +0.000 C 
BRANCH  21  22
ATOM     22  C   UNL     1      -2.638  11.934  18.632  0.00  0.00    +0.000 A 
ATOM     23  C   UNL     1      -2.287  10.984  17.651  0.00  0.00    +0.000 A 
ATOM     24  C   UNL     1      -3.240  10.157  17.059  0.00  0.00    +0.000 A 
ATOM     25  C   UNL     1      -4.563  10.223  17.474  0.00  0.00    +0.000 A 
ATOM     26  C   UNL     1      -4.956  11.143  18.461  0.00  0.00    +0.000 A 
ATOM     27  C   UNL     1      -3.997  12.029  18.999  0.00  0.00    +0.000 A 
ATOM     28 CL   UNL     1      -4.508  13.253  20.117  0.00  0.00    +0.000 Cl
BRANCH  26  29
ATOM     29  C   UNL     1      -6.376  11.108  18.970  0.00  0.00    +0.000 C 
ATOM     30  F   UNL     1      -7.106  10.077  18.452  0.00  0.00    +0.000 F 
ATOM     31  F   UNL     1      -6.445  10.947  20.321  0.00  0.00    +0.000 F 
ATOM     32  F   UNL     1      -7.084  12.232  18.678  0.00  0.00    +0.000 F 
ENDBRANCH  26  29
ENDBRANCH  21  22
ENDBRANCH  10  21
TORSDOF 5
ENDMDL
MODEL 6
REMARK VINA RESULT:      -7.1      2.983      8.130
REMARK  Name = 
REMARK  5 active torsions:
REMARK  status: ('A' for Active; 'I' for Inactive)
REMARK    1  A    between atoms: C_6  and  C_7
REMARK    2  A    between atoms: C_16  and  C_17
REMARK    3  A    between atoms: N_20  and  C_21
REMARK    4  A    between atoms: C_21  and  C_22
REMARK    5  A    between atoms: C_26  and  C_27
REMARK                            x       y       z     vdW  Elec       q    Type
REMARK                         _______ _______ _______ _____ _____    ______ ____
ROOT
ATOM      1  O   UNL     1       0.302  14.323  18.713  0.00  0.00    +0.000 OA
ATOM      2  C   UNL     1      -0.056  13.155  18.810  0.00  0.00    +0.000 C 
ATOM      3  C   UNL     1       0.782  12.018  18.504  0.00  0.00    +0.000 A 
ATOM      4  N   UNL     1       2.002  12.062  18.019  0.00  0.00    +0.000 NA
ATOM      5  N   UNL     1       2.519  10.790  18.097  0.00  0.00    +0.000 NA
ATOM      6  C   UNL     1       1.614   9.984  18.638  0.00  0.00    +0.000 A 
ATOM      7  N   UNL     1       0.472  10.721  18.816  0.00  0.00    +0.000 N 
ATOM      8  C   UNL     1      -0.806  10.362  19.392  0.00  0.00    +0.000 C 
ATOM      9  C   UNL     1      -1.862  11.463  19.130  0.00  0.00    +0.000 C 
ATOM     10  N   UNL     1      -1.299  12.802  19.354  0.00  0.00    +0.000 N 
ENDROOT
BRANCH   6  11
ATOM     11  C   UNL     1       1.823   8.584  19.004  0.00  0.00    +0.000 A 
ATOM     12  N   UNL     1       1.578   8.254  20.287  0.00  0.00    +0.000 NA
ATOM     13  C   UNL     1       1.784   6.965  20.629  0.00  0.00    +0.000 A 
ATOM     14  C   UNL     1       2.221   6.018  19.739  0.00  0.00    +0.000 A 
ATOM     15  F   UNL     1       2.437   4.750  20.103  0.00  0.00    +0.000 F 
ATOM     16  C   UNL     1       2.429   6.449  18.450  0.00  0.00    +0.000 A 
ATOM     17  N   UNL     1       2.232   7.725  18.045  0.00  0.00    +0.000 NA
ENDBRANCH   6  11
BRANCH   9  18
ATOM     18  C   UNL     1      -2.466  11.303  17.734  0.00  0.00    +0.000 C 
ATOM     19  C   UNL     1      -2.939   9.965  17.210  0.00  0.00    +0.000 C 
ATOM     20  C   UNL     1      -3.934  11.066  17.445  0.00  0.00    +0.000 C 
ENDBRANCH   9  18
BRANCH  10  21
ATOM     21  C   UNL     1      -2.025  13.780  20.154  0.00  0.00    +0.000 C 
BRANCH  21  22
ATOM     22  C   UNL     1      -2.745  13.173  21.355  0.00  0.00    +0.000 A 
ATOM     23  C   UNL     1      -1.989  12.773  22.476  0.00  0.00    +0.000 A 
ATOM     24  C   UNL     1      -2.597  12.352  23.657  0.00  0.00    +0.000 A 
ATOM     25  C   UNL     1      -3.981  12.370  23.764  0.00  0.00    +0.000 A 
ATOM     26  C   UNL     1      -4.775  12.777  22.679  0.00  0.00    +0.000 A 
ATOM     27  C   UNL     1      -4.152  13.129  21.462  0.00  0.00    +0.000 A 
ATOM     28 CL   UNL     1      -5.135  13.501  20.082  0.00  0.00    +0.000 Cl
BRANCH  26  29
ATOM     29  C   UNL     1      -6.267  12.898  22.867  0.00  0.00    +0.000 C 
ATOM     30  F   UNL     1      -6.980  12.078  22.040  0.00  0.00    +0.000 F 
ATOM     31  F   UNL     1      -6.666  12.563  24.126  0.00  0.00    +0.000 F 
ATOM     32  F   UNL     1      -6.744  14.150  22.631  0.00  0.00    +0.000 F 
ENDBRANCH  26  29
ENDBRANCH  21  22
ENDBRANCH  10  21
TORSDOF 5
ENDMDL
MODEL 7
REMARK VINA RESULT:      -7.1      3.942      7.626
REMARK  Name = 
REMARK  5 active torsions:
REMARK  status: ('A' for Active; 'I' for Inactive)
REMARK    1  A    between atoms: C_6  and  C_7
REMARK    2  A    between atoms: C_16  and  C_17
REMARK    3  A    between atoms: N_20  and  C_21
REMARK    4  A    between atoms: C_21  and  C_22
REMARK    5  A    between atoms: C_26  and  C_27
REMARK                            x       y       z     vdW  Elec       q    Type
REMARK                         _______ _______ _______ _____ _____    ______ ____
ROOT
ATOM      1  O   UNL     1      -1.374  12.398  23.152  0.00  0.00    +0.000 OA
ATOM      2  C   UNL     1      -0.704  12.067  22.180  0.00  0.00    +0.000 C 
ATOM      3  C   UNL     1       0.097  10.866  22.114  0.00  0.00    +0.000 A 
ATOM      4  N   UNL     1       0.281  10.002  23.087  0.00  0.00    +0.000 NA
ATOM      5  N   UNL     1       0.904   8.903  22.545  0.00  0.00    +0.000 NA
ATOM      6  C   UNL     1       1.086   9.101  21.245  0.00  0.00    +0.000 A 
ATOM      7  N   UNL     1       0.668  10.377  20.969  0.00  0.00    +0.000 N 
ATOM      8  C   UNL     1       0.608  11.104  19.720  0.00  0.00    +0.000 C 
ATOM      9  C   UNL     1       0.309  12.603  19.963  0.00  0.00    +0.000 C 
ATOM     10  N   UNL     1      -0.746  12.776  20.972  0.00  0.00    +0.000 N 
ENDROOT
BRANCH   6  11
ATOM     11  C   UNL     1       1.601   8.119  20.293  0.00  0.00    +0.000 A 
ATOM     12  N   UNL     1       1.716   6.851  20.737  0.00  0.00    +0.000 NA
ATOM     13  C   UNL     1       2.204   5.947  19.862  0.00  0.00    +0.000 A 
ATOM     14  C   UNL     1       2.573   6.271  18.583  0.00  0.00    +0.000 A 
ATOM     15  F   UNL     1       3.072   5.363  17.738  0.00  0.00    +0.000 F 
ATOM     16  C   UNL     1       2.404   7.586  18.219  0.00  0.00    +0.000 A 
ATOM     17  N   UNL     1       1.913   8.537  19.047  0.00  0.00    +0.000 NA
ENDBRANCH   6  11
BRANCH   9  18
ATOM     18  C   UNL     1       1.593  13.353  20.318  0.00  0.00    +0.000 C 
ATOM     19  C   UNL     1       2.679  13.618  19.299  0.00  0.00    +0.000 C 
ATOM     20  C   UNL     1       1.918  14.770  19.890  0.00  0.00    +0.000 C 
ENDBRANCH   9  18
BRANCH  10  21
ATOM     21  C   UNL     1      -1.859  13.685  20.723  0.00  0.00    +0.000 C 
BRANCH  21  22
ATOM     22  C   UNL     1      -3.199  12.975  20.545  0.00  0.00    +0.000 A 
ATOM     23  C   UNL     1      -4.180  13.103  21.550  0.00  0.00    +0.000 A 
ATOM     24  C   UNL     1      -5.471  12.605  21.381  0.00  0.00    +0.000 A 
ATOM     25  C   UNL     1      -5.828  12.013  20.178  0.00  0.00    +0.000 A 
ATOM     26  C   UNL     1      -4.889  11.878  19.141  0.00  0.00    +0.000 A 
ATOM     27  C   UNL     1      -3.563  12.316  19.351  0.00  0.00    +0.000 A 
ATOM     28 CL   UNL     1      -2.371  12.028  18.124  0.00  0.00    +0.000 Cl
BRANCH  26  29
ATOM     29  C   UNL     1      -5.342  11.336  17.808  0.00  0.00    +0.000 C 
ATOM     30  F   UNL     1      -5.229  12.244  16.795  0.00  0.00    +0.000 F 
ATOM     31  F   UNL     1      -4.611  10.261  17.403  0.00  0.00    +0.000 F 
ATOM     32  F   UNL     1      -6.645  10.944  17.797  0.00  0.00    +0.000 F 
ENDBRANCH  26  29
ENDBRANCH  21  22
ENDBRANCH  10  21
TORSDOF 5
ENDMDL
MODEL 8
REMARK VINA RESULT:      -7.0      3.485      4.951
REMARK  Name = 
REMARK  5 active torsions:
REMARK  status: ('A' for Active; 'I' for Inactive)
REMARK    1  A    between atoms: C_6  and  C_7
REMARK    2  A    between atoms: C_16  and  C_17
REMARK    3  A    between atoms: N_20  and  C_21
REMARK    4  A    between atoms: C_21  and  C_22
REMARK    5  A    between atoms: C_26  and  C_27
REMARK                            x       y       z     vdW  Elec       q    Type
REMARK                         _______ _______ _______ _____ _____    ______ ____
ROOT
ATOM      1  O   UNL     1       0.148  10.093  22.808  0.00  0.00    +0.000 OA
ATOM      2  C   UNL     1       0.306  10.557  21.684  0.00  0.00    +0.000 C 
ATOM      3  C   UNL     1       0.338  11.970  21.382  0.00  0.00    +0.000 A 
ATOM      4  N   UNL     1       0.137  12.949  22.234  0.00  0.00    +0.000 NA
ATOM      5  N   UNL     1       0.484  14.119  21.601  0.00  0.00    +0.000 NA
ATOM      6  C   UNL     1       0.904  13.843  20.373  0.00  0.00    +0.000 A 
ATOM      7  N   UNL     1       0.729  12.497  20.180  0.00  0.00    +0.000 N 
ATOM      8  C   UNL     1       1.045  11.654  19.047  0.00  0.00    +0.000 C 
ATOM      9  C   UNL     1       0.419  10.247  19.210  0.00  0.00    +0.000 C 
ATOM     10  N   UNL     1       0.597   9.744  20.580  0.00  0.00    +0.000 N 
ENDROOT
BRANCH   6  11
ATOM     11  C   UNL     1       1.477  14.799  19.428  0.00  0.00    +0.000 A 
ATOM     12  N   UNL     1       0.693  15.835  19.068  0.00  0.00    +0.000 NA
ATOM     13  C   UNL     1       1.218  16.711  18.186  0.00  0.00    +0.000 A 
ATOM     14  C   UNL     1       2.478  16.580  17.664  0.00  0.00    +0.000 A 
ATOM     15  F   UNL     1       2.971  17.450  16.776  0.00  0.00    +0.000 F 
ATOM     16  C   UNL     1       3.205  15.499  18.103  0.00  0.00    +0.000 A 
ATOM     17  N   UNL     1       2.738  14.591  18.991  0.00  0.00    +0.000 NA
ENDBRANCH   6  11
BRANCH   9  18
ATOM     18  C   UNL     1      -1.046  10.260  18.771  0.00  0.00    +0.000 C 
ATOM     19  C   UNL     1      -1.602  11.326  17.854  0.00  0.00    +0.000 C 
ATOM     20  C   UNL     1      -1.540   9.900  17.385  0.00  0.00    +0.000 C 
ENDBRANCH   9  18
BRANCH  10  21
ATOM     21  C   UNL     1       1.088   8.390  20.807  0.00  0.00    +0.000 C 
BRANCH  21  22
ATOM     22  C   UNL     1       1.839   7.804  19.614  0.00  0.00    +0.000 A 
ATOM     23  C   UNL     1       2.311   8.673  18.608  0.00  0.00    +0.000 A 
ATOM     24  C   UNL     1       3.128   8.221  17.574  0.00  0.00    +0.000 A 
ATOM     25  C   UNL     1       3.539   6.895  17.550  0.00  0.00    +0.000 A 
ATOM     26  C   UNL     1       3.107   5.996  18.540  0.00  0.00    +0.000 A 
ATOM     27  C   UNL     1       2.217   6.447  19.540  0.00  0.00    +0.000 A 
ATOM     28 CL   UNL     1       1.579   5.308  20.682  0.00  0.00    +0.000 Cl
BRANCH  26  29
ATOM     29  C   UNL     1       3.665   4.595  18.550  0.00  0.00    +0.000 C 
ATOM     30  F   UNL     1       2.702   3.634  18.422  0.00  0.00    +0.000 F 
ATOM     31  F   UNL     1       4.530   4.367  17.523  0.00  0.00    +0.000 F 
ATOM     32  F   UNL     1       4.332   4.285  19.695  0.00  0.00    +0.000 F 
ENDBRANCH  26  29
ENDBRANCH  21  22
ENDBRANCH  10  21
TORSDOF 5
ENDMDL
MODEL 9
REMARK VINA RESULT:      -7.0      3.486      4.975
REMARK  Name = 
REMARK  5 active torsions:
REMARK  status: ('A' for Active; 'I' for Inactive)
REMARK    1  A    between atoms: C_6  and  C_7
REMARK    2  A    between atoms: C_16  and  C_17
REMARK    3  A    between atoms: N_20  and  C_21
REMARK    4  A    between atoms: C_21  and  C_22
REMARK    5  A    between atoms: C_26  and  C_27
REMARK                            x       y       z     vdW  Elec       q    Type
REMARK                         _______ _______ _______ _____ _____    ______ ____
ROOT
ATOM      1  O   UNL     1       0.174  10.153  22.784  0.00  0.00    +0.000 OA
ATOM      2  C   UNL     1       0.308  10.608  21.654  0.00  0.00    +0.000 C 
ATOM      3  C   UNL     1       0.337  12.018  21.341  0.00  0.00    +0.000 A 
ATOM      4  N   UNL     1       0.158  13.004  22.190  0.00  0.00    +0.000 NA
ATOM      5  N   UNL     1       0.495  14.169  21.542  0.00  0.00    +0.000 NA
ATOM      6  C   UNL     1       0.886  13.882  20.306  0.00  0.00    +0.000 A 
ATOM      7  N   UNL     1       0.703  12.536  20.127  0.00  0.00    +0.000 N 
ATOM      8  C   UNL     1       0.990  11.684  18.993  0.00  0.00    +0.000 C 
ATOM      9  C   UNL     1       0.364  10.281  19.180  0.00  0.00    +0.000 C 
ATOM     10  N   UNL     1       0.571   9.786  20.549  0.00  0.00    +0.000 N 
ENDROOT
BRANCH   6  11
ATOM     11  C   UNL     1       1.441  14.831  19.342  0.00  0.00    +0.000 A 
ATOM     12  N   UNL     1       2.657  14.537  18.840  0.00  0.00    +0.000 NA
ATOM     13  C   UNL     1       3.175  15.419  17.960  0.00  0.00    +0.000 A 
ATOM     14  C   UNL     1       2.523  16.563  17.578  0.00  0.00    +0.000 A 
ATOM     15  F   UNL     1       3.063  17.433  16.719  0.00  0.00    +0.000 F 
ATOM     16  C   UNL     1       1.282  16.766  18.134  0.00  0.00    +0.000 A 
ATOM     17  N   UNL     1       0.706  15.916  19.015  0.00  0.00    +0.000 NA
ENDBRANCH   6  11
BRANCH   9  18
ATOM     18  C   UNL     1      -1.110  10.295  18.774  0.00  0.00    +0.000 C 
ATOM     19  C   UNL     1      -1.684  11.355  17.860  0.00  0.00    +0.000 C 
ATOM     20  C   UNL     1      -1.637   9.925  17.403  0.00  0.00    +0.000 C 
ENDBRANCH   9  18
BRANCH  10  21
ATOM     21  C   UNL     1       1.063   8.432  20.774  0.00  0.00    +0.000 C 
BRANCH  21  22
ATOM     22  C   UNL     1       1.852   7.865  19.597  0.00  0.00    +0.000 A 
ATOM     23  C   UNL     1       2.248   8.732  18.557  0.00  0.00    +0.000 A 
ATOM     24  C   UNL     1       3.094   8.309  17.534  0.00  0.00    +0.000 A 
ATOM     25  C   UNL     1       3.609   7.020  17.554  0.00  0.00    +0.000 A 
ATOM     26  C   UNL     1       3.256   6.126  18.580  0.00  0.00    +0.000 A 
ATOM     27  C   UNL     1       2.338   6.540  19.569  0.00  0.00    +0.000 A 
ATOM     28 CL   UNL     1       1.799   5.396  20.757  0.00  0.00    +0.000 Cl
BRANCH  26  29
ATOM     29  C   UNL     1       3.924   4.775  18.635  0.00  0.00    +0.000 C 
ATOM     30  F   UNL     1       4.697   4.605  19.748  0.00  0.00    +0.000 F 
ATOM     31  F   UNL     1       3.030   3.748  18.666  0.00  0.00    +0.000 F 
ATOM     32  F   UNL     1       4.752   4.536  17.582  0.00  0.00    +0.000 F 
ENDBRANCH  26  29
ENDBRANCH  21  22
ENDBRANCH  10  21
TORSDOF 5
ENDMDL
