MODEL 1
REMARK VINA RESULT:      -7.5      0.000      0.000
REMARK  Name = 
REMARK  3 active torsions:
REMARK  status: ('A' for Active; 'I' for Inactive)
REMARK    1  A    between atoms: C_2  and  C_3
REMARK    2  A    between atoms: C_3  and  N_4
REMARK    3  A    between atoms: C_21  and  C_22
REMARK                            x       y       z     vdW  Elec       q    Type
REMARK                         _______ _______ _______ _____ _____    ______ ____
ROOT
ATOM      1  O   UNL     1       3.344   8.771  16.960  0.00  0.00    +0.000 OA
ATOM      2  C   UNL     1       3.228   7.687  17.503  0.00  0.00    +0.000 C 
ATOM      3  N   UNL     1       2.250   7.509  18.471  0.00  0.00    +0.000 N 
ATOM      4  C   UNL     1       1.398   8.594  18.886  0.00  0.00    +0.000 A 
ATOM      5  C   UNL     1       0.830   9.489  17.948  0.00  0.00    +0.000 A 
ATOM      6  C   UNL     1      -0.026  10.514  18.367  0.00  0.00    +0.000 A 
ATOM      7  C   UNL     1      -0.318  10.674  19.718  0.00  0.00    +0.000 A 
ATOM      8  C   UNL     1       0.236   9.803  20.665  0.00  0.00    +0.000 A 
ATOM      9  C   UNL     1       1.085   8.762  20.246  0.00  0.00    +0.000 A 
ATOM     10  S   UNL     1       1.826   7.695  21.499  0.00  0.00    +0.000 S 
ATOM     11  C   UNL     1       1.877   6.194  20.512  0.00  0.00    +0.000 A 
ATOM     12  C   UNL     1       1.807   4.957  21.160  0.00  0.00    +0.000 A 
ATOM     13  C   UNL     1       1.897   3.767  20.433  0.00  0.00    +0.000 A 
ATOM     14  C   UNL     1       2.009   3.796  19.036  0.00  0.00    +0.000 A 
ATOM     15  C   UNL     1       2.056   5.036  18.390  0.00  0.00    +0.000 A 
ATOM     16  C   UNL     1       2.062   6.246  19.125  0.00  0.00    +0.000 A 
ENDROOT
BRANCH  14  17
ATOM     17  C   UNL     1       2.128   2.536  18.213  0.00  0.00    +0.000 C 
ATOM     18  F   UNL     1       2.403   2.817  16.886  0.00  0.00    +0.000 F 
ATOM     19  F   UNL     1       3.133   1.734  18.719  0.00  0.00    +0.000 F 
ATOM     20  F   UNL     1       0.929   1.843  18.271  0.00  0.00    +0.000 F 
ENDBRANCH  14  17
BRANCH   2  21
ATOM     21  C   UNL     1       4.226   6.587  17.091  0.00  0.00    +0.000 C 
BRANCH  21  22
ATOM     22  N   UNL     1       5.484   6.487  17.860  0.00  0.00    +0.000 NA
ATOM     23  C   UNL     1       5.699   5.199  18.543  0.00  0.00    +0.000 C 
ATOM     24  C   UNL     1       6.818   5.348  19.578  0.00  0.00    +0.000 C 
ATOM     25  C   UNL     1       8.097   5.828  18.885  0.00  0.00    +0.000 C 
ATOM     26  C   UNL     1       7.827   7.153  18.165  0.00  0.00    +0.000 C 
ATOM     27  C   UNL     1       6.683   6.980  17.155  0.00  0.00    +0.000 C 
ENDBRANCH  21  22
ENDBRANCH   2  21
TORSDOF 3
ENDMDL
MODEL 2
REMARK VINA RESULT:      -7.3      1.619      2.128
REMARK  Name = 
REMARK  3 active torsions:
REMARK  status: ('A' for Active; 'I' for Inactive)
REMARK    1  A    between atoms: C_2  and  C_3
REMARK    2  A    between atoms: C_3  and  N_4
REMARK    3  A    between atoms: C_21  and  C_22
REMARK                            x       y       z     vdW  Elec       q    Type
REMARK                         _______ _______ _______ _____ _____    ______ ____
ROOT
ATOM      1  O   UNL     1       4.552   7.931  17.368  0.00  0.00    +0.000 OA
ATOM      2  C   UNL     1       4.119   6.908  17.868  0.00  0.00    +0.000 C 
ATOM      3  N   UNL     1       2.903   6.934  18.534  0.00  0.00    +0.000 N 
ATOM      4  C   UNL     1       2.160   8.159  18.692  0.00  0.00    +0.000 A 
ATOM      5  C   UNL     1       2.018   9.081  17.627  0.00  0.00    +0.000 A 
ATOM      6  C   UNL     1       1.261  10.247  17.790  0.00  0.00    +0.000 A 
ATOM      7  C   UNL     1       0.648  10.521  19.008  0.00  0.00    +0.000 A 
ATOM      8  C   UNL     1       0.778   9.625  20.078  0.00  0.00    +0.000 A 
ATOM      9  C   UNL     1       1.527   8.444  19.915  0.00  0.00    +0.000 A 
ATOM     10  S   UNL     1       1.721   7.342  21.331  0.00  0.00    +0.000 S 
ATOM     11  C   UNL     1       1.788   5.802  20.408  0.00  0.00    +0.000 A 
ATOM     12  C   UNL     1       1.346   4.627  21.022  0.00  0.00    +0.000 A 
ATOM     13  C   UNL     1       1.431   3.400  20.357  0.00  0.00    +0.000 A 
ATOM     14  C   UNL     1       1.916   3.339  19.044  0.00  0.00    +0.000 A 
ATOM     15  C   UNL     1       2.336   4.520  18.424  0.00  0.00    +0.000 A 
ATOM     16  C   UNL     1       2.343   5.752  19.123  0.00  0.00    +0.000 A 
ENDROOT
BRANCH  14  17
ATOM     17  C   UNL     1       2.042   2.034  18.295  0.00  0.00    +0.000 C 
ATOM     18  F   UNL     1       2.341   2.239  16.959  0.00  0.00    +0.000 F 
ATOM     19  F   UNL     1       3.036   1.257  18.861  0.00  0.00    +0.000 F 
ATOM     20  F   UNL     1       0.840   1.349  18.370  0.00  0.00    +0.000 F 
ENDBRANCH  14  17
BRANCH   2  21
ATOM     21  C   UNL     1       4.997   5.646  17.752  0.00  0.00    +0.000 C 
BRANCH  21  22
ATOM     22  N   UNL     1       5.508   5.294  16.411  0.00  0.00    +0.000 NA
ATOM     23  C   UNL     1       6.972   5.155  16.315  0.00  0.00    +0.000 C 
ATOM     24  C   UNL     1       7.393   5.159  14.843  0.00  0.00    +0.000 C 
ATOM     25  C   UNL     1       6.679   4.024  14.102  0.00  0.00    +0.000 C 
ATOM     26  C   UNL     1       5.162   4.188  14.247  0.00  0.00    +0.000 C 
ATOM     27  C   UNL     1       4.774   4.208  15.732  0.00  0.00    +0.000 C 
ENDBRANCH  21  22
ENDBRANCH   2  21
TORSDOF 3
ENDMDL
MODEL 3
REMARK VINA RESULT:      -7.1      0.445      1.290
REMARK  Name = 
REMARK  3 active torsions:
REMARK  status: ('A' for Active; 'I' for Inactive)
REMARK    1  A    between atoms: C_2  and  C_3
REMARK    2  A    between atoms: C_3  and  N_4
REMARK    3  A    between atoms: C_21  and  C_22
REMARK                            x       y       z     vdW  Elec       q    Type
REMARK                         _______ _______ _______ _____ _____    ______ ____
ROOT
ATOM      1  O   UNL     1       3.569   8.343  16.847  0.00  0.00    +0.000 OA
ATOM      2  C   UNL     1       3.382   7.291  17.432  0.00  0.00    +0.000 C 
ATOM      3  N   UNL     1       2.388   7.212  18.396  0.00  0.00    +0.000 N 
ATOM      4  C   UNL     1       1.601   8.364  18.758  0.00  0.00    +0.000 A 
ATOM      5  C   UNL     1       1.097   9.253  17.779  0.00  0.00    +0.000 A 
ATOM      6  C   UNL     1       0.303  10.345  18.149  0.00  0.00    +0.000 A 
ATOM      7  C   UNL     1       0.011  10.578  19.489  0.00  0.00    +0.000 A 
ATOM      8  C   UNL     1       0.502   9.714  20.476  0.00  0.00    +0.000 A 
ATOM      9  C   UNL     1       1.289   8.606  20.108  0.00  0.00    +0.000 A 
ATOM     10  S   UNL     1       1.953   7.547  21.410  0.00  0.00    +0.000 S 
ATOM     11  C   UNL     1       1.919   6.007  20.484  0.00  0.00    +0.000 A 
ATOM     12  C   UNL     1       1.767   4.804  21.181  0.00  0.00    +0.000 A 
ATOM     13  C   UNL     1       1.789   3.582  20.503  0.00  0.00    +0.000 A 
ATOM     14  C   UNL     1       1.913   3.548  19.107  0.00  0.00    +0.000 A 
ATOM     15  C   UNL     1       2.042   4.755  18.413  0.00  0.00    +0.000 A 
ATOM     16  C   UNL     1       2.117   5.991  19.098  0.00  0.00    +0.000 A 
ENDROOT
BRANCH  14  17
ATOM     17  C   UNL     1       1.960   2.250  18.337  0.00  0.00    +0.000 C 
ATOM     18  F   UNL     1       2.921   1.391  18.841  0.00  0.00    +0.000 F 
ATOM     19  F   UNL     1       0.729   1.624  18.389  0.00  0.00    +0.000 F 
ATOM     20  F   UNL     1       2.271   2.519  17.014  0.00  0.00    +0.000 F 
ENDBRANCH  14  17
BRANCH   2  21
ATOM     21  C   UNL     1       4.314   6.115  17.074  0.00  0.00    +0.000 C 
BRANCH  21  22
ATOM     22  N   UNL     1       5.718   6.200  17.525  0.00  0.00    +0.000 NA
ATOM     23  C   UNL     1       6.341   7.529  17.386  0.00  0.00    +0.000 C 
ATOM     24  C   UNL     1       7.859   7.401  17.530  0.00  0.00    +0.000 C 
ATOM     25  C   UNL     1       8.195   6.771  18.886  0.00  0.00    +0.000 C 
ATOM     26  C   UNL     1       7.510   5.406  19.003  0.00  0.00    +0.000 C 
ATOM     27  C   UNL     1       5.992   5.561  18.826  0.00  0.00    +0.000 C 
ENDBRANCH  21  22
ENDBRANCH   2  21
TORSDOF 3
ENDMDL
MODEL 4
REMARK VINA RESULT:      -6.9      1.574      2.010
REMARK  Name = 
REMARK  3 active torsions:
REMARK  status: ('A' for Active; 'I' for Inactive)
REMARK    1  A    between atoms: C_2  and  C_3
REMARK    2  A    between atoms: C_3  and  N_4
REMARK    3  A    between atoms: C_21  and  C_22
REMARK                            x       y       z     vdW  Elec       q    Type
REMARK                         _______ _______ _______ _____ _____    ______ ____
ROOT
ATOM      1  O   UNL     1       4.865   7.705  17.706  0.00  0.00    +0.000 OA
ATOM      2  C   UNL     1       4.341   6.699  18.150  0.00  0.00    +0.000 C 
ATOM      3  N   UNL     1       3.052   6.766  18.657  0.00  0.00    +0.000 N 
ATOM      4  C   UNL     1       2.333   8.013  18.715  0.00  0.00    +0.000 A 
ATOM      5  C   UNL     1       2.354   8.931  17.639  0.00  0.00    +0.000 A 
ATOM      6  C   UNL     1       1.618  10.120  17.700  0.00  0.00    +0.000 A 
ATOM      7  C   UNL     1       0.865  10.421  18.830  0.00  0.00    +0.000 A 
ATOM      8  C   UNL     1       0.831   9.530  19.910  0.00  0.00    +0.000 A 
ATOM      9  C   UNL     1       1.558   8.326  19.847  0.00  0.00    +0.000 A 
ATOM     10  S   UNL     1       1.539   7.228  21.280  0.00  0.00    +0.000 S 
ATOM     11  C   UNL     1       1.676   5.681  20.378  0.00  0.00    +0.000 A 
ATOM     12  C   UNL     1       1.124   4.523  20.935  0.00  0.00    +0.000 A 
ATOM     13  C   UNL     1       1.255   3.290  20.290  0.00  0.00    +0.000 A 
ATOM     14  C   UNL     1       1.900   3.205  19.049  0.00  0.00    +0.000 A 
ATOM     15  C   UNL     1       2.431   4.369  18.484  0.00  0.00    +0.000 A 
ATOM     16  C   UNL     1       2.387   5.605  19.174  0.00  0.00    +0.000 A 
ENDROOT
BRANCH  14  17
ATOM     17  C   UNL     1       2.081   1.892  18.326  0.00  0.00    +0.000 C 
ATOM     18  F   UNL     1       2.346   2.081  16.981  0.00  0.00    +0.000 F 
ATOM     19  F   UNL     1       3.123   1.180  18.891  0.00  0.00    +0.000 F 
ATOM     20  F   UNL     1       0.917   1.149  18.439  0.00  0.00    +0.000 F 
ENDBRANCH  14  17
BRANCH   2  21
ATOM     21  C   UNL     1       5.189   5.411  18.151  0.00  0.00    +0.000 C 
BRANCH  21  22
ATOM     22  N   UNL     1       5.763   4.975  16.861  0.00  0.00    +0.000 NA
ATOM     23  C   UNL     1       4.788   4.798  15.769  0.00  0.00    +0.000 C 
ATOM     24  C   UNL     1       5.434   4.009  14.628  0.00  0.00    +0.000 C 
ATOM     25  C   UNL     1       6.685   4.745  14.138  0.00  0.00    +0.000 C 
ATOM     26  C   UNL     1       7.661   4.934  15.304  0.00  0.00    +0.000 C 
ATOM     27  C   UNL     1       6.977   5.703  16.444  0.00  0.00    +0.000 C 
ENDBRANCH  21  22
ENDBRANCH   2  21
TORSDOF 3
ENDMDL
MODEL 5
REMARK VINA RESULT:      -6.6      8.112     11.301
REMARK  Name = 
REMARK  3 active torsions:
REMARK  status: ('A' for Active; 'I' for Inactive)
REMARK    1  A    between atoms: C_2  and  C_3
REMARK    2  A    between atoms: C_3  and  N_4
REMARK    3  A    between atoms: C_21  and  C_22
REMARK                            x       y       z     vdW  Elec       q    Type
REMARK                         _______ _______ _______ _____ _____    ______ ____
ROOT
ATOM      1  O   UNL     1      -1.291  14.106  20.392  0.00  0.00    +0.000 OA
ATOM      2  C   UNL     1      -2.450  13.946  20.732  0.00  0.00    +0.000 C 
ATOM      3  N   UNL     1      -3.153  12.845  20.266  0.00  0.00    +0.000 N 
ATOM      4  C   UNL     1      -2.557  11.908  19.347  0.00  0.00    +0.000 A 
ATOM      5  C   UNL     1      -1.227  11.455  19.511  0.00  0.00    +0.000 A 
ATOM      6  C   UNL     1      -0.679  10.516  18.629  0.00  0.00    +0.000 A 
ATOM      7  C   UNL     1      -1.435  10.027  17.568  0.00  0.00    +0.000 A 
ATOM      8  C   UNL     1      -2.753  10.464  17.383  0.00  0.00    +0.000 A 
ATOM      9  C   UNL     1      -3.313  11.397  18.276  0.00  0.00    +0.000 A 
ATOM     10  S   UNL     1      -4.993  11.982  17.974  0.00  0.00    +0.000 S 
ATOM     11  C   UNL     1      -5.459  12.221  19.693  0.00  0.00    +0.000 A 
ATOM     12  C   UNL     1      -6.804  12.096  20.051  0.00  0.00    +0.000 A 
ATOM     13  C   UNL     1      -7.214  12.327  21.368  0.00  0.00    +0.000 A 
ATOM     14  C   UNL     1      -6.274  12.639  22.358  0.00  0.00    +0.000 A 
ATOM     15  C   UNL     1      -4.926  12.741  22.000  0.00  0.00    +0.000 A 
ATOM     16  C   UNL     1      -4.513  12.603  20.652  0.00  0.00    +0.000 A 
ENDROOT
BRANCH  14  17
ATOM     17  C   UNL     1      -6.674  12.914  23.788  0.00  0.00    +0.000 C 
ATOM     18  F   UNL     1      -5.771  12.371  24.685  0.00  0.00    +0.000 F 
ATOM     19  F   UNL     1      -6.755  14.277  24.003  0.00  0.00    +0.000 F 
ATOM     20  F   UNL     1      -7.916  12.349  24.027  0.00  0.00    +0.000 F 
ENDBRANCH  14  17
BRANCH   2  21
ATOM     21  C   UNL     1      -3.069  15.027  21.641  0.00  0.00    +0.000 C 
BRANCH  21  22
ATOM     22  N   UNL     1      -2.515  15.168  23.003  0.00  0.00    +0.000 NA
ATOM     23  C   UNL     1      -1.456  16.183  23.146  0.00  0.00    +0.000 C 
ATOM     24  C   UNL     1      -0.725  15.978  24.475  0.00  0.00    +0.000 C 
ATOM     25  C   UNL     1      -1.728  16.058  25.630  0.00  0.00    +0.000 C 
ATOM     26  C   UNL     1      -2.826  15.008  25.433  0.00  0.00    +0.000 C 
ATOM     27  C   UNL     1      -3.522  15.221  24.081  0.00  0.00    +0.000 C 
ENDBRANCH  21  22
ENDBRANCH   2  21
TORSDOF 3
ENDMDL
MODEL 6
REMARK VINA RESULT:      -6.5      8.192     11.348
REMARK  Name = 
REMARK  3 active torsions:
REMARK  status: ('A' for Active; 'I' for Inactive)
REMARK    1  A    between atoms: C_2  and  C_3
REMARK    2  A    between atoms: C_3  and  N_4
REMARK    3  A    between atoms: C_21  and  C_22
REMARK                            x       y       z     vdW  Elec       q    Type
REMARK                         _______ _______ _______ _____ _____    ______ ____
ROOT
ATOM      1  O   UNL     1      -1.549  14.247  20.189  0.00  0.00    +0.000 OA
ATOM      2  C   UNL     1      -2.709  14.033  20.494  0.00  0.00    +0.000 C 
ATOM      3  N   UNL     1      -3.322  12.864  20.072  0.00  0.00    +0.000 N 
ATOM      4  C   UNL     1      -2.633  11.915  19.234  0.00  0.00    +0.000 A 
ATOM      5  C   UNL     1      -1.284  11.558  19.474  0.00  0.00    +0.000 A 
ATOM      6  C   UNL     1      -0.644  10.607  18.671  0.00  0.00    +0.000 A 
ATOM      7  C   UNL     1      -1.325  10.008  17.616  0.00  0.00    +0.000 A 
ATOM      8  C   UNL     1      -2.659  10.348  17.356  0.00  0.00    +0.000 A 
ATOM      9  C   UNL     1      -3.311  11.294  18.170  0.00  0.00    +0.000 A 
ATOM     10  S   UNL     1      -5.011  11.750  17.771  0.00  0.00    +0.000 S 
ATOM     11  C   UNL     1      -5.560  12.060  19.454  0.00  0.00    +0.000 A 
ATOM     12  C   UNL     1      -6.908  11.870  19.770  0.00  0.00    +0.000 A 
ATOM     13  C   UNL     1      -7.385  12.151  21.054  0.00  0.00    +0.000 A 
ATOM     14  C   UNL     1      -6.506  12.581  22.057  0.00  0.00    +0.000 A 
ATOM     15  C   UNL     1      -5.154  12.748  21.742  0.00  0.00    +0.000 A 
ATOM     16  C   UNL     1      -4.679  12.558  20.422  0.00  0.00    +0.000 A 
ENDROOT
BRANCH  14  17
ATOM     17  C   UNL     1      -6.981  12.913  23.452  0.00  0.00    +0.000 C 
ATOM     18  F   UNL     1      -7.603  14.148  23.498  0.00  0.00    +0.000 F 
ATOM     19  F   UNL     1      -7.867  11.949  23.892  0.00  0.00    +0.000 F 
ATOM     20  F   UNL     1      -5.890  12.944  24.306  0.00  0.00    +0.000 F 
ENDBRANCH  14  17
BRANCH   2  21
ATOM     21  C   UNL     1      -3.430  15.123  21.312  0.00  0.00    +0.000 C 
BRANCH  21  22
ATOM     22  N   UNL     1      -3.000  15.318  22.713  0.00  0.00    +0.000 NA
ATOM     23  C   UNL     1      -4.076  15.688  23.652  0.00  0.00    +0.000 C 
ATOM     24  C   UNL     1      -3.463  16.211  24.953  0.00  0.00    +0.000 C 
ATOM     25  C   UNL     1      -2.546  15.142  25.555  0.00  0.00    +0.000 C 
ATOM     26  C   UNL     1      -1.460  14.765  24.542  0.00  0.00    +0.000 C 
ATOM     27  C   UNL     1      -2.104  14.270  23.239  0.00  0.00    +0.000 C 
ENDBRANCH  21  22
ENDBRANCH   2  21
TORSDOF 3
ENDMDL
MODEL 7
REMARK VINA RESULT:      -6.5      4.648      7.214
REMARK  Name = 
REMARK  3 active torsions:
REMARK  status: ('A' for Active; 'I' for Inactive)
REMARK    1  A    between atoms: C_2  and  C_3
REMARK    2  A    between atoms: C_3  and  N_4
REMARK    3  A    between atoms: C_21  and  C_22
REMARK                            x       y       z     vdW  Elec       q    Type
REMARK                         _______ _______ _______ _____ _____    ______ ____
ROOT
ATOM      1  O   UNL     1       1.463  11.256  21.573  0.00  0.00    +0.000 OA
ATOM      2  C   UNL     1       0.400  11.111  20.995  0.00  0.00    +0.000 C 
ATOM      3  N   UNL     1      -0.366  12.223  20.681  0.00  0.00    +0.000 N 
ATOM      4  C   UNL     1       0.043  13.550  21.068  0.00  0.00    +0.000 A 
ATOM      5  C   UNL     1       1.386  13.977  20.937  0.00  0.00    +0.000 A 
ATOM      6  C   UNL     1       1.756  15.282  21.283  0.00  0.00    +0.000 A 
ATOM      7  C   UNL     1       0.807  16.173  21.775  0.00  0.00    +0.000 A 
ATOM      8  C   UNL     1      -0.527  15.771  21.917  0.00  0.00    +0.000 A 
ATOM      9  C   UNL     1      -0.907  14.464  21.556  0.00  0.00    +0.000 A 
ATOM     10  S   UNL     1      -2.623  13.963  21.806  0.00  0.00    +0.000 S 
ATOM     11  C   UNL     1      -2.730  12.833  20.413  0.00  0.00    +0.000 A 
ATOM     12  C   UNL     1      -3.972  12.630  19.804  0.00  0.00    +0.000 A 
ATOM     13  C   UNL     1      -4.108  11.719  18.752  0.00  0.00    +0.000 A 
ATOM     14  C   UNL     1      -2.989  11.033  18.260  0.00  0.00    +0.000 A 
ATOM     15  C   UNL     1      -1.745  11.256  18.858  0.00  0.00    +0.000 A 
ATOM     16  C   UNL     1      -1.614  12.103  19.985  0.00  0.00    +0.000 A 
ENDROOT
BRANCH  14  17
ATOM     17  C   UNL     1      -3.093  10.027  17.138  0.00  0.00    +0.000 C 
ATOM     18  F   UNL     1      -1.845   9.633  16.689  0.00  0.00    +0.000 F 
ATOM     19  F   UNL     1      -3.788   8.912  17.566  0.00  0.00    +0.000 F 
ATOM     20  F   UNL     1      -3.775  10.600  16.077  0.00  0.00    +0.000 F 
ENDBRANCH  14  17
BRANCH   2  21
ATOM     21  C   UNL     1      -0.036   9.664  20.687  0.00  0.00    +0.000 C 
BRANCH  21  22
ATOM     22  N   UNL     1       0.805   8.883  19.757  0.00  0.00    +0.000 NA
ATOM     23  C   UNL     1       1.396   9.656  18.649  0.00  0.00    +0.000 C 
ATOM     24  C   UNL     1       1.922   8.697  17.578  0.00  0.00    +0.000 C 
ATOM     25  C   UNL     1       2.949   7.746  18.200  0.00  0.00    +0.000 C 
ATOM     26  C   UNL     1       2.307   6.982  19.362  0.00  0.00    +0.000 C 
ATOM     27  C   UNL     1       1.765   7.969  20.406  0.00  0.00    +0.000 C 
ENDBRANCH  21  22
ENDBRANCH   2  21
TORSDOF 3
ENDMDL
MODEL 8
REMARK VINA RESULT:      -6.5      2.438      5.835
REMARK  Name = 
REMARK  3 active torsions:
REMARK  status: ('A' for Active; 'I' for Inactive)
REMARK    1  A    between atoms: C_2  and  C_3
REMARK    2  A    between atoms: C_3  and  N_4
REMARK    3  A    between atoms: C_21  and  C_22
REMARK                            x       y       z     vdW  Elec       q    Type
REMARK                         _______ _______ _______ _____ _____    ______ ____
ROOT
ATOM      1  O   UNL     1       4.055   7.723  17.768  0.00  0.00    +0.000 OA
ATOM      2  C   UNL     1       3.524   6.715  18.201  0.00  0.00    +0.000 C 
ATOM      3  N   UNL     1       4.008   5.471  17.823  0.00  0.00    +0.000 N 
ATOM      4  C   UNL     1       5.096   5.342  16.888  0.00  0.00    +0.000 A 
ATOM      5  C   UNL     1       6.238   6.175  16.961  0.00  0.00    +0.000 A 
ATOM      6  C   UNL     1       7.302   6.008  16.067  0.00  0.00    +0.000 A 
ATOM      7  C   UNL     1       7.243   5.027  15.082  0.00  0.00    +0.000 A 
ATOM      8  C   UNL     1       6.121   4.193  14.987  0.00  0.00    +0.000 A 
ATOM      9  C   UNL     1       5.055   4.347  15.894  0.00  0.00    +0.000 A 
ATOM     10  S   UNL     1       3.602   3.294  15.706  0.00  0.00    +0.000 S 
ATOM     11  C   UNL     1       3.174   3.191  17.448  0.00  0.00    +0.000 A 
ATOM     12  C   UNL     1       2.507   2.054  17.913  0.00  0.00    +0.000 A 
ATOM     13  C   UNL     1       2.110   1.959  19.251  0.00  0.00    +0.000 A 
ATOM     14  C   UNL     1       2.419   2.983  20.156  0.00  0.00    +0.000 A 
ATOM     15  C   UNL     1       3.106   4.109  19.691  0.00  0.00    +0.000 A 
ATOM     16  C   UNL     1       3.428   4.257  18.320  0.00  0.00    +0.000 A 
ENDROOT
BRANCH  14  17
ATOM     17  C   UNL     1       1.993   2.930  21.604  0.00  0.00    +0.000 C 
ATOM     18  F   UNL     1       0.635   2.698  21.728  0.00  0.00    +0.000 F 
ATOM     19  F   UNL     1       2.681   1.929  22.263  0.00  0.00    +0.000 F 
ATOM     20  F   UNL     1       2.283   4.144  22.206  0.00  0.00    +0.000 F 
ENDBRANCH  14  17
BRANCH   2  21
ATOM     21  C   UNL     1       2.304   6.908  19.123  0.00  0.00    +0.000 C 
BRANCH  21  22
ATOM     22  N   UNL     1       1.892   8.295  19.424  0.00  0.00    +0.000 NA
ATOM     23  C   UNL     1       1.305   9.033  18.291  0.00  0.00    +0.000 C 
ATOM     24  C   UNL     1       1.267  10.528  18.618  0.00  0.00    +0.000 C 
ATOM     25  C   UNL     1       0.462  10.752  19.902  0.00  0.00    +0.000 C 
ATOM     26  C   UNL     1       1.086   9.949  21.048  0.00  0.00    +0.000 C 
ATOM     27  C   UNL     1       1.136   8.459  20.681  0.00  0.00    +0.000 C 
ENDBRANCH  21  22
ENDBRANCH   2  21
TORSDOF 3
ENDMDL
MODEL 9
REMARK VINA RESULT:      -6.4      6.002      9.772
REMARK  Name = 
REMARK  3 active torsions:
REMARK  status: ('A' for Active; 'I' for Inactive)
REMARK    1  A    between atoms: C_2  and  C_3
REMARK    2  A    between atoms: C_3  and  N_4
REMARK    3  A    between atoms: C_21  and  C_22
REMARK                            x       y       z     vdW  Elec       q    Type
REMARK                         _______ _______ _______ _____ _____    ______ ____
ROOT
ATOM      1  O   UNL     1      -1.628   9.960  17.189  0.00  0.00    +0.000 OA
ATOM      2  C   UNL     1      -1.677  10.826  18.044  0.00  0.00    +0.000 C 
ATOM      3  N   UNL     1      -0.748  10.823  19.074  0.00  0.00    +0.000 N 
ATOM      4  C   UNL     1       0.246   9.785  19.185  0.00  0.00    +0.000 A 
ATOM      5  C   UNL     1       0.950   9.311  18.052  0.00  0.00    +0.000 A 
ATOM      6  C   UNL     1       1.939   8.329  18.187  0.00  0.00    +0.000 A 
ATOM      7  C   UNL     1       2.233   7.797  19.438  0.00  0.00    +0.000 A 
ATOM      8  C   UNL     1       1.547   8.248  20.573  0.00  0.00    +0.000 A 
ATOM      9  C   UNL     1       0.561   9.246  20.445  0.00  0.00    +0.000 A 
ATOM     10  S   UNL     1      -0.343   9.761  21.919  0.00  0.00    +0.000 S 
ATOM     11  C   UNL     1      -0.596  11.474  21.438  0.00  0.00    +0.000 A 
ATOM     12  C   UNL     1      -0.714  12.445  22.436  0.00  0.00    +0.000 A 
ATOM     13  C   UNL     1      -0.965  13.780  22.104  0.00  0.00    +0.000 A 
ATOM     14  C   UNL     1      -1.053  14.172  20.762  0.00  0.00    +0.000 A 
ATOM     15  C   UNL     1      -0.912  13.200  19.766  0.00  0.00    +0.000 A 
ATOM     16  C   UNL     1      -0.753  11.832  20.093  0.00  0.00    +0.000 A 
ENDROOT
BRANCH  14  17
ATOM     17  C   UNL     1      -1.341  15.598  20.359  0.00  0.00    +0.000 C 
ATOM     18  F   UNL     1      -0.888  15.869  19.080  0.00  0.00    +0.000 F 
ATOM     19  F   UNL     1      -2.700  15.840  20.413  0.00  0.00    +0.000 F 
ATOM     20  F   UNL     1      -0.697  16.456  21.237  0.00  0.00    +0.000 F 
ENDBRANCH  14  17
BRANCH   2  21
ATOM     21  C   UNL     1      -2.817  11.857  17.931  0.00  0.00    +0.000 C 
BRANCH  21  22
ATOM     22  N   UNL     1      -4.062  11.578  18.676  0.00  0.00    +0.000 NA
ATOM     23  C   UNL     1      -4.458  12.616  19.646  0.00  0.00    +0.000 C 
ATOM     24  C   UNL     1      -5.523  12.055  20.592  0.00  0.00    +0.000 C 
ATOM     25  C   UNL     1      -6.727  11.568  19.779  0.00  0.00    +0.000 C 
ATOM     26  C   UNL     1      -6.272  10.513  18.766  0.00  0.00    +0.000 C 
ATOM     27  C   UNL     1      -5.185  11.094  17.850  0.00  0.00    +0.000 C 
ENDBRANCH  21  22
ENDBRANCH   2  21
TORSDOF 3
ENDMDL
