MODEL 1
REMARK VINA RESULT:      -8.6      0.000      0.000
REMARK  Name = 
REMARK  4 active torsions:
REMARK  status: ('A' for Active; 'I' for Inactive)
REMARK    1  A    between atoms: C_8  and  C_9
REMARK    2  A    between atoms: C_9  and  N_10
REMARK    3  A    between atoms: N_12  and  C_13
REMARK    4  A    between atoms: C_13  and  C_14
REMARK                            x       y       z     vdW  Elec       q    Type
REMARK                         _______ _______ _______ _____ _____    ______ ____
ROOT
ATOM      1  N   UNL     1       3.600   5.232  18.669  0.00  0.00    +0.000 N 
ATOM      2  C   UNL     1       4.420   4.766  17.648  0.00  0.00    +0.000 A 
ATOM      3  N   UNL     1       5.466   5.464  17.149  0.00  0.00    +0.000 N 
ATOM      4  N   UNL     1       4.095   3.540  17.320  0.00  0.00    +0.000 NA
ATOM      5  C   UNL     1       2.963   3.240  18.029  0.00  0.00    +0.000 A 
ATOM      6  C   UNL     1       2.187   2.071  18.009  0.00  0.00    +0.000 A 
ATOM      7  C   UNL     1       1.040   2.004  18.810  0.00  0.00    +0.000 A 
ATOM      8  C   UNL     1       0.675   3.081  19.617  0.00  0.00    +0.000 A 
ATOM      9  C   UNL     1       1.448   4.250  19.664  0.00  0.00    +0.000 A 
ATOM     10  C   UNL     1       2.599   4.293  18.861  0.00  0.00    +0.000 A 
ATOM     11  H   UNL     1       5.638   6.447  17.302  0.00  0.00    +0.000 HD
ENDROOT
BRANCH   1  12
ATOM     12  C   UNL     1       3.727   6.468  19.434  0.00  0.00    +0.000 C 
BRANCH  12  20
ATOM     13  F   UNL     1       3.251   7.786  16.990  0.00  0.00    +0.000 F 
ATOM     14  C   UNL     1       2.487   8.153  18.030  0.00  0.00    +0.000 A 
ATOM     15  C   UNL     1       1.602   9.218  17.857  0.00  0.00    +0.000 A 
ATOM     16  C   UNL     1       0.831   9.645  18.929  0.00  0.00    +0.000 A 
ATOM     17 CL   UNL     1      -0.205  11.009  18.774  0.00  0.00    +0.000 Cl
ATOM     18  C   UNL     1       0.896   8.978  20.143  0.00  0.00    +0.000 A 
ATOM     19  C   UNL     1       1.756   7.886  20.286  0.00  0.00    +0.000 A 
ATOM     20  C   UNL     1       2.609   7.478  19.251  0.00  0.00    +0.000 A 
ENDBRANCH  12  20
ENDBRANCH   1  12
BRANCH   3  21
ATOM     21  C   UNL     1       6.625   4.705  16.665  0.00  0.00    +0.000 C 
BRANCH  21  22
ATOM     22  C   UNL     1       6.754   4.565  15.177  0.00  0.00    +0.000 A 
ATOM     23  C   UNL     1       6.056   3.812  14.245  0.00  0.00    +0.000 A 
ATOM     24  C   UNL     1       6.581   4.145  12.976  0.00  0.00    +0.000 A 
ATOM     25  C   UNL     1       7.576   5.064  13.207  0.00  0.00    +0.000 A 
ATOM     26  O   UNL     1       7.698   5.320  14.537  0.00  0.00    +0.000 OA
ENDBRANCH  21  22
ENDBRANCH   3  21
TORSDOF 4
ENDMDL
MODEL 2
REMARK VINA RESULT:      -8.1      0.961      1.356
REMARK  Name = 
REMARK  4 active torsions:
REMARK  status: ('A' for Active; 'I' for Inactive)
REMARK    1  A    between atoms: C_8  and  C_9
REMARK    2  A    between atoms: C_9  and  N_10
REMARK    3  A    between atoms: N_12  and  C_13
REMARK    4  A    between atoms: C_13  and  C_14
REMARK                            x       y       z     vdW  Elec       q    Type
REMARK                         _______ _______ _______ _____ _____    ______ ____
ROOT
ATOM      1  N   UNL     1       3.582   5.235  18.738  0.00  0.00    +0.000 N 
ATOM      2  C   UNL     1       4.407   4.791  17.712  0.00  0.00    +0.000 A 
ATOM      3  N   UNL     1       5.463   5.493  17.241  0.00  0.00    +0.000 N 
ATOM      4  N   UNL     1       4.075   3.577  17.347  0.00  0.00    +0.000 NA
ATOM      5  C   UNL     1       2.934   3.267  18.038  0.00  0.00    +0.000 A 
ATOM      6  C   UNL     1       2.149   2.106  17.980  0.00  0.00    +0.000 A 
ATOM      7  C   UNL     1       0.994   2.027  18.769  0.00  0.00    +0.000 A 
ATOM      8  C   UNL     1       0.631   3.084  19.602  0.00  0.00    +0.000 A 
ATOM      9  C   UNL     1       1.413   4.244  19.688  0.00  0.00    +0.000 A 
ATOM     10  C   UNL     1       2.571   4.301  18.896  0.00  0.00    +0.000 A 
ATOM     11  H   UNL     1       5.642   6.471  17.423  0.00  0.00    +0.000 HD
ENDROOT
BRANCH   1  12
ATOM     12  C   UNL     1       3.712   6.449  19.538  0.00  0.00    +0.000 C 
BRANCH  12  20
ATOM     13  F   UNL     1       1.808   7.438  21.362  0.00  0.00    +0.000 F 
ATOM     14  C   UNL     1       1.781   7.957  20.125  0.00  0.00    +0.000 A 
ATOM     15  C   UNL     1       0.761   8.854  19.805  0.00  0.00    +0.000 A 
ATOM     16  C   UNL     1       0.686   9.372  18.520  0.00  0.00    +0.000 A 
ATOM     17 CL   UNL     1      -0.608  10.411  18.069  0.00  0.00    +0.000 Cl
ATOM     18  C   UNL     1       1.653   9.047  17.581  0.00  0.00    +0.000 A 
ATOM     19  C   UNL     1       2.692   8.181  17.931  0.00  0.00    +0.000 A 
ATOM     20  C   UNL     1       2.755   7.575  19.193  0.00  0.00    +0.000 A 
ENDBRANCH  12  20
ENDBRANCH   1  12
BRANCH   3  21
ATOM     21  C   UNL     1       6.620   4.738  16.747  0.00  0.00    +0.000 C 
BRANCH  21  22
ATOM     22  C   UNL     1       6.723   4.579  15.259  0.00  0.00    +0.000 A 
ATOM     23  C   UNL     1       6.013   3.810  14.349  0.00  0.00    +0.000 A 
ATOM     24  C   UNL     1       6.514   4.129  13.066  0.00  0.00    +0.000 A 
ATOM     25  C   UNL     1       7.508   5.056  13.268  0.00  0.00    +0.000 A 
ATOM     26  O   UNL     1       7.652   5.330  14.592  0.00  0.00    +0.000 OA
ENDBRANCH  21  22
ENDBRANCH   3  21
TORSDOF 4
ENDMDL
MODEL 3
REMARK VINA RESULT:      -8.0      3.370      6.294
REMARK  Name = 
REMARK  4 active torsions:
REMARK  status: ('A' for Active; 'I' for Inactive)
REMARK    1  A    between atoms: C_8  and  C_9
REMARK    2  A    between atoms: C_9  and  N_10
REMARK    3  A    between atoms: N_12  and  C_13
REMARK    4  A    between atoms: C_13  and  C_14
REMARK                            x       y       z     vdW  Elec       q    Type
REMARK                         _______ _______ _______ _____ _____    ______ ____
ROOT
ATOM      1  N   UNL     1       3.926   5.414  19.288  0.00  0.00    +0.000 N 
ATOM      2  C   UNL     1       3.019   6.436  19.040  0.00  0.00    +0.000 A 
ATOM      3  N   UNL     1       3.352   7.608  18.452  0.00  0.00    +0.000 N 
ATOM      4  N   UNL     1       1.805   6.063  19.362  0.00  0.00    +0.000 NA
ATOM      5  C   UNL     1       1.926   4.837  19.960  0.00  0.00    +0.000 A 
ATOM      6  C   UNL     1       0.934   4.022  20.524  0.00  0.00    +0.000 A 
ATOM      7  C   UNL     1       1.306   2.807  21.112  0.00  0.00    +0.000 A 
ATOM      8  C   UNL     1       2.642   2.410  21.134  0.00  0.00    +0.000 A 
ATOM      9  C   UNL     1       3.645   3.201  20.557  0.00  0.00    +0.000 A 
ATOM     10  C   UNL     1       3.251   4.411  19.965  0.00  0.00    +0.000 A 
ATOM     11  H   UNL     1       4.293   7.950  18.324  0.00  0.00    +0.000 HD
ENDROOT
BRANCH   1  12
ATOM     12  C   UNL     1       5.337   5.353  18.922  0.00  0.00    +0.000 C 
BRANCH  12  20
ATOM     13  F   UNL     1       7.873   5.586  17.717  0.00  0.00    +0.000 F 
ATOM     14  C   UNL     1       6.901   5.038  16.972  0.00  0.00    +0.000 A 
ATOM     15  C   UNL     1       7.183   4.729  15.640  0.00  0.00    +0.000 A 
ATOM     16  C   UNL     1       6.183   4.201  14.835  0.00  0.00    +0.000 A 
ATOM     17 CL   UNL     1       6.473   3.890  13.170  0.00  0.00    +0.000 Cl
ATOM     18  C   UNL     1       4.932   3.927  15.369  0.00  0.00    +0.000 A 
ATOM     19  C   UNL     1       4.680   4.203  16.715  0.00  0.00    +0.000 A 
ATOM     20  C   UNL     1       5.639   4.811  17.537  0.00  0.00    +0.000 A 
ENDBRANCH  12  20
ENDBRANCH   1  12
BRANCH   3  21
ATOM     21  C   UNL     1       2.340   8.265  17.615  0.00  0.00    +0.000 C 
BRANCH  21  22
ATOM     22  C   UNL     1       1.723   9.513  18.176  0.00  0.00    +0.000 A 
ATOM     23  C   UNL     1       0.594   9.731  18.950  0.00  0.00    +0.000 A 
ATOM     24  C   UNL     1       0.555  11.116  19.233  0.00  0.00    +0.000 A 
ATOM     25  C   UNL     1       1.647  11.661  18.603  0.00  0.00    +0.000 A 
ATOM     26  O   UNL     1       2.358  10.703  17.952  0.00  0.00    +0.000 OA
ENDBRANCH  21  22
ENDBRANCH   3  21
TORSDOF 4
ENDMDL
MODEL 4
REMARK VINA RESULT:      -8.0      3.383      6.728
REMARK  Name = 
REMARK  4 active torsions:
REMARK  status: ('A' for Active; 'I' for Inactive)
REMARK    1  A    between atoms: C_8  and  C_9
REMARK    2  A    between atoms: C_9  and  N_10
REMARK    3  A    between atoms: N_12  and  C_13
REMARK    4  A    between atoms: C_13  and  C_14
REMARK                            x       y       z     vdW  Elec       q    Type
REMARK                         _______ _______ _______ _____ _____    ______ ____
ROOT
ATOM      1  N   UNL     1       3.664   5.290  19.426  0.00  0.00    +0.000 N 
ATOM      2  C   UNL     1       2.562   6.068  19.757  0.00  0.00    +0.000 A 
ATOM      3  N   UNL     1       2.640   7.380  20.081  0.00  0.00    +0.000 N 
ATOM      4  N   UNL     1       1.454   5.383  19.614  0.00  0.00    +0.000 NA
ATOM      5  C   UNL     1       1.832   4.099  19.323  0.00  0.00    +0.000 A 
ATOM      6  C   UNL     1       1.034   2.964  19.119  0.00  0.00    +0.000 A 
ATOM      7  C   UNL     1       1.654   1.736  18.859  0.00  0.00    +0.000 A 
ATOM      8  C   UNL     1       3.044   1.642  18.800  0.00  0.00    +0.000 A 
ATOM      9  C   UNL     1       3.858   2.769  18.982  0.00  0.00    +0.000 A 
ATOM     10  C   UNL     1       3.216   3.993  19.233  0.00  0.00    +0.000 A 
ATOM     11  H   UNL     1       3.489   7.872  20.319  0.00  0.00    +0.000 HD
ENDROOT
BRANCH   1  12
ATOM     12  C   UNL     1       5.054   5.709  19.289  0.00  0.00    +0.000 C 
BRANCH  12  20
ATOM     13  F   UNL     1       4.031   7.043  17.029  0.00  0.00    +0.000 F 
ATOM     14  C   UNL     1       5.043   6.189  16.816  0.00  0.00    +0.000 A 
ATOM     15  C   UNL     1       5.437   5.945  15.499  0.00  0.00    +0.000 A 
ATOM     16  C   UNL     1       6.453   5.033  15.248  0.00  0.00    +0.000 A 
ATOM     17 CL   UNL     1       6.902   4.646  13.635  0.00  0.00    +0.000 Cl
ATOM     18  C   UNL     1       7.111   4.417  16.302  0.00  0.00    +0.000 A 
ATOM     19  C   UNL     1       6.733   4.706  17.616  0.00  0.00    +0.000 A 
ATOM     20  C   UNL     1       5.659   5.558  17.905  0.00  0.00    +0.000 A 
ENDBRANCH  12  20
ENDBRANCH   1  12
BRANCH   3  21
ATOM     21  C   UNL     1       1.509   8.242  19.717  0.00  0.00    +0.000 C 
BRANCH  21  22
ATOM     22  C   UNL     1       0.743   8.848  20.856  0.00  0.00    +0.000 A 
ATOM     23  C   UNL     1      -0.111   8.304  21.804  0.00  0.00    +0.000 A 
ATOM     24  C   UNL     1      -0.480   9.357  22.672  0.00  0.00    +0.000 A 
ATOM     25  C   UNL     1       0.152  10.479  22.196  0.00  0.00    +0.000 A 
ATOM     26  O   UNL     1       0.889  10.188  21.091  0.00  0.00    +0.000 OA
ENDBRANCH  21  22
ENDBRANCH   3  21
TORSDOF 4
ENDMDL
MODEL 5
REMARK VINA RESULT:      -7.9      2.219      2.707
REMARK  Name = 
REMARK  4 active torsions:
REMARK  status: ('A' for Active; 'I' for Inactive)
REMARK    1  A    between atoms: C_8  and  C_9
REMARK    2  A    between atoms: C_9  and  N_10
REMARK    3  A    between atoms: N_12  and  C_13
REMARK    4  A    between atoms: C_13  and  C_14
REMARK                            x       y       z     vdW  Elec       q    Type
REMARK                         _______ _______ _______ _____ _____    ______ ____
ROOT
ATOM      1  N   UNL     1       2.674   6.082  19.056  0.00  0.00    +0.000 N 
ATOM      2  C   UNL     1       3.350   6.022  17.844  0.00  0.00    +0.000 A 
ATOM      3  N   UNL     1       4.058   7.054  17.328  0.00  0.00    +0.000 N 
ATOM      4  N   UNL     1       3.281   4.817  17.337  0.00  0.00    +0.000 NA
ATOM      5  C   UNL     1       2.435   4.107  18.148  0.00  0.00    +0.000 A 
ATOM      6  C   UNL     1       1.991   2.782  18.025  0.00  0.00    +0.000 A 
ATOM      7  C   UNL     1       1.093   2.276  18.973  0.00  0.00    +0.000 A 
ATOM      8  C   UNL     1       0.649   3.075  20.026  0.00  0.00    +0.000 A 
ATOM      9  C   UNL     1       1.097   4.396  20.176  0.00  0.00    +0.000 A 
ATOM     10  C   UNL     1       2.004   4.881  19.220  0.00  0.00    +0.000 A 
ATOM     11  H   UNL     1       4.007   8.012  17.643  0.00  0.00    +0.000 HD
ENDROOT
BRANCH   1  12
ATOM     12  C   UNL     1       2.646   7.178  20.019  0.00  0.00    +0.000 C 
BRANCH  12  20
ATOM     13  F   UNL     1       1.005   8.396  21.958  0.00  0.00    +0.000 F 
ATOM     14  C   UNL     1       0.859   8.821  20.694  0.00  0.00    +0.000 A 
ATOM     15  C   UNL     1      -0.152   9.743  20.417  0.00  0.00    +0.000 A 
ATOM     16  C   UNL     1      -0.351  10.167  19.111  0.00  0.00    +0.000 A 
ATOM     17 CL   UNL     1      -1.642  11.234  18.724  0.00  0.00    +0.000 Cl
ATOM     18  C   UNL     1       0.489   9.725  18.100  0.00  0.00    +0.000 A 
ATOM     19  C   UNL     1       1.524   8.836  18.402  0.00  0.00    +0.000 A 
ATOM     20  C   UNL     1       1.704   8.323  19.693  0.00  0.00    +0.000 A 
ENDBRANCH  12  20
ENDBRANCH   1  12
BRANCH   3  21
ATOM     21  C   UNL     1       5.241   6.734  16.521  0.00  0.00    +0.000 C 
BRANCH  21  22
ATOM     22  C   UNL     1       6.392   6.104  17.249  0.00  0.00    +0.000 A 
ATOM     23  C   UNL     1       7.218   6.561  18.265  0.00  0.00    +0.000 A 
ATOM     24  C   UNL     1       8.083   5.493  18.598  0.00  0.00    +0.000 A 
ATOM     25  C   UNL     1       7.748   4.459  17.759  0.00  0.00    +0.000 A 
ATOM     26  O   UNL     1       6.731   4.818  16.931  0.00  0.00    +0.000 OA
ENDBRANCH  21  22
ENDBRANCH   3  21
TORSDOF 4
ENDMDL
MODEL 6
REMARK VINA RESULT:      -7.9      3.262      6.039
REMARK  Name = 
REMARK  4 active torsions:
REMARK  status: ('A' for Active; 'I' for Inactive)
REMARK    1  A    between atoms: C_8  and  C_9
REMARK    2  A    between atoms: C_9  and  N_10
REMARK    3  A    between atoms: N_12  and  C_13
REMARK    4  A    between atoms: C_13  and  C_14
REMARK                            x       y       z     vdW  Elec       q    Type
REMARK                         _______ _______ _______ _____ _____    ______ ____
ROOT
ATOM      1  N   UNL     1       3.589   5.147  19.560  0.00  0.00    +0.000 N 
ATOM      2  C   UNL     1       2.467   5.787  20.071  0.00  0.00    +0.000 A 
ATOM      3  N   UNL     1       2.487   7.036  20.592  0.00  0.00    +0.000 N 
ATOM      4  N   UNL     1       1.395   5.057  19.886  0.00  0.00    +0.000 NA
ATOM      5  C   UNL     1       1.828   3.862  19.376  0.00  0.00    +0.000 A 
ATOM      6  C   UNL     1       1.088   2.718  19.043  0.00  0.00    +0.000 A 
ATOM      7  C   UNL     1       1.762   1.590  18.559  0.00  0.00    +0.000 A 
ATOM      8  C   UNL     1       3.148   1.603  18.407  0.00  0.00    +0.000 A 
ATOM      9  C   UNL     1       3.903   2.744  18.716  0.00  0.00    +0.000 A 
ATOM     10  C   UNL     1       3.207   3.867  19.192  0.00  0.00    +0.000 A 
ATOM     11  H   UNL     1       3.319   7.545  20.855  0.00  0.00    +0.000 HD
ENDROOT
BRANCH   1  12
ATOM     12  C   UNL     1       4.939   5.678  19.411  0.00  0.00    +0.000 C 
BRANCH  12  20
ATOM     13  F   UNL     1       3.833   6.910  17.132  0.00  0.00    +0.000 F 
ATOM     14  C   UNL     1       4.899   6.121  16.931  0.00  0.00    +0.000 A 
ATOM     15  C   UNL     1       5.310   5.884  15.618  0.00  0.00    +0.000 A 
ATOM     16  C   UNL     1       6.384   5.038  15.381  0.00  0.00    +0.000 A 
ATOM     17 CL   UNL     1       6.860   4.658  13.773  0.00  0.00    +0.000 Cl
ATOM     18  C   UNL     1       7.080   4.482  16.443  0.00  0.00    +0.000 A 
ATOM     19  C   UNL     1       6.682   4.763  17.752  0.00  0.00    +0.000 A 
ATOM     20  C   UNL     1       5.554   5.547  18.029  0.00  0.00    +0.000 A 
ENDBRANCH  12  20
ENDBRANCH   1  12
BRANCH   3  21
ATOM     21  C   UNL     1       1.285   7.863  20.433  0.00  0.00    +0.000 C 
BRANCH  21  22
ATOM     22  C   UNL     1       1.414   9.056  19.532  0.00  0.00    +0.000 A 
ATOM     23  C   UNL     1       1.893   9.205  18.240  0.00  0.00    +0.000 A 
ATOM     24  C   UNL     1       1.697  10.560  17.886  0.00  0.00    +0.000 A 
ATOM     25  C   UNL     1       1.128  11.159  18.983  0.00  0.00    +0.000 A 
ATOM     26  O   UNL     1       0.959  10.262  19.991  0.00  0.00    +0.000 OA
ENDBRANCH  21  22
ENDBRANCH   3  21
TORSDOF 4
ENDMDL
MODEL 7
REMARK VINA RESULT:      -7.8      3.553      6.879
REMARK  Name = 
REMARK  4 active torsions:
REMARK  status: ('A' for Active; 'I' for Inactive)
REMARK    1  A    between atoms: C_8  and  C_9
REMARK    2  A    between atoms: C_9  and  N_10
REMARK    3  A    between atoms: N_12  and  C_13
REMARK    4  A    between atoms: C_13  and  C_14
REMARK                            x       y       z     vdW  Elec       q    Type
REMARK                         _______ _______ _______ _____ _____    ______ ____
ROOT
ATOM      1  N   UNL     1       3.673   5.180  19.323  0.00  0.00    +0.000 N 
ATOM      2  C   UNL     1       2.620   5.961  19.782  0.00  0.00    +0.000 A 
ATOM      3  N   UNL     1       2.746   7.265  20.121  0.00  0.00    +0.000 N 
ATOM      4  N   UNL     1       1.497   5.288  19.744  0.00  0.00    +0.000 NA
ATOM      5  C   UNL     1       1.828   4.007  19.391  0.00  0.00    +0.000 A 
ATOM      6  C   UNL     1       1.001   2.883  19.252  0.00  0.00    +0.000 A 
ATOM      7  C   UNL     1       1.578   1.655  18.905  0.00  0.00    +0.000 A 
ATOM      8  C   UNL     1       2.952   1.550  18.698  0.00  0.00    +0.000 A 
ATOM      9  C   UNL     1       3.792   2.667  18.814  0.00  0.00    +0.000 A 
ATOM     10  C   UNL     1       3.194   3.891  19.154  0.00  0.00    +0.000 A 
ATOM     11  H   UNL     1       3.620   7.746  20.276  0.00  0.00    +0.000 HD
ENDROOT
BRANCH   1  12
ATOM     12  C   UNL     1       5.046   5.589  19.047  0.00  0.00    +0.000 C 
BRANCH  12  20
ATOM     13  F   UNL     1       7.613   4.544  18.543  0.00  0.00    +0.000 F 
ATOM     14  C   UNL     1       6.873   4.863  17.471  0.00  0.00    +0.000 A 
ATOM     15  C   UNL     1       7.457   4.757  16.208  0.00  0.00    +0.000 A 
ATOM     16  C   UNL     1       6.727   5.122  15.085  0.00  0.00    +0.000 A 
ATOM     17 CL   UNL     1       7.446   5.086  13.524  0.00  0.00    +0.000 Cl
ATOM     18  C   UNL     1       5.407   5.528  15.215  0.00  0.00    +0.000 A 
ATOM     19  C   UNL     1       4.824   5.586  16.483  0.00  0.00    +0.000 A 
ATOM     20  C   UNL     1       5.554   5.304  17.646  0.00  0.00    +0.000 A 
ENDBRANCH  12  20
ENDBRANCH   1  12
BRANCH   3  21
ATOM     21  C   UNL     1       1.592   8.144  19.894  0.00  0.00    +0.000 C 
BRANCH  21  22
ATOM     22  C   UNL     1       0.891   8.650  21.121  0.00  0.00    +0.000 A 
ATOM     23  C   UNL     1      -0.450   8.740  21.461  0.00  0.00    +0.000 A 
ATOM     24  C   UNL     1      -0.502   9.235  22.784  0.00  0.00    +0.000 A 
ATOM     25  C   UNL     1       0.802   9.434  23.165  0.00  0.00    +0.000 A 
ATOM     26  O   UNL     1       1.657   9.092  22.164  0.00  0.00    +0.000 OA
ENDBRANCH  21  22
ENDBRANCH   3  21
TORSDOF 4
ENDMDL
MODEL 8
REMARK VINA RESULT:      -7.7      3.264      6.507
REMARK  Name = 
REMARK  4 active torsions:
REMARK  status: ('A' for Active; 'I' for Inactive)
REMARK    1  A    between atoms: C_8  and  C_9
REMARK    2  A    between atoms: C_9  and  N_10
REMARK    3  A    between atoms: N_12  and  C_13
REMARK    4  A    between atoms: C_13  and  C_14
REMARK                            x       y       z     vdW  Elec       q    Type
REMARK                         _______ _______ _______ _____ _____    ______ ____
ROOT
ATOM      1  N   UNL     1       3.880   5.580  18.491  0.00  0.00    +0.000 N 
ATOM      2  C   UNL     1       2.825   6.481  18.560  0.00  0.00    +0.000 A 
ATOM      3  N   UNL     1       2.967   7.817  18.393  0.00  0.00    +0.000 N 
ATOM      4  N   UNL     1       1.688   5.849  18.710  0.00  0.00    +0.000 NA
ATOM      5  C   UNL     1       2.003   4.527  18.883  0.00  0.00    +0.000 A 
ATOM      6  C   UNL     1       1.155   3.436  19.125  0.00  0.00    +0.000 A 
ATOM      7  C   UNL     1       1.717   2.165  19.298  0.00  0.00    +0.000 A 
ATOM      8  C   UNL     1       3.097   1.985  19.228  0.00  0.00    +0.000 A 
ATOM      9  C   UNL     1       3.959   3.060  18.967  0.00  0.00    +0.000 A 
ATOM     10  C   UNL     1       3.376   4.324  18.788  0.00  0.00    +0.000 A 
ATOM     11  H   UNL     1       3.844   8.317  18.409  0.00  0.00    +0.000 HD
ENDROOT
BRANCH   1  12
ATOM     12  C   UNL     1       5.276   5.850  18.164  0.00  0.00    +0.000 C 
BRANCH  12  20
ATOM     13  F   UNL     1       4.586   7.172  15.774  0.00  0.00    +0.000 F 
ATOM     14  C   UNL     1       5.288   6.036  15.651  0.00  0.00    +0.000 A 
ATOM     15  C   UNL     1       5.530   5.542  14.368  0.00  0.00    +0.000 A 
ATOM     16  C   UNL     1       6.218   4.346  14.215  0.00  0.00    +0.000 A 
ATOM     17 CL   UNL     1       6.455   3.667  12.654  0.00  0.00    +0.000 Cl
ATOM     18  C   UNL     1       6.714   3.682  15.326  0.00  0.00    +0.000 A 
ATOM     19  C   UNL     1       6.501   4.213  16.601  0.00  0.00    +0.000 A 
ATOM     20  C   UNL     1       5.742   5.374  16.800  0.00  0.00    +0.000 A 
ENDBRANCH  12  20
ENDBRANCH   1  12
BRANCH   3  21
ATOM     21  C   UNL     1       1.851   8.552  17.786  0.00  0.00    +0.000 C 
BRANCH  21  22
ATOM     22  C   UNL     1       1.006   9.366  18.720  0.00  0.00    +0.000 A 
ATOM     23  C   UNL     1      -0.044  10.246  18.505  0.00  0.00    +0.000 A 
ATOM     24  C   UNL     1      -0.497  10.659  19.779  0.00  0.00    +0.000 A 
ATOM     25  C   UNL     1       0.309  10.024  20.692  0.00  0.00    +0.000 A 
ATOM     26  O   UNL     1       1.230   9.245  20.064  0.00  0.00    +0.000 OA
ENDBRANCH  21  22
ENDBRANCH   3  21
TORSDOF 4
ENDMDL
MODEL 9
REMARK VINA RESULT:      -7.7      1.816      2.252
REMARK  Name = 
REMARK  4 active torsions:
REMARK  status: ('A' for Active; 'I' for Inactive)
REMARK    1  A    between atoms: C_8  and  C_9
REMARK    2  A    between atoms: C_9  and  N_10
REMARK    3  A    between atoms: N_12  and  C_13
REMARK    4  A    between atoms: C_13  and  C_14
REMARK                            x       y       z     vdW  Elec       q    Type
REMARK                         _______ _______ _______ _____ _____    ______ ____
ROOT
ATOM      1  N   UNL     1       2.680   6.115  19.087  0.00  0.00    +0.000 N 
ATOM      2  C   UNL     1       3.262   5.984  17.832  0.00  0.00    +0.000 A 
ATOM      3  N   UNL     1       3.975   6.963  17.230  0.00  0.00    +0.000 N 
ATOM      4  N   UNL     1       3.103   4.766  17.376  0.00  0.00    +0.000 NA
ATOM      5  C   UNL     1       2.289   4.124  18.271  0.00  0.00    +0.000 A 
ATOM      6  C   UNL     1       1.778   2.818  18.228  0.00  0.00    +0.000 A 
ATOM      7  C   UNL     1       0.931   2.386  19.256  0.00  0.00    +0.000 A 
ATOM      8  C   UNL     1       0.601   3.240  20.308  0.00  0.00    +0.000 A 
ATOM      9  C   UNL     1       1.116   4.542  20.378  0.00  0.00    +0.000 A 
ATOM     10  C   UNL     1       1.971   4.952  19.342  0.00  0.00    +0.000 A 
ATOM     11  H   UNL     1       3.989   7.932  17.512  0.00  0.00    +0.000 HD
ENDROOT
BRANCH   1  12
ATOM     12  C   UNL     1       2.771   7.242  20.008  0.00  0.00    +0.000 C 
BRANCH  12  20
ATOM     13  F   UNL     1       2.216   9.042  17.913  0.00  0.00    +0.000 F 
ATOM     14  C   UNL     1       1.415   9.105  18.987  0.00  0.00    +0.000 A 
ATOM     15  C   UNL     1       0.449  10.111  19.035  0.00  0.00    +0.000 A 
ATOM     16  C   UNL     1      -0.364  10.225  20.154  0.00  0.00    +0.000 A 
ATOM     17 CL   UNL     1      -1.503  11.506  20.282  0.00  0.00    +0.000 Cl
ATOM     18  C   UNL     1      -0.258   9.306  21.188  0.00  0.00    +0.000 A 
ATOM     19  C   UNL     1       0.685   8.278  21.104  0.00  0.00    +0.000 A 
ATOM     20  C   UNL     1       1.577   8.180  20.028  0.00  0.00    +0.000 A 
ENDBRANCH  12  20
ENDBRANCH   1  12
BRANCH   3  21
ATOM     21  C   UNL     1       5.081   6.561  16.352  0.00  0.00    +0.000 C 
BRANCH  21  22
ATOM     22  C   UNL     1       6.199   5.797  16.999  0.00  0.00    +0.000 A 
ATOM     23  C   UNL     1       6.862   4.632  16.646  0.00  0.00    +0.000 A 
ATOM     24  C   UNL     1       7.879   4.434  17.608  0.00  0.00    +0.000 A 
ATOM     25  C   UNL     1       7.767   5.475  18.497  0.00  0.00    +0.000 A 
ATOM     26  O   UNL     1       6.747   6.304  18.145  0.00  0.00    +0.000 OA
ENDBRANCH  21  22
ENDBRANCH   3  21
TORSDOF 4
ENDMDL
