MODEL 1
REMARK VINA RESULT:      -8.7      0.000      0.000
REMARK  Name = 
REMARK  9 active torsions:
REMARK  status: ('A' for Active; 'I' for Inactive)
REMARK    1  A    between atoms: C_1  and  N_2
REMARK    2  A    between atoms: N_2  and  C_3
REMARK    3  A    between atoms: C_3  and  C_4
REMARK    4  A    between atoms: C_6  and  C_7
REMARK    5  A    between atoms: N_10  and  C_11
REMARK    6  A    between atoms: C_11  and  C_12
REMARK    7  A    between atoms: C_15  and  C_16
REMARK    8  A    between atoms: C_29  and  C_30
REMARK    9  A    between atoms: N_32  and  O_33
REMARK                            x       y       z     vdW  Elec       q    Type
REMARK                         _______ _______ _______ _____ _____    ______ ____
ROOT
ATOM      1  C   UNL     1       5.468   4.628  19.241  0.00  0.00    +0.000 A 
ATOM      2  N   UNL     1       4.383   5.368  19.160  0.00  0.00    +0.000 NA
ATOM      3  C   UNL     1       3.383   4.450  19.368  0.00  0.00    +0.000 A 
ATOM      4  N   UNL     1       3.816   3.209  19.630  0.00  0.00    +0.000 NA
ATOM      5  O   UNL     1       5.208   3.323  19.546  0.00  0.00    +0.000 OA
ENDROOT
BRANCH   3   6
ATOM      6  C   UNL     1       1.944   4.798  19.121  0.00  0.00    +0.000 C 
ATOM      7  C   UNL     1       1.781   6.047  18.246  0.00  0.00    +0.000 C 
ATOM      8  C   UNL     1       2.113   7.319  19.021  0.00  0.00    +0.000 C 
ATOM      9  N   UNL     1       1.297   7.463  20.241  0.00  0.00    +0.000 NA
ATOM     10  C   UNL     1       1.411   6.283  21.115  0.00  0.00    +0.000 C 
ATOM     11  C   UNL     1       1.100   4.976  20.384  0.00  0.00    +0.000 C 
BRANCH   9  12
ATOM     12  C   UNL     1       1.731   8.692  20.941  0.00  0.00    +0.000 C 
BRANCH  12  13
ATOM     13  C   UNL     1       0.614   9.575  21.457  0.00  0.00    +0.000 A 
ATOM     14  C   UNL     1       0.110   9.382  22.752  0.00  0.00    +0.000 A 
ATOM     15  C   UNL     1      -0.870  10.234  23.268  0.00  0.00    +0.000 A 
ATOM     16  C   UNL     1      -1.365  11.297  22.499  0.00  0.00    +0.000 A 
ATOM     17  C   UNL     1      -0.878  11.471  21.193  0.00  0.00    +0.000 A 
ATOM     18  C   UNL     1       0.101  10.618  20.677  0.00  0.00    +0.000 A 
BRANCH  16  19
ATOM     19  C   UNL     1      -2.386  12.253  23.060  0.00  0.00    +0.000 C 
ATOM     20  F   UNL     1      -1.839  13.369  23.621  0.00  0.00    +0.000 F 
ATOM     21  F   UNL     1      -3.250  12.706  22.108  0.00  0.00    +0.000 F 
ATOM     22  F   UNL     1      -3.159  11.690  24.029  0.00  0.00    +0.000 F 
ENDBRANCH  16  19
ENDBRANCH  12  13
ENDBRANCH   9  12
ENDBRANCH   3   6
BRANCH   1  23
ATOM     23  C   UNL     1       6.883   4.988  18.907  0.00  0.00    +0.000 C 
BRANCH  23  25
ATOM     24  C   UNL     1       7.981   7.033  17.893  0.00  0.00    +0.000 C 
ATOM     25  N   UNL     1       7.067   5.907  17.776  0.00  0.00    +0.000 N 
ATOM     26  C   UNL     1       6.966   5.342  16.513  0.00  0.00    +0.000 A 
ATOM     27  N   UNL     1       7.488   5.997  15.458  0.00  0.00    +0.000 NA
ATOM     28  C   UNL     1       7.364   5.438  14.233  0.00  0.00    +0.000 A 
ATOM     29  C   UNL     1       6.709   4.256  14.004  0.00  0.00    +0.000 A 
ATOM     30  C   UNL     1       6.210   3.651  15.133  0.00  0.00    +0.000 A 
ATOM     31  N   UNL     1       6.332   4.166  16.376  0.00  0.00    +0.000 NA
BRANCH  29  32
ATOM     32  C   UNL     1       6.551   3.628  12.687  0.00  0.00    +0.000 C 
ATOM     33  O   UNL     1       7.139   4.075  11.703  0.00  0.00    +0.000 OA
ATOM     34  N   UNL     1       5.757   2.506  12.609  0.00  0.00    +0.000 N 
ATOM     35  H   UNL     1       5.547   1.912  13.399  0.00  0.00    +0.000 HD
BRANCH  34  36
ATOM     36  O   UNL     1       5.758   1.851  11.357  0.00  0.00    +0.000 OA
ATOM     37  H   UNL     1       6.716   1.712  11.205  0.00  0.00    +0.000 HD
ENDBRANCH  34  36
ENDBRANCH  29  32
ENDBRANCH  23  25
ENDBRANCH   1  23
TORSDOF 8
ENDMDL
MODEL 2
REMARK VINA RESULT:      -8.3      0.408      1.096
REMARK  Name = 
REMARK  9 active torsions:
REMARK  status: ('A' for Active; 'I' for Inactive)
REMARK    1  A    between atoms: C_1  and  N_2
REMARK    2  A    between atoms: N_2  and  C_3
REMARK    3  A    between atoms: C_3  and  C_4
REMARK    4  A    between atoms: C_6  and  C_7
REMARK    5  A    between atoms: N_10  and  C_11
REMARK    6  A    between atoms: C_11  and  C_12
REMARK    7  A    between atoms: C_15  and  C_16
REMARK    8  A    between atoms: C_29  and  C_30
REMARK    9  A    between atoms: N_32  and  O_33
REMARK                            x       y       z     vdW  Elec       q    Type
REMARK                         _______ _______ _______ _____ _____    ______ ____
ROOT
ATOM      1  C   UNL     1       5.542   4.820  19.174  0.00  0.00    +0.000 A 
ATOM      2  N   UNL     1       4.462   5.567  19.105  0.00  0.00    +0.000 NA
ATOM      3  C   UNL     1       3.458   4.655  19.320  0.00  0.00    +0.000 A 
ATOM      4  N   UNL     1       3.884   3.410  19.575  0.00  0.00    +0.000 NA
ATOM      5  O   UNL     1       5.276   3.516  19.478  0.00  0.00    +0.000 OA
ENDROOT
BRANCH   3   6
ATOM      6  C   UNL     1       2.018   5.013  19.089  0.00  0.00    +0.000 C 
ATOM      7  C   UNL     1       1.851   6.387  18.428  0.00  0.00    +0.000 C 
ATOM      8  C   UNL     1       2.132   7.518  19.414  0.00  0.00    +0.000 C 
ATOM      9  N   UNL     1       1.278   7.442  20.614  0.00  0.00    +0.000 NA
ATOM     10  C   UNL     1       1.394   6.136  21.284  0.00  0.00    +0.000 C 
ATOM     11  C   UNL     1       1.134   4.964  20.336  0.00  0.00    +0.000 C 
BRANCH   9  12
ATOM     12  C   UNL     1       1.663   8.545  21.522  0.00  0.00    +0.000 C 
BRANCH  12  13
ATOM     13  C   UNL     1       0.601   9.600  21.751  0.00  0.00    +0.000 A 
ATOM     14  C   UNL     1       0.220  10.450  20.702  0.00  0.00    +0.000 A 
ATOM     15  C   UNL     1      -0.809  11.379  20.877  0.00  0.00    +0.000 A 
ATOM     16  C   UNL     1      -1.476  11.477  22.106  0.00  0.00    +0.000 A 
ATOM     17  C   UNL     1      -1.075  10.644  23.163  0.00  0.00    +0.000 A 
ATOM     18  C   UNL     1      -0.046   9.716  22.987  0.00  0.00    +0.000 A 
BRANCH  16  19
ATOM     19  C   UNL     1      -2.620  12.441  22.295  0.00  0.00    +0.000 C 
ATOM     20  F   UNL     1      -3.534  12.030  23.220  0.00  0.00    +0.000 F 
ATOM     21  F   UNL     1      -2.200  13.668  22.713  0.00  0.00    +0.000 F 
ATOM     22  F   UNL     1      -3.322  12.657  21.149  0.00  0.00    +0.000 F 
ENDBRANCH  16  19
ENDBRANCH  12  13
ENDBRANCH   9  12
ENDBRANCH   3   6
BRANCH   1  23
ATOM     23  C   UNL     1       6.956   5.171  18.826  0.00  0.00    +0.000 C 
BRANCH  23  25
ATOM     24  C   UNL     1       8.061   7.174  17.738  0.00  0.00    +0.000 C 
ATOM     25  N   UNL     1       7.138   6.051  17.664  0.00  0.00    +0.000 N 
ATOM     26  C   UNL     1       7.021   5.447  16.422  0.00  0.00    +0.000 A 
ATOM     27  N   UNL     1       7.539   6.063  15.342  0.00  0.00    +0.000 NA
ATOM     28  C   UNL     1       7.401   5.465  14.136  0.00  0.00    +0.000 A 
ATOM     29  C   UNL     1       6.737   4.281  13.951  0.00  0.00    +0.000 A 
ATOM     30  C   UNL     1       6.242   3.717  15.104  0.00  0.00    +0.000 A 
ATOM     31  N   UNL     1       6.378   4.272  16.328  0.00  0.00    +0.000 NA
BRANCH  29  32
ATOM     32  C   UNL     1       6.563   3.612  12.656  0.00  0.00    +0.000 C 
ATOM     33  O   UNL     1       7.118   4.043  11.648  0.00  0.00    +0.000 OA
ATOM     34  N   UNL     1       5.793   2.471  12.629  0.00  0.00    +0.000 N 
ATOM     35  H   UNL     1       5.614   1.896  13.440  0.00  0.00    +0.000 HD
BRANCH  34  36
ATOM     36  O   UNL     1       5.780   1.780  11.397  0.00  0.00    +0.000 OA
ATOM     37  H   UNL     1       4.928   2.075  11.011  0.00  0.00    +0.000 HD
ENDBRANCH  34  36
ENDBRANCH  29  32
ENDBRANCH  23  25
ENDBRANCH   1  23
TORSDOF 8
ENDMDL
MODEL 3
REMARK VINA RESULT:      -8.3      5.606     10.592
REMARK  Name = 
REMARK  9 active torsions:
REMARK  status: ('A' for Active; 'I' for Inactive)
REMARK    1  A    between atoms: C_1  and  N_2
REMARK    2  A    between atoms: N_2  and  C_3
REMARK    3  A    between atoms: C_3  and  C_4
REMARK    4  A    between atoms: C_6  and  C_7
REMARK    5  A    between atoms: N_10  and  C_11
REMARK    6  A    between atoms: C_11  and  C_12
REMARK    7  A    between atoms: C_15  and  C_16
REMARK    8  A    between atoms: C_29  and  C_30
REMARK    9  A    between atoms: N_32  and  O_33
REMARK                            x       y       z     vdW  Elec       q    Type
REMARK                         _______ _______ _______ _____ _____    ______ ____
ROOT
ATOM      1  C   UNL     1       1.674   7.441  20.844  0.00  0.00    +0.000 A 
ATOM      2  N   UNL     1       1.361   6.173  20.999  0.00  0.00    +0.000 NA
ATOM      3  C   UNL     1       1.947   5.588  19.903  0.00  0.00    +0.000 A 
ATOM      4  N   UNL     1       2.646   6.433  19.131  0.00  0.00    +0.000 NA
ATOM      5  O   UNL     1       2.466   7.672  19.756  0.00  0.00    +0.000 OA
ENDROOT
BRANCH   3   6
ATOM      6  C   UNL     1       1.647   4.167  19.525  0.00  0.00    +0.000 C 
ATOM      7  C   UNL     1       2.748   3.195  19.966  0.00  0.00    +0.000 C 
ATOM      8  C   UNL     1       3.992   3.325  19.091  0.00  0.00    +0.000 C 
ATOM      9  N   UNL     1       3.697   3.118  17.662  0.00  0.00    +0.000 NA
ATOM     10  C   UNL     1       2.637   4.023  17.186  0.00  0.00    +0.000 C 
ATOM     11  C   UNL     1       1.369   3.942  18.038  0.00  0.00    +0.000 C 
BRANCH   9  12
ATOM     12  C   UNL     1       4.950   3.316  16.901  0.00  0.00    +0.000 C 
BRANCH  12  13
ATOM     13  C   UNL     1       5.692   4.603  17.193  0.00  0.00    +0.000 A 
ATOM     14  C   UNL     1       6.888   4.572  17.924  0.00  0.00    +0.000 A 
ATOM     15  C   UNL     1       7.621   5.741  18.139  0.00  0.00    +0.000 A 
ATOM     16  C   UNL     1       7.172   6.967  17.627  0.00  0.00    +0.000 A 
ATOM     17  C   UNL     1       5.961   7.000  16.918  0.00  0.00    +0.000 A 
ATOM     18  C   UNL     1       5.228   5.830  16.704  0.00  0.00    +0.000 A 
BRANCH  16  19
ATOM     19  C   UNL     1       7.977   8.228  17.809  0.00  0.00    +0.000 C 
ATOM     20  F   UNL     1       8.782   8.209  18.909  0.00  0.00    +0.000 F 
ATOM     21  F   UNL     1       8.802   8.474  16.753  0.00  0.00    +0.000 F 
ATOM     22  F   UNL     1       7.197   9.337  17.938  0.00  0.00    +0.000 F 
ENDBRANCH  16  19
ENDBRANCH  12  13
ENDBRANCH   9  12
ENDBRANCH   3   6
BRANCH   1  23
ATOM     23  C   UNL     1       1.168   8.636  21.592  0.00  0.00    +0.000 C 
BRANCH  23  25
ATOM     24  C   UNL     1       0.520   9.581  19.333  0.00  0.00    +0.000 C 
ATOM     25  N   UNL     1       0.646   9.739  20.775  0.00  0.00    +0.000 N 
ATOM     26  C   UNL     1      -0.310  10.542  21.380  0.00  0.00    +0.000 A 
ATOM     27  N   UNL     1      -1.105  11.308  20.608  0.00  0.00    +0.000 NA
ATOM     28  C   UNL     1      -2.019  12.097  21.217  0.00  0.00    +0.000 A 
ATOM     29  C   UNL     1      -2.159  12.180  22.578  0.00  0.00    +0.000 A 
ATOM     30  C   UNL     1      -1.313  11.363  23.291  0.00  0.00    +0.000 A 
ATOM     31  N   UNL     1      -0.402  10.546  22.719  0.00  0.00    +0.000 NA
BRANCH  29  32
ATOM     32  C   UNL     1      -3.136  13.031  23.269  0.00  0.00    +0.000 C 
ATOM     33  O   UNL     1      -3.031  14.256  23.241  0.00  0.00    +0.000 OA
ATOM     34  N   UNL     1      -4.183  12.407  23.909  0.00  0.00    +0.000 N 
ATOM     35  H   UNL     1      -4.506  11.478  23.679  0.00  0.00    +0.000 HD
BRANCH  34  36
ATOM     36  O   UNL     1      -5.175  13.270  24.427  0.00  0.00    +0.000 OA
ATOM     37  H   UNL     1      -5.927  12.654  24.557  0.00  0.00    +0.000 HD
ENDBRANCH  34  36
ENDBRANCH  29  32
ENDBRANCH  23  25
ENDBRANCH   1  23
TORSDOF 8
ENDMDL
MODEL 4
REMARK VINA RESULT:      -8.1      2.297      4.234
REMARK  Name = 
REMARK  9 active torsions:
REMARK  status: ('A' for Active; 'I' for Inactive)
REMARK    1  A    between atoms: C_1  and  N_2
REMARK    2  A    between atoms: N_2  and  C_3
REMARK    3  A    between atoms: C_3  and  C_4
REMARK    4  A    between atoms: C_6  and  C_7
REMARK    5  A    between atoms: N_10  and  C_11
REMARK    6  A    between atoms: C_11  and  C_12
REMARK    7  A    between atoms: C_15  and  C_16
REMARK    8  A    between atoms: C_29  and  C_30
REMARK    9  A    between atoms: N_32  and  O_33
REMARK                            x       y       z     vdW  Elec       q    Type
REMARK                         _______ _______ _______ _____ _____    ______ ____
ROOT
ATOM      1  C   UNL     1       2.232   6.884  20.125  0.00  0.00    +0.000 A 
ATOM      2  N   UNL     1       2.286   7.526  18.978  0.00  0.00    +0.000 NA
ATOM      3  C   UNL     1       1.464   8.603  19.203  0.00  0.00    +0.000 A 
ATOM      4  N   UNL     1       0.967   8.672  20.446  0.00  0.00    +0.000 NA
ATOM      5  O   UNL     1       1.478   7.525  21.066  0.00  0.00    +0.000 OA
ENDROOT
BRANCH   3   6
ATOM      6  C   UNL     1       1.023   9.494  18.078  0.00  0.00    +0.000 C 
ATOM      7  C   UNL     1       1.982  10.669  17.847  0.00  0.00    +0.000 C 
ATOM      8  C   UNL     1       1.844  11.725  18.941  0.00  0.00    +0.000 C 
ATOM      9  N   UNL     1       0.465  12.232  19.062  0.00  0.00    +0.000 NA
ATOM     10  C   UNL     1      -0.500  11.141  19.277  0.00  0.00    +0.000 C 
ATOM     11  C   UNL     1      -0.397  10.046  18.214  0.00  0.00    +0.000 C 
BRANCH   9  12
ATOM     12  C   UNL     1       0.430  13.205  20.176  0.00  0.00    +0.000 C 
BRANCH  12  13
ATOM     13  C   UNL     1      -0.742  13.065  21.125  0.00  0.00    +0.000 A 
ATOM     14  C   UNL     1      -0.713  12.094  22.136  0.00  0.00    +0.000 A 
ATOM     15  C   UNL     1      -1.753  12.001  23.064  0.00  0.00    +0.000 A 
ATOM     16  C   UNL     1      -2.845  12.877  22.997  0.00  0.00    +0.000 A 
ATOM     17  C   UNL     1      -2.886  13.831  21.968  0.00  0.00    +0.000 A 
ATOM     18  C   UNL     1      -1.845  13.923  21.040  0.00  0.00    +0.000 A 
BRANCH  16  19
ATOM     19  C   UNL     1      -3.951  12.820  24.020  0.00  0.00    +0.000 C 
ATOM     20  F   UNL     1      -4.020  11.632  24.685  0.00  0.00    +0.000 F 
ATOM     21  F   UNL     1      -3.816  13.775  24.983  0.00  0.00    +0.000 F 
ATOM     22  F   UNL     1      -5.184  13.013  23.474  0.00  0.00    +0.000 F 
ENDBRANCH  16  19
ENDBRANCH  12  13
ENDBRANCH   9  12
ENDBRANCH   3   6
BRANCH   1  23
ATOM     23  C   UNL     1       2.747   5.521  20.468  0.00  0.00    +0.000 C 
BRANCH  23  25
ATOM     24  C   UNL     1       1.251   4.008  19.094  0.00  0.00    +0.000 C 
ATOM     25  N   UNL     1       2.582   4.487  19.438  0.00  0.00    +0.000 N 
ATOM     26  C   UNL     1       3.500   4.514  18.399  0.00  0.00    +0.000 A 
ATOM     27  N   UNL     1       3.207   3.879  17.248  0.00  0.00    +0.000 NA
ATOM     28  C   UNL     1       4.122   3.902  16.253  0.00  0.00    +0.000 A 
ATOM     29  C   UNL     1       5.344   4.513  16.364  0.00  0.00    +0.000 A 
ATOM     30  C   UNL     1       5.562   5.140  17.568  0.00  0.00    +0.000 A 
ATOM     31  N   UNL     1       4.665   5.158  18.577  0.00  0.00    +0.000 NA
BRANCH  29  32
ATOM     32  C   UNL     1       6.362   4.549  15.306  0.00  0.00    +0.000 C 
ATOM     33  O   UNL     1       6.364   3.709  14.408  0.00  0.00    +0.000 OA
ATOM     34  N   UNL     1       7.278   5.576  15.340  0.00  0.00    +0.000 N 
ATOM     35  H   UNL     1       7.120   6.452  15.818  0.00  0.00    +0.000 HD
BRANCH  34  36
ATOM     36  O   UNL     1       8.138   5.656  14.222  0.00  0.00    +0.000 OA
ATOM     37  H   UNL     1       8.087   6.610  13.999  0.00  0.00    +0.000 HD
ENDBRANCH  34  36
ENDBRANCH  29  32
ENDBRANCH  23  25
ENDBRANCH   1  23
TORSDOF 8
ENDMDL
MODEL 5
REMARK VINA RESULT:      -8.1      2.140      3.808
REMARK  Name = 
REMARK  9 active torsions:
REMARK  status: ('A' for Active; 'I' for Inactive)
REMARK    1  A    between atoms: C_1  and  N_2
REMARK    2  A    between atoms: N_2  and  C_3
REMARK    3  A    between atoms: C_3  and  C_4
REMARK    4  A    between atoms: C_6  and  C_7
REMARK    5  A    between atoms: N_10  and  C_11
REMARK    6  A    between atoms: C_11  and  C_12
REMARK    7  A    between atoms: C_15  and  C_16
REMARK    8  A    between atoms: C_29  and  C_30
REMARK    9  A    between atoms: N_32  and  O_33
REMARK                            x       y       z     vdW  Elec       q    Type
REMARK                         _______ _______ _______ _____ _____    ______ ____
ROOT
ATOM      1  C   UNL     1       2.968   6.743  19.496  0.00  0.00    +0.000 A 
ATOM      2  N   UNL     1       2.894   7.628  18.526  0.00  0.00    +0.000 NA
ATOM      3  C   UNL     1       1.848   8.422  18.930  0.00  0.00    +0.000 A 
ATOM      4  N   UNL     1       1.331   8.093  20.122  0.00  0.00    +0.000 NA
ATOM      5  O   UNL     1       2.076   6.972  20.504  0.00  0.00    +0.000 OA
ENDROOT
BRANCH   3   6
ATOM      6  C   UNL     1       1.236   9.433  18.005  0.00  0.00    +0.000 C 
ATOM      7  C   UNL     1       2.044  10.735  17.938  0.00  0.00    +0.000 C 
ATOM      8  C   UNL     1       1.871  11.565  19.207  0.00  0.00    +0.000 C 
ATOM      9  N   UNL     1       0.458  11.878  19.486  0.00  0.00    +0.000 NA
ATOM     10  C   UNL     1      -0.367  10.660  19.553  0.00  0.00    +0.000 C 
ATOM     11  C   UNL     1      -0.222   9.782  18.308  0.00  0.00    +0.000 C 
BRANCH   9  12
ATOM     12  C   UNL     1       0.396  12.636  20.755  0.00  0.00    +0.000 C 
BRANCH  12  13
ATOM     13  C   UNL     1      -0.959  12.665  21.431  0.00  0.00    +0.000 A 
ATOM     14  C   UNL     1      -1.154  11.981  22.640  0.00  0.00    +0.000 A 
ATOM     15  C   UNL     1      -2.376  12.058  23.311  0.00  0.00    +0.000 A 
ATOM     16  C   UNL     1      -3.429  12.821  22.786  0.00  0.00    +0.000 A 
ATOM     17  C   UNL     1      -3.240  13.482  21.562  0.00  0.00    +0.000 A 
ATOM     18  C   UNL     1      -2.018  13.404  20.891  0.00  0.00    +0.000 A 
BRANCH  16  19
ATOM     19  C   UNL     1      -4.737  12.952  23.523  0.00  0.00    +0.000 C 
ATOM     20  F   UNL     1      -5.825  12.621  22.771  0.00  0.00    +0.000 F 
ATOM     21  F   UNL     1      -4.794  12.152  24.625  0.00  0.00    +0.000 F 
ATOM     22  F   UNL     1      -4.965  14.218  23.970  0.00  0.00    +0.000 F 
ENDBRANCH  16  19
ENDBRANCH  12  13
ENDBRANCH   9  12
ENDBRANCH   3   6
BRANCH   1  23
ATOM     23  C   UNL     1       3.770   5.480  19.561  0.00  0.00    +0.000 C 
BRANCH  23  25
ATOM     24  C   UNL     1       2.183   4.036  18.214  0.00  0.00    +0.000 C 
ATOM     25  N   UNL     1       3.533   4.506  18.487  0.00  0.00    +0.000 N 
ATOM     26  C   UNL     1       4.372   4.600  17.387  0.00  0.00    +0.000 A 
ATOM     27  N   UNL     1       3.998   4.030  16.226  0.00  0.00    +0.000 NA
ATOM     28  C   UNL     1       4.837   4.117  15.169  0.00  0.00    +0.000 A 
ATOM     29  C   UNL     1       6.062   4.730  15.226  0.00  0.00    +0.000 A 
ATOM     30  C   UNL     1       6.366   5.289  16.445  0.00  0.00    +0.000 A 
ATOM     31  N   UNL     1       5.545   5.241  17.517  0.00  0.00    +0.000 NA
BRANCH  29  32
ATOM     32  C   UNL     1       6.999   4.835  14.101  0.00  0.00    +0.000 C 
ATOM     33  O   UNL     1       6.824   4.181  13.074  0.00  0.00    +0.000 OA
ATOM     34  N   UNL     1       8.048   5.718  14.227  0.00  0.00    +0.000 N 
ATOM     35  H   UNL     1       8.046   6.503  14.863  0.00  0.00    +0.000 HD
BRANCH  34  36
ATOM     36  O   UNL     1       8.831   5.896  13.065  0.00  0.00    +0.000 OA
ATOM     37  H   UNL     1       8.651   6.835  12.845  0.00  0.00    +0.000 HD
ENDBRANCH  34  36
ENDBRANCH  29  32
ENDBRANCH  23  25
ENDBRANCH   1  23
TORSDOF 8
ENDMDL
MODEL 6
REMARK VINA RESULT:      -8.0      5.576     10.607
REMARK  Name = 
REMARK  9 active torsions:
REMARK  status: ('A' for Active; 'I' for Inactive)
REMARK    1  A    between atoms: C_1  and  N_2
REMARK    2  A    between atoms: N_2  and  C_3
REMARK    3  A    between atoms: C_3  and  C_4
REMARK    4  A    between atoms: C_6  and  C_7
REMARK    5  A    between atoms: N_10  and  C_11
REMARK    6  A    between atoms: C_11  and  C_12
REMARK    7  A    between atoms: C_15  and  C_16
REMARK    8  A    between atoms: C_29  and  C_30
REMARK    9  A    between atoms: N_32  and  O_33
REMARK                            x       y       z     vdW  Elec       q    Type
REMARK                         _______ _______ _______ _____ _____    ______ ____
ROOT
ATOM      1  C   UNL     1       1.867   7.627  20.572  0.00  0.00    +0.000 A 
ATOM      2  N   UNL     1       1.685   6.360  20.874  0.00  0.00    +0.000 NA
ATOM      3  C   UNL     1       2.067   5.723  19.719  0.00  0.00    +0.000 A 
ATOM      4  N   UNL     1       2.526   6.541  18.760  0.00  0.00    +0.000 NA
ATOM      5  O   UNL     1       2.393   7.814  19.326  0.00  0.00    +0.000 OA
ENDROOT
BRANCH   3   6
ATOM      6  C   UNL     1       1.797   4.262  19.509  0.00  0.00    +0.000 C 
ATOM      7  C   UNL     1       2.970   3.376  19.947  0.00  0.00    +0.000 C 
ATOM      8  C   UNL     1       4.131   3.459  18.959  0.00  0.00    +0.000 C 
ATOM      9  N   UNL     1       3.729   3.099  17.588  0.00  0.00    +0.000 NA
ATOM     10  C   UNL     1       2.596   3.915  17.119  0.00  0.00    +0.000 C 
ATOM     11  C   UNL     1       1.407   3.878  18.080  0.00  0.00    +0.000 C 
BRANCH   9  12
ATOM     12  C   UNL     1       4.906   3.261  16.706  0.00  0.00    +0.000 C 
BRANCH  12  13
ATOM     13  C   UNL     1       5.726   4.512  16.939  0.00  0.00    +0.000 A 
ATOM     14  C   UNL     1       5.316   5.732  16.381  0.00  0.00    +0.000 A 
ATOM     15  C   UNL     1       6.022   6.908  16.646  0.00  0.00    +0.000 A 
ATOM     16  C   UNL     1       7.153   6.887  17.475  0.00  0.00    +0.000 A 
ATOM     17  C   UNL     1       7.577   5.660  18.010  0.00  0.00    +0.000 A 
ATOM     18  C   UNL     1       6.871   4.484  17.743  0.00  0.00    +0.000 A 
BRANCH  16  19
ATOM     19  C   UNL     1       7.896   8.155  17.809  0.00  0.00    +0.000 C 
ATOM     20  F   UNL     1       7.078   9.209  18.091  0.00  0.00    +0.000 F 
ATOM     21  F   UNL     1       8.702   8.012  18.899  0.00  0.00    +0.000 F 
ATOM     22  F   UNL     1       8.707   8.573  16.798  0.00  0.00    +0.000 F 
ENDBRANCH  16  19
ENDBRANCH  12  13
ENDBRANCH   9  12
ENDBRANCH   3   6
BRANCH   1  23
ATOM     23  C   UNL     1       1.445   8.847  21.331  0.00  0.00    +0.000 C 
BRANCH  23  25
ATOM     24  C   UNL     1       0.659   9.764  19.104  0.00  0.00    +0.000 C 
ATOM     25  N   UNL     1       0.804   9.910  20.545  0.00  0.00    +0.000 N 
ATOM     26  C   UNL     1      -0.207  10.611  21.185  0.00  0.00    +0.000 A 
ATOM     27  N   UNL     1      -1.087  11.313  20.446  0.00  0.00    +0.000 NA
ATOM     28  C   UNL     1      -2.056  12.004  21.089  0.00  0.00    +0.000 A 
ATOM     29  C   UNL     1      -2.171  12.052  22.454  0.00  0.00    +0.000 A 
ATOM     30  C   UNL     1      -1.237  11.306  23.133  0.00  0.00    +0.000 A 
ATOM     31  N   UNL     1      -0.268  10.585  22.526  0.00  0.00    +0.000 NA
BRANCH  29  32
ATOM     32  C   UNL     1      -3.205  12.797  23.181  0.00  0.00    +0.000 C 
ATOM     33  O   UNL     1      -3.999  12.215  23.917  0.00  0.00    +0.000 OA
ATOM     34  N   UNL     1      -3.222  14.166  23.035  0.00  0.00    +0.000 N 
ATOM     35  H   UNL     1      -2.421  14.709  22.746  0.00  0.00    +0.000 HD
BRANCH  34  36
ATOM     36  O   UNL     1      -4.134  14.851  23.870  0.00  0.00    +0.000 OA
ATOM     37  H   UNL     1      -3.840  15.781  23.765  0.00  0.00    +0.000 HD
ENDBRANCH  34  36
ENDBRANCH  29  32
ENDBRANCH  23  25
ENDBRANCH   1  23
TORSDOF 8
ENDMDL
MODEL 7
REMARK VINA RESULT:      -7.9      6.447     10.482
REMARK  Name = 
REMARK  9 active torsions:
REMARK  status: ('A' for Active; 'I' for Inactive)
REMARK    1  A    between atoms: C_1  and  N_2
REMARK    2  A    between atoms: N_2  and  C_3
REMARK    3  A    between atoms: C_3  and  C_4
REMARK    4  A    between atoms: C_6  and  C_7
REMARK    5  A    between atoms: N_10  and  C_11
REMARK    6  A    between atoms: C_11  and  C_12
REMARK    7  A    between atoms: C_15  and  C_16
REMARK    8  A    between atoms: C_29  and  C_30
REMARK    9  A    between atoms: N_32  and  O_33
REMARK                            x       y       z     vdW  Elec       q    Type
REMARK                         _______ _______ _______ _____ _____    ______ ____
ROOT
ATOM      1  C   UNL     1       1.239   8.766  20.697  0.00  0.00    +0.000 A 
ATOM      2  N   UNL     1       1.326   7.490  21.005  0.00  0.00    +0.000 NA
ATOM      3  C   UNL     1       1.903   6.954  19.880  0.00  0.00    +0.000 A 
ATOM      4  N   UNL     1       2.221   7.853  18.937  0.00  0.00    +0.000 NA
ATOM      5  O   UNL     1       1.779   9.065  19.479  0.00  0.00    +0.000 OA
ENDROOT
BRANCH   3   6
ATOM      6  C   UNL     1       1.975   5.469  19.674  0.00  0.00    +0.000 C 
ATOM      7  C   UNL     1       3.160   4.829  20.408  0.00  0.00    +0.000 C 
ATOM      8  C   UNL     1       4.482   5.143  19.713  0.00  0.00    +0.000 C 
ATOM      9  N   UNL     1       4.490   4.717  18.301  0.00  0.00    +0.000 NA
ATOM     10  C   UNL     1       3.364   5.297  17.550  0.00  0.00    +0.000 C 
ATOM     11  C   UNL     1       2.012   5.023  18.211  0.00  0.00    +0.000 C 
BRANCH   9  12
ATOM     12  C   UNL     1       5.787   5.111  17.710  0.00  0.00    +0.000 C 
BRANCH  12  13
ATOM     13  C   UNL     1       5.952   4.801  16.236  0.00  0.00    +0.000 A 
ATOM     14  C   UNL     1       6.989   5.397  15.506  0.00  0.00    +0.000 A 
ATOM     15  C   UNL     1       7.198   5.066  14.165  0.00  0.00    +0.000 A 
ATOM     16  C   UNL     1       6.371   4.131  13.527  0.00  0.00    +0.000 A 
ATOM     17  C   UNL     1       5.316   3.554  14.253  0.00  0.00    +0.000 A 
ATOM     18  C   UNL     1       5.108   3.887  15.594  0.00  0.00    +0.000 A 
BRANCH  16  19
ATOM     19  C   UNL     1       6.614   3.727  12.096  0.00  0.00    +0.000 C 
ATOM     20  F   UNL     1       7.149   2.480  11.962  0.00  0.00    +0.000 F 
ATOM     21  F   UNL     1       5.468   3.718  11.358  0.00  0.00    +0.000 F 
ATOM     22  F   UNL     1       7.467   4.569  11.449  0.00  0.00    +0.000 F 
ENDBRANCH  16  19
ENDBRANCH  12  13
ENDBRANCH   9  12
ENDBRANCH   3   6
BRANCH   1  23
ATOM     23  C   UNL     1       0.516   9.863  21.417  0.00  0.00    +0.000 C 
BRANCH  23  25
ATOM     24  C   UNL     1       1.481  12.060  20.605  0.00  0.00    +0.000 C 
ATOM     25  N   UNL     1       0.366  11.128  20.686  0.00  0.00    +0.000 N 
ATOM     26  C   UNL     1      -0.473  11.095  19.583  0.00  0.00    +0.000 A 
ATOM     27  N   UNL     1      -0.373  12.065  18.654  0.00  0.00    +0.000 NA
ATOM     28  C   UNL     1      -1.211  12.025  17.593  0.00  0.00    +0.000 A 
ATOM     29  C   UNL     1      -2.178  11.067  17.429  0.00  0.00    +0.000 A 
ATOM     30  C   UNL     1      -2.210  10.113  18.419  0.00  0.00    +0.000 A 
ATOM     31  N   UNL     1      -1.376  10.106  19.482  0.00  0.00    +0.000 NA
BRANCH  29  32
ATOM     32  C   UNL     1      -3.107  11.000  16.295  0.00  0.00    +0.000 C 
ATOM     33  O   UNL     1      -4.212  11.536  16.357  0.00  0.00    +0.000 OA
ATOM     34  N   UNL     1      -2.677  10.354  15.158  0.00  0.00    +0.000 N 
ATOM     35  H   UNL     1      -1.704  10.213  14.928  0.00  0.00    +0.000 HD
BRANCH  34  36
ATOM     36  O   UNL     1      -3.543  10.448  14.045  0.00  0.00    +0.000 OA
ATOM     37  H   UNL     1      -2.986  10.080  13.327  0.00  0.00    +0.000 HD
ENDBRANCH  34  36
ENDBRANCH  29  32
ENDBRANCH  23  25
ENDBRANCH   1  23
TORSDOF 8
ENDMDL
MODEL 8
REMARK VINA RESULT:      -7.9      6.595     11.728
REMARK  Name = 
REMARK  9 active torsions:
REMARK  status: ('A' for Active; 'I' for Inactive)
REMARK    1  A    between atoms: C_1  and  N_2
REMARK    2  A    between atoms: N_2  and  C_3
REMARK    3  A    between atoms: C_3  and  C_4
REMARK    4  A    between atoms: C_6  and  C_7
REMARK    5  A    between atoms: N_10  and  C_11
REMARK    6  A    between atoms: C_11  and  C_12
REMARK    7  A    between atoms: C_15  and  C_16
REMARK    8  A    between atoms: C_29  and  C_30
REMARK    9  A    between atoms: N_32  and  O_33
REMARK                            x       y       z     vdW  Elec       q    Type
REMARK                         _______ _______ _______ _____ _____    ______ ____
ROOT
ATOM      1  C   UNL     1       1.462   9.319  18.747  0.00  0.00    +0.000 A 
ATOM      2  N   UNL     1       1.353   8.204  19.437  0.00  0.00    +0.000 NA
ATOM      3  C   UNL     1       2.235   7.370  18.794  0.00  0.00    +0.000 A 
ATOM      4  N   UNL     1       2.911   7.947  17.790  0.00  0.00    +0.000 NA
ATOM      5  O   UNL     1       2.398   9.248  17.755  0.00  0.00    +0.000 OA
ENDROOT
BRANCH   3   6
ATOM      6  C   UNL     1       2.269   5.898  19.086  0.00  0.00    +0.000 C 
ATOM      7  C   UNL     1       3.357   5.523  20.099  0.00  0.00    +0.000 C 
ATOM      8  C   UNL     1       4.748   5.587  19.474  0.00  0.00    +0.000 C 
ATOM      9  N   UNL     1       4.868   4.726  18.283  0.00  0.00    +0.000 NA
ATOM     10  C   UNL     1       3.838   5.039  17.278  0.00  0.00    +0.000 C 
ATOM     11  C   UNL     1       2.422   5.002  17.855  0.00  0.00    +0.000 C 
BRANCH   9  12
ATOM     12  C   UNL     1       6.228   4.898  17.727  0.00  0.00    +0.000 C 
BRANCH  12  13
ATOM     13  C   UNL     1       6.378   4.560  16.258  0.00  0.00    +0.000 A 
ATOM     14  C   UNL     1       5.584   3.557  15.685  0.00  0.00    +0.000 A 
ATOM     15  C   UNL     1       5.659   3.283  14.318  0.00  0.00    +0.000 A 
ATOM     16  C   UNL     1       6.532   4.009  13.495  0.00  0.00    +0.000 A 
ATOM     17  C   UNL     1       7.346   4.995  14.075  0.00  0.00    +0.000 A 
ATOM     18  C   UNL     1       7.270   5.267  15.443  0.00  0.00    +0.000 A 
BRANCH  16  19
ATOM     19  C   UNL     1       6.589   3.759  12.010  0.00  0.00    +0.000 C 
ATOM     20  F   UNL     1       7.187   2.580  11.676  0.00  0.00    +0.000 F 
ATOM     21  F   UNL     1       5.350   3.717  11.443  0.00  0.00    +0.000 F 
ATOM     22  F   UNL     1       7.274   4.726  11.338  0.00  0.00    +0.000 F 
ENDBRANCH  16  19
ENDBRANCH  12  13
ENDBRANCH   9  12
ENDBRANCH   3   6
BRANCH   1  23
ATOM     23  C   UNL     1       0.618  10.554  18.810  0.00  0.00    +0.000 C 
BRANCH  23  25
ATOM     24  C   UNL     1       1.973  12.644  19.271  0.00  0.00    +0.000 C 
ATOM     25  N   UNL     1       1.070  11.601  19.735  0.00  0.00    +0.000 N 
ATOM     26  C   UNL     1       0.162  11.981  20.712  0.00  0.00    +0.000 A 
ATOM     27  N   UNL     1       0.328  13.162  21.338  0.00  0.00    +0.000 NA
ATOM     28  C   UNL     1      -0.559  13.508  22.299  0.00  0.00    +0.000 A 
ATOM     29  C   UNL     1      -1.600  12.707  22.689  0.00  0.00    +0.000 A 
ATOM     30  C   UNL     1      -1.701  11.522  21.999  0.00  0.00    +0.000 A 
ATOM     31  N   UNL     1      -0.848  11.151  21.018  0.00  0.00    +0.000 NA
BRANCH  29  32
ATOM     32  C   UNL     1      -2.574  13.050  23.733  0.00  0.00    +0.000 C 
ATOM     33  O   UNL     1      -2.476  14.101  24.363  0.00  0.00    +0.000 OA
ATOM     34  N   UNL     1      -3.612  12.171  23.946  0.00  0.00    +0.000 N 
ATOM     35  H   UNL     1      -3.933  11.505  23.258  0.00  0.00    +0.000 HD
BRANCH  34  36
ATOM     36  O   UNL     1      -4.604  12.616  24.850  0.00  0.00    +0.000 OA
ATOM     37  H   UNL     1      -4.551  11.935  25.554  0.00  0.00    +0.000 HD
ENDBRANCH  34  36
ENDBRANCH  29  32
ENDBRANCH  23  25
ENDBRANCH   1  23
TORSDOF 8
ENDMDL
MODEL 9
REMARK VINA RESULT:      -7.9      4.042      7.692
REMARK  Name = 
REMARK  9 active torsions:
REMARK  status: ('A' for Active; 'I' for Inactive)
REMARK    1  A    between atoms: C_1  and  N_2
REMARK    2  A    between atoms: N_2  and  C_3
REMARK    3  A    between atoms: C_3  and  C_4
REMARK    4  A    between atoms: C_6  and  C_7
REMARK    5  A    between atoms: N_10  and  C_11
REMARK    6  A    between atoms: C_11  and  C_12
REMARK    7  A    between atoms: C_15  and  C_16
REMARK    8  A    between atoms: C_29  and  C_30
REMARK    9  A    between atoms: N_32  and  O_33
REMARK                            x       y       z     vdW  Elec       q    Type
REMARK                         _______ _______ _______ _____ _____    ______ ____
ROOT
ATOM      1  C   UNL     1       0.287  10.952  21.527  0.00  0.00    +0.000 A 
ATOM      2  N   UNL     1      -0.869  11.208  22.100  0.00  0.00    +0.000 NA
ATOM      3  C   UNL     1      -0.750  12.538  22.423  0.00  0.00    +0.000 A 
ATOM      4  N   UNL     1       0.394  13.107  22.017  0.00  0.00    +0.000 NA
ATOM      5  O   UNL     1       1.090  12.051  21.419  0.00  0.00    +0.000 OA
ENDROOT
BRANCH   3   6
ATOM      6  C   UNL     1      -1.745  13.213  23.322  0.00  0.00    +0.000 C 
ATOM      7  C   UNL     1      -3.006  12.369  23.545  0.00  0.00    +0.000 C 
ATOM      8  C   UNL     1      -3.899  12.363  22.307  0.00  0.00    +0.000 C 
ATOM      9  N   UNL     1      -4.285  13.722  21.887  0.00  0.00    +0.000 NA
ATOM     10  C   UNL     1      -3.109  14.580  21.667  0.00  0.00    +0.000 C 
ATOM     11  C   UNL     1      -2.170  14.612  22.875  0.00  0.00    +0.000 C 
BRANCH   9  12
ATOM     12  C   UNL     1      -5.102  13.609  20.658  0.00  0.00    +0.000 C 
BRANCH  12  13
ATOM     13  C   UNL     1      -4.488  12.788  19.543  0.00  0.00    +0.000 A 
ATOM     14  C   UNL     1      -3.100  12.595  19.497  0.00  0.00    +0.000 A 
ATOM     15  C   UNL     1      -2.527  11.781  18.517  0.00  0.00    +0.000 A 
ATOM     16  C   UNL     1      -3.332  11.144  17.562  0.00  0.00    +0.000 A 
ATOM     17  C   UNL     1      -4.719  11.360  17.594  0.00  0.00    +0.000 A 
ATOM     18  C   UNL     1      -5.291  12.174  18.574  0.00  0.00    +0.000 A 
BRANCH  16  19
ATOM     19  C   UNL     1      -2.733  10.224  16.529  0.00  0.00    +0.000 C 
ATOM     20  F   UNL     1      -1.594   9.601  16.946  0.00  0.00    +0.000 F 
ATOM     21  F   UNL     1      -3.587   9.226  16.166  0.00  0.00    +0.000 F 
ATOM     22  F   UNL     1      -2.403  10.870  15.377  0.00  0.00    +0.000 F 
ENDBRANCH  16  19
ENDBRANCH  12  13
ENDBRANCH   9  12
ENDBRANCH   3   6
BRANCH   1  23
ATOM     23  C   UNL     1       0.871   9.631  21.131  0.00  0.00    +0.000 C 
BRANCH  23  25
ATOM     24  C   UNL     1       1.053  10.528  18.768  0.00  0.00    +0.000 C 
ATOM     25  N   UNL     1       1.033   9.401  19.689  0.00  0.00    +0.000 N 
ATOM     26  C   UNL     1       1.823   8.318  19.333  0.00  0.00    +0.000 A 
ATOM     27  N   UNL     1       2.334   8.260  18.088  0.00  0.00    +0.000 NA
ATOM     28  C   UNL     1       3.088   7.188  17.754  0.00  0.00    +0.000 A 
ATOM     29  C   UNL     1       3.336   6.143  18.607  0.00  0.00    +0.000 A 
ATOM     30  C   UNL     1       2.782   6.283  19.858  0.00  0.00    +0.000 A 
ATOM     31  N   UNL     1       2.042   7.348  20.236  0.00  0.00    +0.000 NA
BRANCH  29  32
ATOM     32  C   UNL     1       4.142   4.963  18.273  0.00  0.00    +0.000 C 
ATOM     33  O   UNL     1       4.556   4.789  17.128  0.00  0.00    +0.000 OA
ATOM     34  N   UNL     1       4.445   4.091  19.294  0.00  0.00    +0.000 N 
ATOM     35  H   UNL     1       4.440   4.348  20.271  0.00  0.00    +0.000 HD
BRANCH  34  36
ATOM     36  O   UNL     1       5.347   3.057  18.958  0.00  0.00    +0.000 OA
ATOM     37  H   UNL     1       4.767   2.267  18.990  0.00  0.00    +0.000 HD
ENDBRANCH  34  36
ENDBRANCH  29  32
ENDBRANCH  23  25
ENDBRANCH   1  23
TORSDOF 8
ENDMDL
