MODEL 1
REMARK VINA RESULT:      -8.3      0.000      0.000
REMARK  Name = 
REMARK  5 active torsions:
REMARK  status: ('A' for Active; 'I' for Inactive)
REMARK    1  A    between atoms: C_1  and  C_2
REMARK    2  A    between atoms: C_5  and  N_6
REMARK    3  A    between atoms: C_7  and  C_9
REMARK    4  A    between atoms: C_9  and  N_10
REMARK    5  A    between atoms: C_15  and  C_16
REMARK                            x       y       z     vdW  Elec       q    Type
REMARK                         _______ _______ _______ _____ _____    ______ ____
ROOT
ATOM      1  N   UNL     1       6.429   6.260  17.338  0.00  0.00    +0.000 N 
ATOM      2  C   UNL     1       6.807   4.996  17.694  0.00  0.00    +0.000 C 
ATOM      3  O   UNL     1       7.886   4.467  17.477  0.00  0.00    +0.000 OA
ATOM      4  S   UNL     1       5.482   4.170  18.496  0.00  0.00    +0.000 S 
ATOM      5  C   UNL     1       4.435   5.527  18.338  0.00  0.00    +0.000 C 
ATOM      6  C   UNL     1       3.190   5.668  18.810  0.00  0.00    +0.000 C 
ATOM      7  C   UNL     1       5.121   6.606  17.571  0.00  0.00    +0.000 C 
ATOM      8  O   UNL     1       4.571   7.627  17.184  0.00  0.00    +0.000 OA
ENDROOT
BRANCH   6   9
ATOM      9  C   UNL     1       2.444   4.646  19.540  0.00  0.00    +0.000 A 
ATOM     10  C   UNL     1       1.516   3.823  18.907  0.00  0.00    +0.000 A 
ATOM     11  C   UNL     1       0.834   2.880  19.675  0.00  0.00    +0.000 A 
ATOM     12  C   UNL     1       1.101   2.784  21.036  0.00  0.00    +0.000 A 
ATOM     13  C   UNL     1       2.054   3.634  21.573  0.00  0.00    +0.000 A 
ATOM     14  N   UNL     1       2.733   4.556  20.855  0.00  0.00    +0.000 NA
ENDBRANCH   6   9
BRANCH   1  15
ATOM     15  C   UNL     1       7.383   7.187  16.747  0.00  0.00    +0.000 C 
BRANCH  15  17
ATOM     16  N   UNL     1       8.081   9.394  17.558  0.00  0.00    +0.000 N 
ATOM     17  C   UNL     1       8.042   8.030  17.851  0.00  0.00    +0.000 C 
ATOM     18  O   UNL     1       8.458   7.510  18.883  0.00  0.00    +0.000 OA
ATOM     19  H   UNL     1       7.541   9.728  16.769  0.00  0.00    +0.000 HD
BRANCH  16  24
ATOM     20  C   UNL     1      10.559  13.531  20.691  0.00  0.00    +0.000 C 
ATOM     21  C   UNL     1       9.925  12.445  19.876  0.00  0.00    +0.000 A 
ATOM     22  C   UNL     1       9.877  11.137  20.348  0.00  0.00    +0.000 A 
ATOM     23  C   UNL     1       9.271  10.122  19.595  0.00  0.00    +0.000 A 
ATOM     24  C   UNL     1       8.706  10.394  18.349  0.00  0.00    +0.000 A 
ATOM     25  C   UNL     1       8.781  11.703  17.855  0.00  0.00    +0.000 A 
ATOM     26  C   UNL     1       9.372  12.723  18.618  0.00  0.00    +0.000 A 
ENDBRANCH  16  24
ENDBRANCH  15  17
ENDBRANCH   1  15
TORSDOF 4
ENDMDL
MODEL 2
REMARK VINA RESULT:      -8.1      4.894      7.305
REMARK  Name = 
REMARK  5 active torsions:
REMARK  status: ('A' for Active; 'I' for Inactive)
REMARK    1  A    between atoms: C_1  and  C_2
REMARK    2  A    between atoms: C_5  and  N_6
REMARK    3  A    between atoms: C_7  and  C_9
REMARK    4  A    between atoms: C_9  and  N_10
REMARK    5  A    between atoms: C_15  and  C_16
REMARK                            x       y       z     vdW  Elec       q    Type
REMARK                         _______ _______ _______ _____ _____    ______ ____
ROOT
ATOM      1  N   UNL     1       4.139   4.099  18.937  0.00  0.00    +0.000 N 
ATOM      2  C   UNL     1       3.406   3.409  18.013  0.00  0.00    +0.000 C 
ATOM      3  O   UNL     1       2.365   2.802  18.211  0.00  0.00    +0.000 OA
ATOM      4  S   UNL     1       4.199   3.462  16.448  0.00  0.00    +0.000 S 
ATOM      5  C   UNL     1       5.506   4.404  17.052  0.00  0.00    +0.000 C 
ATOM      6  C   UNL     1       6.536   4.920  16.370  0.00  0.00    +0.000 C 
ATOM      7  C   UNL     1       5.348   4.602  18.521  0.00  0.00    +0.000 C 
ATOM      8  O   UNL     1       6.197   5.109  19.240  0.00  0.00    +0.000 OA
ENDROOT
BRANCH   6   9
ATOM      9  C   UNL     1       6.775   4.741  14.940  0.00  0.00    +0.000 A 
ATOM     10  C   UNL     1       6.019   3.857  14.175  0.00  0.00    +0.000 A 
ATOM     11  C   UNL     1       6.317   3.733  12.818  0.00  0.00    +0.000 A 
ATOM     12  C   UNL     1       7.345   4.491  12.271  0.00  0.00    +0.000 A 
ATOM     13  C   UNL     1       8.030   5.357  13.108  0.00  0.00    +0.000 A 
ATOM     14  N   UNL     1       7.764   5.502  14.425  0.00  0.00    +0.000 NA
ENDBRANCH   6   9
BRANCH   1  15
ATOM     15  C   UNL     1       3.644   4.292  20.292  0.00  0.00    +0.000 C 
BRANCH  15  17
ATOM     16  N   UNL     1       2.831   6.575  19.918  0.00  0.00    +0.000 N 
ATOM     17  C   UNL     1       2.466   5.279  20.282  0.00  0.00    +0.000 C 
ATOM     18  O   UNL     1       1.326   4.908  20.554  0.00  0.00    +0.000 OA
ATOM     19  H   UNL     1       3.758   6.719  19.534  0.00  0.00    +0.000 HD
BRANCH  16  24
ATOM     20  C   UNL     1      -0.641  11.156  19.753  0.00  0.00    +0.000 C 
ATOM     21  C   UNL     1       0.270   9.968  19.807  0.00  0.00    +0.000 A 
ATOM     22  C   UNL     1       0.405   9.228  20.978  0.00  0.00    +0.000 A 
ATOM     23  C   UNL     1       1.245   8.107  21.028  0.00  0.00    +0.000 A 
ATOM     24  C   UNL     1       1.973   7.707  19.908  0.00  0.00    +0.000 A 
ATOM     25  C   UNL     1       1.865   8.467  18.736  0.00  0.00    +0.000 A 
ATOM     26  C   UNL     1       1.010   9.579  18.682  0.00  0.00    +0.000 A 
ENDBRANCH  16  24
ENDBRANCH  15  17
ENDBRANCH   1  15
TORSDOF 4
ENDMDL
MODEL 3
REMARK VINA RESULT:      -8.0      0.574      1.357
REMARK  Name = 
REMARK  5 active torsions:
REMARK  status: ('A' for Active; 'I' for Inactive)
REMARK    1  A    between atoms: C_1  and  C_2
REMARK    2  A    between atoms: C_5  and  N_6
REMARK    3  A    between atoms: C_7  and  C_9
REMARK    4  A    between atoms: C_9  and  N_10
REMARK    5  A    between atoms: C_15  and  C_16
REMARK                            x       y       z     vdW  Elec       q    Type
REMARK                         _______ _______ _______ _____ _____    ______ ____
ROOT
ATOM      1  N   UNL     1       6.468   6.231  17.308  0.00  0.00    +0.000 N 
ATOM      2  C   UNL     1       6.845   4.974  17.690  0.00  0.00    +0.000 C 
ATOM      3  O   UNL     1       7.928   4.445  17.498  0.00  0.00    +0.000 OA
ATOM      4  S   UNL     1       5.509   4.156  18.483  0.00  0.00    +0.000 S 
ATOM      5  C   UNL     1       4.461   5.507  18.288  0.00  0.00    +0.000 C 
ATOM      6  C   UNL     1       3.208   5.651  18.738  0.00  0.00    +0.000 C 
ATOM      7  C   UNL     1       5.155   6.577  17.516  0.00  0.00    +0.000 C 
ATOM      8  O   UNL     1       4.609   7.590  17.104  0.00  0.00    +0.000 OA
ENDROOT
BRANCH   6   9
ATOM      9  C   UNL     1       2.453   4.638  19.471  0.00  0.00    +0.000 A 
ATOM     10  C   UNL     1       2.510   4.541  20.858  0.00  0.00    +0.000 A 
ATOM     11  C   UNL     1       1.771   3.537  21.484  0.00  0.00    +0.000 A 
ATOM     12  C   UNL     1       0.999   2.676  20.714  0.00  0.00    +0.000 A 
ATOM     13  C   UNL     1       0.991   2.861  19.341  0.00  0.00    +0.000 A 
ATOM     14  N   UNL     1       1.695   3.825  18.706  0.00  0.00    +0.000 NA
ENDBRANCH   6   9
BRANCH   1  15
ATOM     15  C   UNL     1       7.428   7.153  16.719  0.00  0.00    +0.000 C 
BRANCH  15  17
ATOM     16  N   UNL     1       8.078   9.387  17.496  0.00  0.00    +0.000 N 
ATOM     17  C   UNL     1       8.052   8.029  17.818  0.00  0.00    +0.000 C 
ATOM     18  O   UNL     1       8.453   7.537  18.870  0.00  0.00    +0.000 OA
ATOM     19  H   UNL     1       7.551   9.696  16.688  0.00  0.00    +0.000 HD
BRANCH  16  24
ATOM     20  C   UNL     1      10.546  13.452  20.729  0.00  0.00    +0.000 C 
ATOM     21  C   UNL     1       9.891  12.401  19.887  0.00  0.00    +0.000 A 
ATOM     22  C   UNL     1       9.275  12.734  18.684  0.00  0.00    +0.000 A 
ATOM     23  C   UNL     1       8.675  11.750  17.886  0.00  0.00    +0.000 A 
ATOM     24  C   UNL     1       8.673  10.412  18.278  0.00  0.00    +0.000 A 
ATOM     25  C   UNL     1       9.263  10.076  19.504  0.00  0.00    +0.000 A 
ATOM     26  C   UNL     1       9.880  11.059  20.294  0.00  0.00    +0.000 A 
ENDBRANCH  16  24
ENDBRANCH  15  17
ENDBRANCH   1  15
TORSDOF 4
ENDMDL
MODEL 4
REMARK VINA RESULT:      -7.9      4.911      7.290
REMARK  Name = 
REMARK  5 active torsions:
REMARK  status: ('A' for Active; 'I' for Inactive)
REMARK    1  A    between atoms: C_1  and  C_2
REMARK    2  A    between atoms: C_5  and  N_6
REMARK    3  A    between atoms: C_7  and  C_9
REMARK    4  A    between atoms: C_9  and  N_10
REMARK    5  A    between atoms: C_15  and  C_16
REMARK                            x       y       z     vdW  Elec       q    Type
REMARK                         _______ _______ _______ _____ _____    ______ ____
ROOT
ATOM      1  N   UNL     1       3.873   4.007  19.082  0.00  0.00    +0.000 N 
ATOM      2  C   UNL     1       3.325   3.078  18.242  0.00  0.00    +0.000 C 
ATOM      3  O   UNL     1       2.433   2.288  18.508  0.00  0.00    +0.000 OA
ATOM      4  S   UNL     1       4.125   3.128  16.680  0.00  0.00    +0.000 S 
ATOM      5  C   UNL     1       5.187   4.388  17.174  0.00  0.00    +0.000 C 
ATOM      6  C   UNL     1       6.100   5.035  16.437  0.00  0.00    +0.000 C 
ATOM      7  C   UNL     1       4.956   4.708  18.612  0.00  0.00    +0.000 C 
ATOM      8  O   UNL     1       5.661   5.461  19.269  0.00  0.00    +0.000 OA
ENDROOT
BRANCH   6   9
ATOM      9  C   UNL     1       6.404   4.756  15.037  0.00  0.00    +0.000 A 
ATOM     10  C   UNL     1       5.592   3.936  14.258  0.00  0.00    +0.000 A 
ATOM     11  C   UNL     1       5.958   3.707  12.932  0.00  0.00    +0.000 A 
ATOM     12  C   UNL     1       7.107   4.302  12.427  0.00  0.00    +0.000 A 
ATOM     13  C   UNL     1       7.842   5.117  13.272  0.00  0.00    +0.000 A 
ATOM     14  N   UNL     1       7.513   5.360  14.561  0.00  0.00    +0.000 NA
ENDBRANCH   6   9
BRANCH   1  15
ATOM     15  C   UNL     1       3.317   4.237  20.407  0.00  0.00    +0.000 C 
BRANCH  15  17
ATOM     16  N   UNL     1       2.681   6.583  20.083  0.00  0.00    +0.000 N 
ATOM     17  C   UNL     1       2.205   5.295  20.330  0.00  0.00    +0.000 C 
ATOM     18  O   UNL     1       1.023   4.984  20.458  0.00  0.00    +0.000 OA
ATOM     19  H   UNL     1       3.651   6.688  19.809  0.00  0.00    +0.000 HD
BRANCH  16  24
ATOM     20  C   UNL     1      -0.494  11.376  20.069  0.00  0.00    +0.000 C 
ATOM     21  C   UNL     1       0.325  10.123  20.062  0.00  0.00    +0.000 A 
ATOM     22  C   UNL     1       0.919   9.668  18.889  0.00  0.00    +0.000 A 
ATOM     23  C   UNL     1       1.699   8.503  18.882  0.00  0.00    +0.000 A 
ATOM     24  C   UNL     1       1.896   7.765  20.049  0.00  0.00    +0.000 A 
ATOM     25  C   UNL     1       1.273   8.201  21.226  0.00  0.00    +0.000 A 
ATOM     26  C   UNL     1       0.507   9.378  21.236  0.00  0.00    +0.000 A 
ENDBRANCH  16  24
ENDBRANCH  15  17
ENDBRANCH   1  15
TORSDOF 4
ENDMDL
MODEL 5
REMARK VINA RESULT:      -7.9      4.860      7.259
REMARK  Name = 
REMARK  5 active torsions:
REMARK  status: ('A' for Active; 'I' for Inactive)
REMARK    1  A    between atoms: C_1  and  C_2
REMARK    2  A    between atoms: C_5  and  N_6
REMARK    3  A    between atoms: C_7  and  C_9
REMARK    4  A    between atoms: C_9  and  N_10
REMARK    5  A    between atoms: C_15  and  C_16
REMARK                            x       y       z     vdW  Elec       q    Type
REMARK                         _______ _______ _______ _____ _____    ______ ____
ROOT
ATOM      1  N   UNL     1       4.560   4.405  18.714  0.00  0.00    +0.000 N 
ATOM      2  C   UNL     1       5.845   4.866  18.785  0.00  0.00    +0.000 C 
ATOM      3  O   UNL     1       6.439   5.220  19.791  0.00  0.00    +0.000 OA
ATOM      4  S   UNL     1       6.553   4.937  17.180  0.00  0.00    +0.000 S 
ATOM      5  C   UNL     1       5.117   4.353  16.433  0.00  0.00    +0.000 C 
ATOM      6  C   UNL     1       4.918   4.065  15.140  0.00  0.00    +0.000 C 
ATOM      7  C   UNL     1       4.049   4.182  17.459  0.00  0.00    +0.000 C 
ATOM      8  O   UNL     1       2.884   3.919  17.198  0.00  0.00    +0.000 OA
ENDROOT
BRANCH   6   9
ATOM      9  C   UNL     1       5.903   4.237  14.076  0.00  0.00    +0.000 A 
ATOM     10  C   UNL     1       5.865   3.478  12.910  0.00  0.00    +0.000 A 
ATOM     11  C   UNL     1       6.849   3.693  11.947  0.00  0.00    +0.000 A 
ATOM     12  C   UNL     1       7.828   4.653  12.171  0.00  0.00    +0.000 A 
ATOM     13  C   UNL     1       7.775   5.371  13.354  0.00  0.00    +0.000 A 
ATOM     14  N   UNL     1       6.833   5.189  14.306  0.00  0.00    +0.000 NA
ENDBRANCH   6   9
BRANCH   1  15
ATOM     15  C   UNL     1       3.786   4.157  19.921  0.00  0.00    +0.000 C 
BRANCH  15  17
ATOM     16  N   UNL     1       2.942   6.457  19.813  0.00  0.00    +0.000 N 
ATOM     17  C   UNL     1       2.588   5.117  19.979  0.00  0.00    +0.000 C 
ATOM     18  O   UNL     1       1.444   4.696  20.136  0.00  0.00    +0.000 OA
ATOM     19  H   UNL     1       3.884   6.666  19.503  0.00  0.00    +0.000 HD
BRANCH  16  24
ATOM     20  C   UNL     1      -0.628  10.957  20.075  0.00  0.00    +0.000 C 
ATOM     21  C   UNL     1       0.309   9.789  20.018  0.00  0.00    +0.000 A 
ATOM     22  C   UNL     1       0.484   8.964  21.125  0.00  0.00    +0.000 A 
ATOM     23  C   UNL     1       1.348   7.861  21.070  0.00  0.00    +0.000 A 
ATOM     24  C   UNL     1       2.061   7.566  19.908  0.00  0.00    +0.000 A 
ATOM     25  C   UNL     1       1.912   8.413  18.802  0.00  0.00    +0.000 A 
ATOM     26  C   UNL     1       1.033   9.506  18.852  0.00  0.00    +0.000 A 
ENDBRANCH  16  24
ENDBRANCH  15  17
ENDBRANCH   1  15
TORSDOF 4
ENDMDL
MODEL 6
REMARK VINA RESULT:      -7.8      1.285      1.764
REMARK  Name = 
REMARK  5 active torsions:
REMARK  status: ('A' for Active; 'I' for Inactive)
REMARK    1  A    between atoms: C_1  and  C_2
REMARK    2  A    between atoms: C_5  and  N_6
REMARK    3  A    between atoms: C_7  and  C_9
REMARK    4  A    between atoms: C_9  and  N_10
REMARK    5  A    between atoms: C_15  and  C_16
REMARK                            x       y       z     vdW  Elec       q    Type
REMARK                         _______ _______ _______ _____ _____    ______ ____
ROOT
ATOM      1  N   UNL     1       6.818   6.385  17.649  0.00  0.00    +0.000 N 
ATOM      2  C   UNL     1       7.017   5.657  18.789  0.00  0.00    +0.000 C 
ATOM      3  O   UNL     1       8.065   5.532  19.402  0.00  0.00    +0.000 OA
ATOM      4  S   UNL     1       5.531   4.849  19.259  0.00  0.00    +0.000 S 
ATOM      5  C   UNL     1       4.663   5.492  17.920  0.00  0.00    +0.000 C 
ATOM      6  C   UNL     1       3.361   5.354  17.637  0.00  0.00    +0.000 C 
ATOM      7  C   UNL     1       5.584   6.283  17.055  0.00  0.00    +0.000 C 
ATOM      8  O   UNL     1       5.277   6.736  15.961  0.00  0.00    +0.000 OA
ENDROOT
BRANCH   6   9
ATOM      9  C   UNL     1       2.407   4.571  18.418  0.00  0.00    +0.000 A 
ATOM     10  C   UNL     1       1.986   4.974  19.682  0.00  0.00    +0.000 A 
ATOM     11  C   UNL     1       1.083   4.164  20.369  0.00  0.00    +0.000 A 
ATOM     12  C   UNL     1       0.627   2.992  19.778  0.00  0.00    +0.000 A 
ATOM     13  C   UNL     1       1.088   2.683  18.509  0.00  0.00    +0.000 A 
ATOM     14  N   UNL     1       1.961   3.448  17.816  0.00  0.00    +0.000 NA
ENDBRANCH   6   9
BRANCH   1  15
ATOM     15  C   UNL     1       7.871   7.231  17.108  0.00  0.00    +0.000 C 
BRANCH  15  17
ATOM     16  N   UNL     1       8.968   9.178  18.120  0.00  0.00    +0.000 N 
ATOM     17  C   UNL     1       7.750   8.649  17.689  0.00  0.00    +0.000 C 
ATOM     18  O   UNL     1       6.667   9.229  17.726  0.00  0.00    +0.000 OA
ATOM     19  H   UNL     1       9.817   8.687  17.866  0.00  0.00    +0.000 HD
BRANCH  16  24
ATOM     20  C   UNL     1       9.728  14.166  20.877  0.00  0.00    +0.000 C 
ATOM     21  C   UNL     1       9.518  12.872  20.153  0.00  0.00    +0.000 A 
ATOM     22  C   UNL     1       9.305  12.852  18.778  0.00  0.00    +0.000 A 
ATOM     23  C   UNL     1       9.123  11.641  18.095  0.00  0.00    +0.000 A 
ATOM     24  C   UNL     1       9.144  10.425  18.776  0.00  0.00    +0.000 A 
ATOM     25  C   UNL     1       9.327  10.441  20.165  0.00  0.00    +0.000 A 
ATOM     26  C   UNL     1       9.527  11.653  20.845  0.00  0.00    +0.000 A 
ENDBRANCH  16  24
ENDBRANCH  15  17
ENDBRANCH   1  15
TORSDOF 4
ENDMDL
MODEL 7
REMARK VINA RESULT:      -7.8      1.179      1.221
REMARK  Name = 
REMARK  5 active torsions:
REMARK  status: ('A' for Active; 'I' for Inactive)
REMARK    1  A    between atoms: C_1  and  C_2
REMARK    2  A    between atoms: C_5  and  N_6
REMARK    3  A    between atoms: C_7  and  C_9
REMARK    4  A    between atoms: C_9  and  N_10
REMARK    5  A    between atoms: C_15  and  C_16
REMARK                            x       y       z     vdW  Elec       q    Type
REMARK                         _______ _______ _______ _____ _____    ______ ____
ROOT
ATOM      1  N   UNL     1       6.853   6.406  17.703  0.00  0.00    +0.000 N 
ATOM      2  C   UNL     1       7.048   5.674  18.841  0.00  0.00    +0.000 C 
ATOM      3  O   UNL     1       8.095   5.545  19.456  0.00  0.00    +0.000 OA
ATOM      4  S   UNL     1       5.560   4.869  19.308  0.00  0.00    +0.000 S 
ATOM      5  C   UNL     1       4.695   5.518  17.969  0.00  0.00    +0.000 C 
ATOM      6  C   UNL     1       3.393   5.383  17.684  0.00  0.00    +0.000 C 
ATOM      7  C   UNL     1       5.619   6.308  17.107  0.00  0.00    +0.000 C 
ATOM      8  O   UNL     1       5.316   6.764  16.014  0.00  0.00    +0.000 OA
ENDROOT
BRANCH   6   9
ATOM      9  C   UNL     1       2.436   4.600  18.461  0.00  0.00    +0.000 A 
ATOM     10  C   UNL     1       1.938   3.384  18.002  0.00  0.00    +0.000 A 
ATOM     11  C   UNL     1       1.017   2.703  18.796  0.00  0.00    +0.000 A 
ATOM     12  C   UNL     1       0.631   3.246  20.015  0.00  0.00    +0.000 A 
ATOM     13  C   UNL     1       1.194   4.453  20.396  0.00  0.00    +0.000 A 
ATOM     14  N   UNL     1       2.091   5.136  19.650  0.00  0.00    +0.000 NA
ENDBRANCH   6   9
BRANCH   1  15
ATOM     15  C   UNL     1       7.909   7.251  17.166  0.00  0.00    +0.000 C 
BRANCH  15  17
ATOM     16  N   UNL     1       8.993   9.147  18.281  0.00  0.00    +0.000 N 
ATOM     17  C   UNL     1       7.794   8.666  17.754  0.00  0.00    +0.000 C 
ATOM     18  O   UNL     1       6.732   9.283  17.717  0.00  0.00    +0.000 OA
ATOM     19  H   UNL     1       9.842   8.628  18.085  0.00  0.00    +0.000 HD
BRANCH  16  24
ATOM     20  C   UNL     1       9.647  14.201  20.943  0.00  0.00    +0.000 C 
ATOM     21  C   UNL     1       9.488  12.880  20.257  0.00  0.00    +0.000 A 
ATOM     22  C   UNL     1       9.420  11.700  20.992  0.00  0.00    +0.000 A 
ATOM     23  C   UNL     1       9.256  10.463  20.353  0.00  0.00    +0.000 A 
ATOM     24  C   UNL     1       9.163  10.380  18.964  0.00  0.00    +0.000 A 
ATOM     25  C   UNL     1       9.264  11.561  18.218  0.00  0.00    +0.000 A 
ATOM     26  C   UNL     1       9.410  12.802  18.859  0.00  0.00    +0.000 A 
ENDBRANCH  16  24
ENDBRANCH  15  17
ENDBRANCH   1  15
TORSDOF 4
ENDMDL
MODEL 8
REMARK VINA RESULT:      -7.7      1.470      1.921
REMARK  Name = 
REMARK  5 active torsions:
REMARK  status: ('A' for Active; 'I' for Inactive)
REMARK    1  A    between atoms: C_1  and  C_2
REMARK    2  A    between atoms: C_5  and  N_6
REMARK    3  A    between atoms: C_7  and  C_9
REMARK    4  A    between atoms: C_9  and  N_10
REMARK    5  A    between atoms: C_15  and  C_16
REMARK                            x       y       z     vdW  Elec       q    Type
REMARK                         _______ _______ _______ _____ _____    ______ ____
ROOT
ATOM      1  N   UNL     1       6.608   6.286  17.768  0.00  0.00    +0.000 N 
ATOM      2  C   UNL     1       5.640   6.394  16.809  0.00  0.00    +0.000 C 
ATOM      3  O   UNL     1       5.713   7.022  15.764  0.00  0.00    +0.000 OA
ATOM      4  S   UNL     1       4.198   5.521  17.301  0.00  0.00    +0.000 S 
ATOM      5  C   UNL     1       4.908   5.028  18.789  0.00  0.00    +0.000 C 
ATOM      6  C   UNL     1       4.388   4.223  19.725  0.00  0.00    +0.000 C 
ATOM      7  C   UNL     1       6.265   5.631  18.926  0.00  0.00    +0.000 C 
ATOM      8  O   UNL     1       6.943   5.572  19.941  0.00  0.00    +0.000 OA
ENDROOT
BRANCH   6   9
ATOM      9  C   UNL     1       3.057   3.623  19.676  0.00  0.00    +0.000 A 
ATOM     10  C   UNL     1       2.004   4.111  20.444  0.00  0.00    +0.000 A 
ATOM     11  C   UNL     1       0.766   3.475  20.352  0.00  0.00    +0.000 A 
ATOM     12  C   UNL     1       0.618   2.388  19.500  0.00  0.00    +0.000 A 
ATOM     13  C   UNL     1       1.719   1.986  18.762  0.00  0.00    +0.000 A 
ATOM     14  N   UNL     1       2.930   2.582  18.827  0.00  0.00    +0.000 NA
ENDBRANCH   6   9
BRANCH   1  15
ATOM     15  C   UNL     1       7.938   6.837  17.554  0.00  0.00    +0.000 C 
BRANCH  15  17
ATOM     16  N   UNL     1       8.962   8.763  18.675  0.00  0.00    +0.000 N 
ATOM     17  C   UNL     1       7.927   8.348  17.835  0.00  0.00    +0.000 C 
ATOM     18  O   UNL     1       7.083   9.082  17.327  0.00  0.00    +0.000 OA
ATOM     19  H   UNL     1       9.704   8.105  18.878  0.00  0.00    +0.000 HD
BRANCH  16  24
ATOM     20  C   UNL     1       9.688  14.140  20.580  0.00  0.00    +0.000 C 
ATOM     21  C   UNL     1       9.509  12.735  20.093  0.00  0.00    +0.000 A 
ATOM     22  C   UNL     1       9.328  11.688  20.991  0.00  0.00    +0.000 A 
ATOM     23  C   UNL     1       9.146  10.374  20.537  0.00  0.00    +0.000 A 
ATOM     24  C   UNL     1       9.147  10.080  19.174  0.00  0.00    +0.000 A 
ATOM     25  C   UNL     1       9.361  11.126  18.267  0.00  0.00    +0.000 A 
ATOM     26  C   UNL     1       9.526  12.444  18.721  0.00  0.00    +0.000 A 
ENDBRANCH  16  24
ENDBRANCH  15  17
ENDBRANCH   1  15
TORSDOF 4
ENDMDL
MODEL 9
REMARK VINA RESULT:      -7.6      4.897      7.296
REMARK  Name = 
REMARK  5 active torsions:
REMARK  status: ('A' for Active; 'I' for Inactive)
REMARK    1  A    between atoms: C_1  and  C_2
REMARK    2  A    between atoms: C_5  and  N_6
REMARK    3  A    between atoms: C_7  and  C_9
REMARK    4  A    between atoms: C_9  and  N_10
REMARK    5  A    between atoms: C_15  and  C_16
REMARK                            x       y       z     vdW  Elec       q    Type
REMARK                         _______ _______ _______ _____ _____    ______ ____
ROOT
ATOM      1  N   UNL     1       4.609   4.429  18.807  0.00  0.00    +0.000 N 
ATOM      2  C   UNL     1       5.914   4.832  18.858  0.00  0.00    +0.000 C 
ATOM      3  O   UNL     1       6.541   5.154  19.855  0.00  0.00    +0.000 OA
ATOM      4  S   UNL     1       6.598   4.879  17.242  0.00  0.00    +0.000 S 
ATOM      5  C   UNL     1       5.124   4.364  16.517  0.00  0.00    +0.000 C 
ATOM      6  C   UNL     1       4.891   4.092  15.226  0.00  0.00    +0.000 C 
ATOM      7  C   UNL     1       4.067   4.236  17.559  0.00  0.00    +0.000 C 
ATOM      8  O   UNL     1       2.887   4.026  17.317  0.00  0.00    +0.000 OA
ENDROOT
BRANCH   6   9
ATOM      9  C   UNL     1       5.865   4.226  14.146  0.00  0.00    +0.000 A 
ATOM     10  C   UNL     1       6.947   5.096  14.237  0.00  0.00    +0.000 A 
ATOM     11  C   UNL     1       7.826   5.176  13.158  0.00  0.00    +0.000 A 
ATOM     12  C   UNL     1       7.605   4.388  12.036  0.00  0.00    +0.000 A 
ATOM     13  C   UNL     1       6.511   3.538  12.044  0.00  0.00    +0.000 A 
ATOM     14  N   UNL     1       5.643   3.436  13.075  0.00  0.00    +0.000 NA
ENDBRANCH   6   9
BRANCH   1  15
ATOM     15  C   UNL     1       3.845   4.209  20.026  0.00  0.00    +0.000 C 
BRANCH  15  17
ATOM     16  N   UNL     1       2.988   6.477  19.654  0.00  0.00    +0.000 N 
ATOM     17  C   UNL     1       2.663   5.190  20.085  0.00  0.00    +0.000 C 
ATOM     18  O   UNL     1       1.552   4.822  20.460  0.00  0.00    +0.000 OA
ATOM     19  H   UNL     1       3.879   6.614  19.192  0.00  0.00    +0.000 HD
BRANCH  16  24
ATOM     20  C   UNL     1      -0.508  11.036  19.896  0.00  0.00    +0.000 C 
ATOM     21  C   UNL     1       0.395   9.844  19.821  0.00  0.00    +0.000 A 
ATOM     22  C   UNL     1       1.051   9.521  18.637  0.00  0.00    +0.000 A 
ATOM     23  C   UNL     1       1.909   8.414  18.569  0.00  0.00    +0.000 A 
ATOM     24  C   UNL     1       2.124   7.604  19.683  0.00  0.00    +0.000 A 
ATOM     25  C   UNL     1       1.442   7.906  20.869  0.00  0.00    +0.000 A 
ATOM     26  C   UNL     1       0.596   9.025  20.942  0.00  0.00    +0.000 A 
ENDBRANCH  16  24
ENDBRANCH  15  17
ENDBRANCH   1  15
TORSDOF 4
ENDMDL
