MODEL 1
REMARK VINA RESULT:      -8.1      0.000      0.000
REMARK  Name = 
REMARK  2 active torsions:
REMARK  status: ('A' for Active; 'I' for Inactive)
REMARK    1  A    between atoms: C_2  and  C_3
REMARK    2  A    between atoms: C_12  and  O_13
REMARK                            x       y       z     vdW  Elec       q    Type
REMARK                         _______ _______ _______ _____ _____    ______ ____
ROOT
ATOM      1  C   UNL     1       6.013   4.665  17.139  0.00  0.00    +0.000 A 
ATOM      2  C   UNL     1       6.908   5.688  16.892  0.00  0.00    +0.000 A 
ATOM      3  N   UNL     1       7.470   5.929  15.678  0.00  0.00    +0.000 NA
ATOM      4  C   UNL     1       7.125   5.129  14.654  0.00  0.00    +0.000 A 
ATOM      5  C   UNL     1       7.658   5.406  13.402  0.00  0.00    +0.000 A 
ATOM      6  C   UNL     1       7.327   4.655  12.272  0.00  0.00    +0.000 A 
ATOM      7  C   UNL     1       6.439   3.597  12.387  0.00  0.00    +0.000 A 
ATOM      8  C   UNL     1       5.907   3.282  13.637  0.00  0.00    +0.000 A 
ATOM      9  C   UNL     1       6.243   4.032  14.795  0.00  0.00    +0.000 A 
ATOM     10  C   UNL     1       5.736   3.785  16.094  0.00  0.00    +0.000 A 
ENDROOT
BRANCH   1  12
ATOM     11  O   UNL     1       6.214   4.377  19.418  0.00  0.00    +0.000 OA
ATOM     12  C   UNL     1       5.426   4.581  18.494  0.00  0.00    +0.000 C 
ATOM     13  N   UNL     1       4.053   4.813  18.691  0.00  0.00    +0.000 N 
ATOM     14  C   UNL     1       3.557   4.835  20.067  0.00  0.00    +0.000 C 
ATOM     15  C   UNL     1       2.828   3.547  20.447  0.00  0.00    +0.000 C 
ATOM     16  C   UNL     1       1.455   3.373  19.800  0.00  0.00    +0.000 C 
ATOM     17  C   UNL     1       1.449   3.463  18.275  0.00  0.00    +0.000 C 
ATOM     18  C   UNL     1       1.681   4.888  17.777  0.00  0.00    +0.000 C 
ATOM     19  C   UNL     1       3.147   5.301  17.650  0.00  0.00    +0.000 C 
ENDBRANCH   1  12
BRANCH  10  20
ATOM     20  O   UNL     1       4.952   2.692  16.375  0.00  0.00    +0.000 OA
ATOM     21  H   UNL     1       4.131   2.956  16.814  0.00  0.00    +0.000 HD
ENDBRANCH  10  20
TORSDOF 2
ENDMDL
MODEL 2
REMARK VINA RESULT:      -7.2      3.590      7.196
REMARK  Name = 
REMARK  2 active torsions:
REMARK  status: ('A' for Active; 'I' for Inactive)
REMARK    1  A    between atoms: C_2  and  C_3
REMARK    2  A    between atoms: C_12  and  O_13
REMARK                            x       y       z     vdW  Elec       q    Type
REMARK                         _______ _______ _______ _____ _____    ______ ____
ROOT
ATOM      1  C   UNL     1       2.627   6.905  18.414  0.00  0.00    +0.000 A 
ATOM      2  C   UNL     1       2.295   7.953  17.577  0.00  0.00    +0.000 A 
ATOM      3  N   UNL     1       1.683   9.092  17.992  0.00  0.00    +0.000 NA
ATOM      4  C   UNL     1       1.392   9.210  19.301  0.00  0.00    +0.000 A 
ATOM      5  C   UNL     1       0.813  10.395  19.735  0.00  0.00    +0.000 A 
ATOM      6  C   UNL     1       0.511  10.624  21.079  0.00  0.00    +0.000 A 
ATOM      7  C   UNL     1       0.793   9.648  22.022  0.00  0.00    +0.000 A 
ATOM      8  C   UNL     1       1.352   8.439  21.610  0.00  0.00    +0.000 A 
ATOM      9  C   UNL     1       1.655   8.191  20.244  0.00  0.00    +0.000 A 
ATOM     10  C   UNL     1       2.235   6.997  19.749  0.00  0.00    +0.000 A 
ENDROOT
BRANCH   1  12
ATOM     11  O   UNL     1       2.738   4.711  17.714  0.00  0.00    +0.000 OA
ATOM     12  C   UNL     1       3.364   5.765  17.826  0.00  0.00    +0.000 C 
ATOM     13  N   UNL     1       4.677   5.935  17.351  0.00  0.00    +0.000 N 
ATOM     14  C   UNL     1       5.307   4.803  16.672  0.00  0.00    +0.000 C 
ATOM     15  C   UNL     1       6.314   4.074  17.560  0.00  0.00    +0.000 C 
ATOM     16  C   UNL     1       7.614   4.834  17.813  0.00  0.00    +0.000 C 
ATOM     17  C   UNL     1       7.435   6.237  18.390  0.00  0.00    +0.000 C 
ATOM     18  C   UNL     1       6.873   7.219  17.365  0.00  0.00    +0.000 C 
ATOM     19  C   UNL     1       5.349   7.231  17.245  0.00  0.00    +0.000 C 
ENDBRANCH   1  12
BRANCH  10  20
ATOM     20  O   UNL     1       2.445   5.901  20.550  0.00  0.00    +0.000 OA
ATOM     21  H   UNL     1       2.818   5.166  20.044  0.00  0.00    +0.000 HD
ENDBRANCH  10  20
TORSDOF 2
ENDMDL
MODEL 3
REMARK VINA RESULT:      -7.0      4.278      7.278
REMARK  Name = 
REMARK  2 active torsions:
REMARK  status: ('A' for Active; 'I' for Inactive)
REMARK    1  A    between atoms: C_2  and  C_3
REMARK    2  A    between atoms: C_12  and  O_13
REMARK                            x       y       z     vdW  Elec       q    Type
REMARK                         _______ _______ _______ _____ _____    ______ ____
ROOT
ATOM      1  C   UNL     1       2.204   7.495  19.428  0.00  0.00    +0.000 A 
ATOM      2  C   UNL     1       1.816   7.478  20.755  0.00  0.00    +0.000 A 
ATOM      3  N   UNL     1       1.007   8.411  21.321  0.00  0.00    +0.000 NA
ATOM      4  C   UNL     1       0.548   9.405  20.539  0.00  0.00    +0.000 A 
ATOM      5  C   UNL     1      -0.321  10.330  21.103  0.00  0.00    +0.000 A 
ATOM      6  C   UNL     1      -0.879  11.372  20.360  0.00  0.00    +0.000 A 
ATOM      7  C   UNL     1      -0.567  11.501  19.016  0.00  0.00    +0.000 A 
ATOM      8  C   UNL     1       0.321  10.600  18.429  0.00  0.00    +0.000 A 
ATOM      9  C   UNL     1       0.903   9.542  19.177  0.00  0.00    +0.000 A 
ATOM     10  C   UNL     1       1.800   8.580  18.652  0.00  0.00    +0.000 A 
ENDROOT
BRANCH   1  12
ATOM     11  O   UNL     1       3.977   6.653  18.217  0.00  0.00    +0.000 OA
ATOM     12  C   UNL     1       3.024   6.364  18.941  0.00  0.00    +0.000 C 
ATOM     13  N   UNL     1       2.754   5.052  19.371  0.00  0.00    +0.000 N 
ATOM     14  C   UNL     1       3.673   3.995  18.949  0.00  0.00    +0.000 C 
ATOM     15  C   UNL     1       3.108   3.147  17.812  0.00  0.00    +0.000 C 
ATOM     16  C   UNL     1       1.977   2.203  18.217  0.00  0.00    +0.000 C 
ATOM     17  C   UNL     1       0.794   2.879  18.908  0.00  0.00    +0.000 C 
ATOM     18  C   UNL     1       1.135   3.338  20.324  0.00  0.00    +0.000 C 
ATOM     19  C   UNL     1       1.791   4.715  20.420  0.00  0.00    +0.000 C 
ENDBRANCH   1  12
BRANCH  10  20
ATOM     20  O   UNL     1       2.296   8.665  17.373  0.00  0.00    +0.000 OA
ATOM     21  H   UNL     1       2.172   9.554  17.011  0.00  0.00    +0.000 HD
ENDBRANCH  10  20
TORSDOF 2
ENDMDL
MODEL 4
REMARK VINA RESULT:      -6.7      4.458      6.837
REMARK  Name = 
REMARK  2 active torsions:
REMARK  status: ('A' for Active; 'I' for Inactive)
REMARK    1  A    between atoms: C_2  and  C_3
REMARK    2  A    between atoms: C_12  and  O_13
REMARK                            x       y       z     vdW  Elec       q    Type
REMARK                         _______ _______ _______ _____ _____    ______ ____
ROOT
ATOM      1  C   UNL     1       2.498   7.041  19.306  0.00  0.00    +0.000 A 
ATOM      2  C   UNL     1       2.395   7.539  18.021  0.00  0.00    +0.000 A 
ATOM      3  N   UNL     1       1.725   8.676  17.698  0.00  0.00    +0.000 NA
ATOM      4  C   UNL     1       1.135   9.363  18.693  0.00  0.00    +0.000 A 
ATOM      5  C   UNL     1       0.493  10.552  18.372  0.00  0.00    +0.000 A 
ATOM      6  C   UNL     1      -0.113  11.353  19.342  0.00  0.00    +0.000 A 
ATOM      7  C   UNL     1      -0.082  10.963  20.672  0.00  0.00    +0.000 A 
ATOM      8  C   UNL     1       0.534   9.761  21.019  0.00  0.00    +0.000 A 
ATOM      9  C   UNL     1       1.146   8.933  20.040  0.00  0.00    +0.000 A 
ATOM     10  C   UNL     1       1.803   7.709  20.313  0.00  0.00    +0.000 A 
ENDROOT
BRANCH   1  12
ATOM     11  O   UNL     1       4.550   6.006  19.497  0.00  0.00    +0.000 OA
ATOM     12  C   UNL     1       3.330   5.835  19.508  0.00  0.00    +0.000 C 
ATOM     13  N   UNL     1       2.729   4.593  19.783  0.00  0.00    +0.000 N 
ATOM     14  C   UNL     1       3.608   3.465  20.092  0.00  0.00    +0.000 C 
ATOM     15  C   UNL     1       3.764   2.504  18.916  0.00  0.00    +0.000 C 
ATOM     16  C   UNL     1       2.532   1.652  18.617  0.00  0.00    +0.000 C 
ATOM     17  C   UNL     1       1.245   2.442  18.388  0.00  0.00    +0.000 C 
ATOM     18  C   UNL     1       0.705   3.057  19.677  0.00  0.00    +0.000 C 
ATOM     19  C   UNL     1       1.301   4.415  20.048  0.00  0.00    +0.000 C 
ENDBRANCH   1  12
BRANCH  10  20
ATOM     20  O   UNL     1       1.796   7.140  21.564  0.00  0.00    +0.000 OA
ATOM     21  H   UNL     1       0.988   6.628  21.708  0.00  0.00    +0.000 HD
ENDBRANCH  10  20
TORSDOF 2
ENDMDL
MODEL 5
REMARK VINA RESULT:      -6.6      5.219      8.356
REMARK  Name = 
REMARK  2 active torsions:
REMARK  status: ('A' for Active; 'I' for Inactive)
REMARK    1  A    between atoms: C_2  and  C_3
REMARK    2  A    between atoms: C_12  and  O_13
REMARK                            x       y       z     vdW  Elec       q    Type
REMARK                         _______ _______ _______ _____ _____    ______ ____
ROOT
ATOM      1  C   UNL     1       1.536   8.498  19.764  0.00  0.00    +0.000 A 
ATOM      2  C   UNL     1       1.599   8.361  21.138  0.00  0.00    +0.000 A 
ATOM      3  N   UNL     1       0.912   9.141  22.012  0.00  0.00    +0.000 NA
ATOM      4  C   UNL     1       0.113  10.100  21.507  0.00  0.00    +0.000 A 
ATOM      5  C   UNL     1      -0.630  10.864  22.397  0.00  0.00    +0.000 A 
ATOM      6  C   UNL     1      -1.514  11.855  21.966  0.00  0.00    +0.000 A 
ATOM      7  C   UNL     1      -1.667  12.093  20.609  0.00  0.00    +0.000 A 
ATOM      8  C   UNL     1      -0.916  11.357  19.694  0.00  0.00    +0.000 A 
ATOM      9  C   UNL     1      -0.006  10.354  20.121  0.00  0.00    +0.000 A 
ATOM     10  C   UNL     1       0.781   9.554  19.257  0.00  0.00    +0.000 A 
ENDROOT
BRANCH   1  12
ATOM     11  O   UNL     1       2.836   7.962  17.937  0.00  0.00    +0.000 OA
ATOM     12  C   UNL     1       2.281   7.519  18.943  0.00  0.00    +0.000 C 
ATOM     13  N   UNL     1       2.402   6.182  19.365  0.00  0.00    +0.000 N 
ATOM     14  C   UNL     1       3.251   5.293  18.572  0.00  0.00    +0.000 C 
ATOM     15  C   UNL     1       2.443   4.357  17.676  0.00  0.00    +0.000 C 
ATOM     16  C   UNL     1       1.710   3.239  18.413  0.00  0.00    +0.000 C 
ATOM     17  C   UNL     1       0.780   3.709  19.530  0.00  0.00    +0.000 C 
ATOM     18  C   UNL     1       1.548   4.225  20.745  0.00  0.00    +0.000 C 
ATOM     19  C   UNL     1       1.967   5.693  20.673  0.00  0.00    +0.000 C 
ENDBRANCH   1  12
BRANCH  10  20
ATOM     20  O   UNL     1       0.826   9.773  17.901  0.00  0.00    +0.000 OA
ATOM     21  H   UNL     1      -0.034  10.063  17.566  0.00  0.00    +0.000 HD
ENDBRANCH  10  20
TORSDOF 2
ENDMDL
MODEL 6
REMARK VINA RESULT:      -6.5      3.546      7.224
REMARK  Name = 
REMARK  2 active torsions:
REMARK  status: ('A' for Active; 'I' for Inactive)
REMARK    1  A    between atoms: C_2  and  C_3
REMARK    2  A    between atoms: C_12  and  O_13
REMARK                            x       y       z     vdW  Elec       q    Type
REMARK                         _______ _______ _______ _____ _____    ______ ____
ROOT
ATOM      1  C   UNL     1       2.744   6.591  18.649  0.00  0.00    +0.000 A 
ATOM      2  C   UNL     1       2.589   6.146  19.948  0.00  0.00    +0.000 A 
ATOM      3  N   UNL     1       1.968   6.856  20.925  0.00  0.00    +0.000 NA
ATOM      4  C   UNL     1       1.465   8.063  20.604  0.00  0.00    +0.000 A 
ATOM      5  C   UNL     1       0.785   8.768  21.588  0.00  0.00    +0.000 A 
ATOM      6  C   UNL     1       0.196  10.009  21.339  0.00  0.00    +0.000 A 
ATOM      7  C   UNL     1       0.282  10.567  20.073  0.00  0.00    +0.000 A 
ATOM      8  C   UNL     1       0.980   9.892  19.072  0.00  0.00    +0.000 A 
ATOM      9  C   UNL     1       1.592   8.634  19.317  0.00  0.00    +0.000 A 
ATOM     10  C   UNL     1       2.304   7.880  18.352  0.00  0.00    +0.000 A 
ENDROOT
BRANCH   1  12
ATOM     11  O   UNL     1       2.665   4.747  17.265  0.00  0.00    +0.000 OA
ATOM     12  C   UNL     1       3.372   5.667  17.679  0.00  0.00    +0.000 C 
ATOM     13  N   UNL     1       4.677   5.907  17.209  0.00  0.00    +0.000 N 
ATOM     14  C   UNL     1       5.195   5.027  16.162  0.00  0.00    +0.000 C 
ATOM     15  C   UNL     1       6.176   3.988  16.703  0.00  0.00    +0.000 C 
ATOM     16  C   UNL     1       7.538   4.545  17.113  0.00  0.00    +0.000 C 
ATOM     17  C   UNL     1       7.485   5.687  18.126  0.00  0.00    +0.000 C 
ATOM     18  C   UNL     1       6.961   6.983  17.512  0.00  0.00    +0.000 C 
ATOM     19  C   UNL     1       5.439   7.124  17.493  0.00  0.00    +0.000 C 
ENDBRANCH   1  12
BRANCH  10  20
ATOM     20  O   UNL     1       2.579   8.372  17.099  0.00  0.00    +0.000 OA
ATOM     21  H   UNL     1       1.767   8.490  16.586  0.00  0.00    +0.000 HD
ENDBRANCH  10  20
TORSDOF 2
ENDMDL
MODEL 7
REMARK VINA RESULT:      -6.5      5.842      7.799
REMARK  Name = 
REMARK  2 active torsions:
REMARK  status: ('A' for Active; 'I' for Inactive)
REMARK    1  A    between atoms: C_2  and  C_3
REMARK    2  A    between atoms: C_12  and  O_13
REMARK                            x       y       z     vdW  Elec       q    Type
REMARK                         _______ _______ _______ _____ _____    ______ ____
ROOT
ATOM      1  C   UNL     1       1.027   9.383  19.376  0.00  0.00    +0.000 A 
ATOM      2  C   UNL     1       0.827   8.531  20.445  0.00  0.00    +0.000 A 
ATOM      3  N   UNL     1       1.471   7.345  20.602  0.00  0.00    +0.000 NA
ATOM      4  C   UNL     1       2.365   6.985  19.664  0.00  0.00    +0.000 A 
ATOM      5  C   UNL     1       3.061   5.798  19.849  0.00  0.00    +0.000 A 
ATOM      6  C   UNL     1       4.036   5.361  18.950  0.00  0.00    +0.000 A 
ATOM      7  C   UNL     1       4.330   6.126  17.831  0.00  0.00    +0.000 A 
ATOM      8  C   UNL     1       3.629   7.310  17.608  0.00  0.00    +0.000 A 
ATOM      9  C   UNL     1       2.628   7.760  18.511  0.00  0.00    +0.000 A 
ATOM     10  C   UNL     1       1.884   8.955  18.362  0.00  0.00    +0.000 A 
ENDROOT
BRANCH   1  12
ATOM     11  O   UNL     1       0.759  11.543  20.138  0.00  0.00    +0.000 OA
ATOM     12  C   UNL     1       0.310  10.677  19.387  0.00  0.00    +0.000 C 
ATOM     13  N   UNL     1      -0.768  10.901  18.511  0.00  0.00    +0.000 N 
ATOM     14  C   UNL     1      -1.357  12.240  18.486  0.00  0.00    +0.000 C 
ATOM     15  C   UNL     1      -2.680  12.312  19.246  0.00  0.00    +0.000 C 
ATOM     16  C   UNL     1      -3.854  11.623  18.554  0.00  0.00    +0.000 C 
ATOM     17  C   UNL     1      -3.618  10.157  18.196  0.00  0.00    +0.000 C 
ATOM     18  C   UNL     1      -2.634   9.994  17.040  0.00  0.00    +0.000 C 
ATOM     19  C   UNL     1      -1.158   9.983  17.440  0.00  0.00    +0.000 C 
ENDBRANCH   1  12
BRANCH  10  20
ATOM     20  O   UNL     1       1.979   9.740  17.238  0.00  0.00    +0.000 OA
ATOM     21  H   UNL     1       1.583  10.609  17.386  0.00  0.00    +0.000 HD
ENDBRANCH  10  20
TORSDOF 2
ENDMDL
MODEL 8
REMARK VINA RESULT:      -6.5      2.978      4.056
REMARK  Name = 
REMARK  2 active torsions:
REMARK  status: ('A' for Active; 'I' for Inactive)
REMARK    1  A    between atoms: C_2  and  C_3
REMARK    2  A    between atoms: C_12  and  O_13
REMARK                            x       y       z     vdW  Elec       q    Type
REMARK                         _______ _______ _______ _____ _____    ______ ____
ROOT
ATOM      1  C   UNL     1       5.139   4.579  17.901  0.00  0.00    +0.000 A 
ATOM      2  C   UNL     1       6.040   4.179  18.870  0.00  0.00    +0.000 A 
ATOM      3  N   UNL     1       7.114   4.916  19.259  0.00  0.00    +0.000 NA
ATOM      4  C   UNL     1       7.304   6.111  18.672  0.00  0.00    +0.000 A 
ATOM      5  C   UNL     1       8.371   6.888  19.105  0.00  0.00    +0.000 A 
ATOM      6  C   UNL     1       8.624   8.157  18.582  0.00  0.00    +0.000 A 
ATOM      7  C   UNL     1       7.793   8.674  17.601  0.00  0.00    +0.000 A 
ATOM      8  C   UNL     1       6.729   7.906  17.130  0.00  0.00    +0.000 A 
ATOM      9  C   UNL     1       6.467   6.609  17.647  0.00  0.00    +0.000 A 
ATOM     10  C   UNL     1       5.400   5.775  17.233  0.00  0.00    +0.000 A 
ENDROOT
BRANCH   1  12
ATOM     11  O   UNL     1       3.677   3.524  16.464  0.00  0.00    +0.000 OA
ATOM     12  C   UNL     1       3.976   3.703  17.645  0.00  0.00    +0.000 C 
ATOM     13  N   UNL     1       3.324   3.055  18.711  0.00  0.00    +0.000 N 
ATOM     14  C   UNL     1       2.258   2.108  18.382  0.00  0.00    +0.000 C 
ATOM     15  C   UNL     1       0.866   2.691  18.613  0.00  0.00    +0.000 C 
ATOM     16  C   UNL     1       0.473   2.849  20.081  0.00  0.00    +0.000 C 
ATOM     17  C   UNL     1       1.451   3.667  20.923  0.00  0.00    +0.000 C 
ATOM     18  C   UNL     1       2.756   2.918  21.186  0.00  0.00    +0.000 C 
ATOM     19  C   UNL     1       3.813   3.052  20.090  0.00  0.00    +0.000 C 
ENDBRANCH   1  12
BRANCH  10  20
ATOM     20  O   UNL     1       4.581   6.105  16.180  0.00  0.00    +0.000 OA
ATOM     21  H   UNL     1       3.898   5.433  16.046  0.00  0.00    +0.000 HD
ENDBRANCH  10  20
TORSDOF 2
ENDMDL
MODEL 9
REMARK VINA RESULT:      -6.5      5.785      7.911
REMARK  Name = 
REMARK  2 active torsions:
REMARK  status: ('A' for Active; 'I' for Inactive)
REMARK    1  A    between atoms: C_2  and  C_3
REMARK    2  A    between atoms: C_12  and  O_13
REMARK                            x       y       z     vdW  Elec       q    Type
REMARK                         _______ _______ _______ _____ _____    ______ ____
ROOT
ATOM      1  C   UNL     1       1.160   9.467  19.122  0.00  0.00    +0.000 A 
ATOM      2  C   UNL     1       1.957   9.320  18.003  0.00  0.00    +0.000 A 
ATOM      3  N   UNL     1       2.709   8.218  17.745  0.00  0.00    +0.000 NA
ATOM      4  C   UNL     1       2.666   7.205  18.631  0.00  0.00    +0.000 A 
ATOM      5  C   UNL     1       3.393   6.058  18.343  0.00  0.00    +0.000 A 
ATOM      6  C   UNL     1       3.380   4.941  19.182  0.00  0.00    +0.000 A 
ATOM      7  C   UNL     1       2.620   4.963  20.341  0.00  0.00    +0.000 A 
ATOM      8  C   UNL     1       1.899   6.112  20.666  0.00  0.00    +0.000 A 
ATOM      9  C   UNL     1       1.912   7.257  19.826  0.00  0.00    +0.000 A 
ATOM     10  C   UNL     1       1.198   8.453  20.078  0.00  0.00    +0.000 A 
ENDROOT
BRANCH   1  12
ATOM     11  O   UNL     1       0.714  11.538  20.034  0.00  0.00    +0.000 OA
ATOM     12  C   UNL     1       0.338  10.693  19.221  0.00  0.00    +0.000 C 
ATOM     13  N   UNL     1      -0.755  10.888  18.357  0.00  0.00    +0.000 N 
ATOM     14  C   UNL     1      -1.454  12.172  18.423  0.00  0.00    +0.000 C 
ATOM     15  C   UNL     1      -2.778  12.080  19.178  0.00  0.00    +0.000 C 
ATOM     16  C   UNL     1      -3.891  11.346  18.433  0.00  0.00    +0.000 C 
ATOM     17  C   UNL     1      -3.533   9.934  17.974  0.00  0.00    +0.000 C 
ATOM     18  C   UNL     1      -2.539   9.935  16.815  0.00  0.00    +0.000 C 
ATOM     19  C   UNL     1      -1.068  10.019  17.221  0.00  0.00    +0.000 C 
ENDBRANCH   1  12
BRANCH  10  20
ATOM     20  O   UNL     1       0.512   8.660  21.251  0.00  0.00    +0.000 OA
ATOM     21  H   UNL     1      -0.436   8.761  21.086  0.00  0.00    +0.000 HD
ENDBRANCH  10  20
TORSDOF 2
ENDMDL
