MODEL 1
REMARK VINA RESULT:      -8.4      0.000      0.000
REMARK  Name = 
REMARK  7 active torsions:
REMARK  status: ('A' for Active; 'I' for Inactive)
REMARK    1  A    between atoms: C_1  and  O_2
REMARK    2  A    between atoms: O_2  and  C_3
REMARK    3  A    between atoms: C_6  and  C_7
REMARK    4  A    between atoms: C_10  and  C_11
REMARK    5  A    between atoms: C_11  and  O_12
REMARK    6  A    between atoms: O_12  and  C_13
REMARK    7  A    between atoms: C_18  and  N_19
REMARK                            x       y       z     vdW  Elec       q    Type
REMARK                         _______ _______ _______ _____ _____    ______ ____
ROOT
ATOM      1  C   UNL     1       0.941   8.969  20.402  0.00  0.00    +0.000 A 
ATOM      2  C   UNL     1       1.345   9.251  19.086  0.00  0.00    +0.000 A 
ATOM      3  C   UNL     1       2.139   8.357  18.357  0.00  0.00    +0.000 A 
ATOM      4  C   UNL     1       2.565   7.158  18.932  0.00  0.00    +0.000 A 
ATOM      5  C   UNL     1       2.183   6.866  20.244  0.00  0.00    +0.000 A 
ATOM      6  C   UNL     1       1.377   7.756  20.962  0.00  0.00    +0.000 A 
ENDROOT
BRANCH   1  10
ATOM      7  C   UNL     1      -1.401  11.662  22.701  0.00  0.00    +0.000 A 
ATOM      8  C   UNL     1      -1.197  11.960  21.365  0.00  0.00    +0.000 A 
ATOM      9  C   UNL     1      -0.442  11.074  20.596  0.00  0.00    +0.000 A 
ATOM     10  C   UNL     1       0.110   9.919  21.170  0.00  0.00    +0.000 A 
ATOM     11  C   UNL     1      -0.167   9.733  22.527  0.00  0.00    +0.000 A 
ATOM     12  N   UNL     1      -0.909  10.561  23.299  0.00  0.00    +0.000 NA
BRANCH   7  14
ATOM     13  C   UNL     1      -1.656  13.911  23.279  0.00  0.00    +0.000 C 
ATOM     14  O   UNL     1      -2.135  12.572  23.433  0.00  0.00    +0.000 OA
ENDBRANCH   7  14
ENDBRANCH   1  10
BRANCH   4  15
ATOM     15  C   UNL     1       3.411   6.194  18.144  0.00  0.00    +0.000 C 
BRANCH  15  16
ATOM     16  O   UNL     1       4.519   5.792  18.951  0.00  0.00    +0.000 OA
BRANCH  16  17
ATOM     17  C   UNL     1       5.668   5.349  18.210  0.00  0.00    +0.000 C 
ATOM     18  C   UNL     1       6.385   6.538  17.544  0.00  0.00    +0.000 C 
ATOM     19  O   UNL     1       7.225   6.217  16.444  0.00  0.00    +0.000 OA
ATOM     20  C   UNL     1       6.702   5.372  15.569  0.00  0.00    +0.000 A 
ATOM     21  N   UNL     1       7.085   5.277  14.322  0.00  0.00    +0.000 NA
ATOM     22  C   UNL     1       6.380   4.196  13.827  0.00  0.00    +0.000 A 
ATOM     23  C   UNL     1       5.574   3.636  14.806  0.00  0.00    +0.000 A 
ATOM     24  N   UNL     1       5.774   4.430  15.895  0.00  0.00    +0.000 N 
ATOM     25  C   UNL     1       5.179   4.298  17.201  0.00  0.00    +0.000 C 
BRANCH  22  26
ATOM     26  N   UNL     1       6.550   3.751  12.466  0.00  0.00    +0.000 N 
ATOM     27  O   UNL     1       5.741   2.905  12.054  0.00  0.00    +0.000 OA
ATOM     28  O   UNL     1       7.477   4.243  11.806  0.00  0.00    +0.000 OA
ENDBRANCH  22  26
ENDBRANCH  16  17
ENDBRANCH  15  16
ENDBRANCH   4  15
TORSDOF 6
ENDMDL
MODEL 2
REMARK VINA RESULT:      -8.4      1.221      1.636
REMARK  Name = 
REMARK  7 active torsions:
REMARK  status: ('A' for Active; 'I' for Inactive)
REMARK    1  A    between atoms: C_1  and  O_2
REMARK    2  A    between atoms: O_2  and  C_3
REMARK    3  A    between atoms: C_6  and  C_7
REMARK    4  A    between atoms: C_10  and  C_11
REMARK    5  A    between atoms: C_11  and  O_12
REMARK    6  A    between atoms: O_12  and  C_13
REMARK    7  A    between atoms: C_18  and  N_19
REMARK                            x       y       z     vdW  Elec       q    Type
REMARK                         _______ _______ _______ _____ _____    ______ ____
ROOT
ATOM      1  C   UNL     1       1.369   8.064  20.315  0.00  0.00    +0.000 A 
ATOM      2  C   UNL     1       2.026   8.230  19.083  0.00  0.00    +0.000 A 
ATOM      3  C   UNL     1       2.630   7.152  18.426  0.00  0.00    +0.000 A 
ATOM      4  C   UNL     1       2.608   5.876  18.990  0.00  0.00    +0.000 A 
ATOM      5  C   UNL     1       1.970   5.693  20.220  0.00  0.00    +0.000 A 
ATOM      6  C   UNL     1       1.354   6.771  20.865  0.00  0.00    +0.000 A 
ENDROOT
BRANCH   1  10
ATOM      7  C   UNL     1      -0.464  11.388  22.215  0.00  0.00    +0.000 A 
ATOM      8  C   UNL     1      -0.345  10.215  22.938  0.00  0.00    +0.000 A 
ATOM      9  C   UNL     1       0.270   9.120  22.329  0.00  0.00    +0.000 A 
ATOM     10  C   UNL     1       0.739   9.206  21.009  0.00  0.00    +0.000 A 
ATOM     11  C   UNL     1       0.558  10.443  20.387  0.00  0.00    +0.000 A 
ATOM     12  N   UNL     1      -0.017  11.531  20.953  0.00  0.00    +0.000 NA
BRANCH   7  14
ATOM     13  C   UNL     1      -2.368  12.073  23.381  0.00  0.00    +0.000 C 
ATOM     14  O   UNL     1      -1.095  12.441  22.843  0.00  0.00    +0.000 OA
ENDBRANCH   7  14
ENDBRANCH   1  10
BRANCH   4  15
ATOM     15  C   UNL     1       3.251   4.716  18.276  0.00  0.00    +0.000 C 
BRANCH  15  16
ATOM     16  O   UNL     1       4.321   4.221  19.082  0.00  0.00    +0.000 OA
BRANCH  16  17
ATOM     17  C   UNL     1       5.517   3.896  18.352  0.00  0.00    +0.000 C 
ATOM     18  C   UNL     1       6.543   5.042  18.440  0.00  0.00    +0.000 C 
ATOM     19  O   UNL     1       7.538   5.061  17.425  0.00  0.00    +0.000 OA
ATOM     20  C   UNL     1       7.086   4.863  16.197  0.00  0.00    +0.000 A 
ATOM     21  N   UNL     1       7.709   5.255  15.115  0.00  0.00    +0.000 NA
ATOM     22  C   UNL     1       6.962   4.727  14.078  0.00  0.00    +0.000 A 
ATOM     23  C   UNL     1       5.885   4.000  14.559  0.00  0.00    +0.000 A 
ATOM     24  N   UNL     1       5.970   4.136  15.912  0.00  0.00    +0.000 N 
ATOM     25  C   UNL     1       5.094   3.575  16.910  0.00  0.00    +0.000 C 
BRANCH  22  26
ATOM     26  N   UNL     1       7.348   4.923  12.703  0.00  0.00    +0.000 N 
ATOM     27  O   UNL     1       8.006   5.946  12.453  0.00  0.00    +0.000 OA
ATOM     28  O   UNL     1       7.008   4.066  11.875  0.00  0.00    +0.000 OA
ENDBRANCH  22  26
ENDBRANCH  16  17
ENDBRANCH  15  16
ENDBRANCH   4  15
TORSDOF 6
ENDMDL
MODEL 3
REMARK VINA RESULT:      -8.4      1.324      1.605
REMARK  Name = 
REMARK  7 active torsions:
REMARK  status: ('A' for Active; 'I' for Inactive)
REMARK    1  A    between atoms: C_1  and  O_2
REMARK    2  A    between atoms: O_2  and  C_3
REMARK    3  A    between atoms: C_6  and  C_7
REMARK    4  A    between atoms: C_10  and  C_11
REMARK    5  A    between atoms: C_11  and  O_12
REMARK    6  A    between atoms: O_12  and  C_13
REMARK    7  A    between atoms: C_18  and  N_19
REMARK                            x       y       z     vdW  Elec       q    Type
REMARK                         _______ _______ _______ _____ _____    ______ ____
ROOT
ATOM      1  C   UNL     1       0.476   9.620  20.461  0.00  0.00    +0.000 A 
ATOM      2  C   UNL     1       0.792   9.851  19.111  0.00  0.00    +0.000 A 
ATOM      3  C   UNL     1       1.634   8.989  18.399  0.00  0.00    +0.000 A 
ATOM      4  C   UNL     1       2.199   7.875  19.022  0.00  0.00    +0.000 A 
ATOM      5  C   UNL     1       1.905   7.636  20.368  0.00  0.00    +0.000 A 
ATOM      6  C   UNL     1       1.051   8.492  21.070  0.00  0.00    +0.000 A 
ENDROOT
BRANCH   1  10
ATOM      7  C   UNL     1      -2.102  12.289  22.524  0.00  0.00    +0.000 A 
ATOM      8  C   UNL     1      -1.593  11.209  23.224  0.00  0.00    +0.000 A 
ATOM      9  C   UNL     1      -0.732  10.334  22.561  0.00  0.00    +0.000 A 
ATOM     10  C   UNL     1      -0.406  10.537  21.211  0.00  0.00    +0.000 A 
ATOM     11  C   UNL     1      -0.986  11.660  20.616  0.00  0.00    +0.000 A 
ATOM     12  N   UNL     1      -1.810  12.540  21.233  0.00  0.00    +0.000 NA
BRANCH   7  14
ATOM     13  C   UNL     1      -3.757  12.414  24.166  0.00  0.00    +0.000 C 
ATOM     14  O   UNL     1      -2.965  13.119  23.207  0.00  0.00    +0.000 OA
ENDBRANCH   7  14
ENDBRANCH   1  10
BRANCH   4  15
ATOM     15  C   UNL     1       3.097   6.944  18.252  0.00  0.00    +0.000 C 
BRANCH  15  16
ATOM     16  O   UNL     1       3.573   5.931  19.139  0.00  0.00    +0.000 OA
BRANCH  16  17
ATOM     17  C   UNL     1       4.494   5.001  18.544  0.00  0.00    +0.000 C 
ATOM     18  C   UNL     1       5.948   5.363  18.902  0.00  0.00    +0.000 C 
ATOM     19  O   UNL     1       6.947   4.836  18.041  0.00  0.00    +0.000 OA
ATOM     20  C   UNL     1       6.689   4.954  16.748  0.00  0.00    +0.000 A 
ATOM     21  N   UNL     1       7.604   4.947  15.813  0.00  0.00    +0.000 NA
ATOM     22  C   UNL     1       6.888   4.956  14.630  0.00  0.00    +0.000 A 
ATOM     23  C   UNL     1       5.524   4.957  14.874  0.00  0.00    +0.000 A 
ATOM     24  N   UNL     1       5.428   4.993  16.232  0.00  0.00    +0.000 N 
ATOM     25  C   UNL     1       4.228   5.006  17.030  0.00  0.00    +0.000 C 
BRANCH  22  26
ATOM     26  N   UNL     1       7.555   4.927  13.352  0.00  0.00    +0.000 N 
ATOM     27  O   UNL     1       7.080   4.163  12.496  0.00  0.00    +0.000 OA
ATOM     28  O   UNL     1       8.541   5.662  13.194  0.00  0.00    +0.000 OA
ENDBRANCH  22  26
ENDBRANCH  16  17
ENDBRANCH  15  16
ENDBRANCH   4  15
TORSDOF 6
ENDMDL
MODEL 4
REMARK VINA RESULT:      -8.3      0.758      1.511
REMARK  Name = 
REMARK  7 active torsions:
REMARK  status: ('A' for Active; 'I' for Inactive)
REMARK    1  A    between atoms: C_1  and  O_2
REMARK    2  A    between atoms: O_2  and  C_3
REMARK    3  A    between atoms: C_6  and  C_7
REMARK    4  A    between atoms: C_10  and  C_11
REMARK    5  A    between atoms: C_11  and  O_12
REMARK    6  A    between atoms: O_12  and  C_13
REMARK    7  A    between atoms: C_18  and  N_19
REMARK                            x       y       z     vdW  Elec       q    Type
REMARK                         _______ _______ _______ _____ _____    ______ ____
ROOT
ATOM      1  C   UNL     1       1.073   8.527  20.575  0.00  0.00    +0.000 A 
ATOM      2  C   UNL     1       1.283   7.253  21.132  0.00  0.00    +0.000 A 
ATOM      3  C   UNL     1       2.050   6.285  20.474  0.00  0.00    +0.000 A 
ATOM      4  C   UNL     1       2.619   6.558  19.229  0.00  0.00    +0.000 A 
ATOM      5  C   UNL     1       2.413   7.815  18.654  0.00  0.00    +0.000 A 
ATOM      6  C   UNL     1       1.658   8.784  19.324  0.00  0.00    +0.000 A 
ENDROOT
BRANCH   1  10
ATOM      7  C   UNL     1      -1.311  11.482  22.473  0.00  0.00    +0.000 A 
ATOM      8  C   UNL     1      -0.930  10.381  23.219  0.00  0.00    +0.000 A 
ATOM      9  C   UNL     1      -0.133   9.411  22.611  0.00  0.00    +0.000 A 
ATOM     10  C   UNL     1       0.256   9.543  21.269  0.00  0.00    +0.000 A 
ATOM     11  C   UNL     1      -0.195  10.698  20.624  0.00  0.00    +0.000 A 
ATOM     12  N   UNL     1      -0.954  11.667  21.188  0.00  0.00    +0.000 NA
BRANCH   7  14
ATOM     13  C   UNL     1      -1.773  13.754  22.757  0.00  0.00    +0.000 C 
ATOM     14  O   UNL     1      -2.115  12.409  23.103  0.00  0.00    +0.000 OA
ENDBRANCH   7  14
ENDBRANCH   1  10
BRANCH   4  15
ATOM     15  C   UNL     1       3.452   5.518  18.527  0.00  0.00    +0.000 C 
BRANCH  15  16
ATOM     16  O   UNL     1       4.616   5.258  19.313  0.00  0.00    +0.000 OA
BRANCH  16  17
ATOM     17  C   UNL     1       5.755   4.805  18.562  0.00  0.00    +0.000 C 
ATOM     18  C   UNL     1       6.672   5.984  18.188  0.00  0.00    +0.000 C 
ATOM     19  O   UNL     1       7.550   5.763  17.093  0.00  0.00    +0.000 OA
ATOM     20  C   UNL     1       6.995   5.184  16.040  0.00  0.00    +0.000 A 
ATOM     21  N   UNL     1       7.463   5.275  14.822  0.00  0.00    +0.000 NA
ATOM     22  C   UNL     1       6.666   4.420  14.082  0.00  0.00    +0.000 A 
ATOM     23  C   UNL     1       5.718   3.805  14.884  0.00  0.00    +0.000 A 
ATOM     24  N   UNL     1       5.929   4.339  16.119  0.00  0.00    +0.000 N 
ATOM     25  C   UNL     1       5.218   4.047  17.338  0.00  0.00    +0.000 C 
BRANCH  22  26
ATOM     26  N   UNL     1       6.888   4.225  12.671  0.00  0.00    +0.000 N 
ATOM     27  O   UNL     1       7.696   4.993  12.125  0.00  0.00    +0.000 OA
ATOM     28  O   UNL     1       6.270   3.310  12.106  0.00  0.00    +0.000 OA
ENDBRANCH  22  26
ENDBRANCH  16  17
ENDBRANCH  15  16
ENDBRANCH   4  15
TORSDOF 6
ENDMDL
MODEL 5
REMARK VINA RESULT:      -8.3      2.212      2.556
REMARK  Name = 
REMARK  7 active torsions:
REMARK  status: ('A' for Active; 'I' for Inactive)
REMARK    1  A    between atoms: C_1  and  O_2
REMARK    2  A    between atoms: O_2  and  C_3
REMARK    3  A    between atoms: C_6  and  C_7
REMARK    4  A    between atoms: C_10  and  C_11
REMARK    5  A    between atoms: C_11  and  O_12
REMARK    6  A    between atoms: O_12  and  C_13
REMARK    7  A    between atoms: C_18  and  N_19
REMARK                            x       y       z     vdW  Elec       q    Type
REMARK                         _______ _______ _______ _____ _____    ______ ____
ROOT
ATOM      1  C   UNL     1       1.401   8.844  19.362  0.00  0.00    +0.000 A 
ATOM      2  C   UNL     1       1.320   8.114  20.560  0.00  0.00    +0.000 A 
ATOM      3  C   UNL     1       1.935   6.865  20.699  0.00  0.00    +0.000 A 
ATOM      4  C   UNL     1       2.639   6.300  19.634  0.00  0.00    +0.000 A 
ATOM      5  C   UNL     1       2.722   7.006  18.430  0.00  0.00    +0.000 A 
ATOM      6  C   UNL     1       2.118   8.261  18.303  0.00  0.00    +0.000 A 
ENDROOT
BRANCH   1  10
ATOM      7  C   UNL     1      -0.397  12.670  18.974  0.00  0.00    +0.000 A 
ATOM      8  C   UNL     1      -0.975  11.612  18.295  0.00  0.00    +0.000 A 
ATOM      9  C   UNL     1      -0.402  10.347  18.428  0.00  0.00    +0.000 A 
ATOM     10  C   UNL     1       0.743  10.159  19.217  0.00  0.00    +0.000 A 
ATOM     11  C   UNL     1       1.232  11.306  19.848  0.00  0.00    +0.000 A 
ATOM     12  N   UNL     1       0.691  12.544  19.756  0.00  0.00    +0.000 NA
BRANCH   7  14
ATOM     13  C   UNL     1      -0.038  14.977  18.930  0.00  0.00    +0.000 C 
ATOM     14  O   UNL     1      -0.979  13.908  18.802  0.00  0.00    +0.000 OA
ENDBRANCH   7  14
ENDBRANCH   1  10
BRANCH   4  15
ATOM     15  C   UNL     1       3.309   4.960  19.788  0.00  0.00    +0.000 C 
BRANCH  15  16
ATOM     16  O   UNL     1       3.217   4.258  18.548  0.00  0.00    +0.000 OA
BRANCH  16  17
ATOM     17  C   UNL     1       4.473   3.776  18.040  0.00  0.00    +0.000 C 
ATOM     18  C   UNL     1       5.641   4.643  18.548  0.00  0.00    +0.000 C 
ATOM     19  O   UNL     1       6.839   4.576  17.787  0.00  0.00    +0.000 OA
ATOM     20  C   UNL     1       6.672   4.651  16.476  0.00  0.00    +0.000 A 
ATOM     21  N   UNL     1       7.602   5.036  15.640  0.00  0.00    +0.000 NA
ATOM     22  C   UNL     1       7.045   4.831  14.390  0.00  0.00    +0.000 A 
ATOM     23  C   UNL     1       5.768   4.304  14.493  0.00  0.00    +0.000 A 
ATOM     24  N   UNL     1       5.544   4.235  15.835  0.00  0.00    +0.000 N 
ATOM     25  C   UNL     1       4.363   3.755  16.507  0.00  0.00    +0.000 C 
BRANCH  22  26
ATOM     26  N   UNL     1       7.785   5.119  13.187  0.00  0.00    +0.000 N 
ATOM     27  O   UNL     1       7.385   4.573  12.146  0.00  0.00    +0.000 OA
ATOM     28  O   UNL     1       8.754   5.889  13.270  0.00  0.00    +0.000 OA
ENDBRANCH  22  26
ENDBRANCH  16  17
ENDBRANCH  15  16
ENDBRANCH   4  15
TORSDOF 6
ENDMDL
MODEL 6
REMARK VINA RESULT:      -8.3      1.028      1.517
REMARK  Name = 
REMARK  7 active torsions:
REMARK  status: ('A' for Active; 'I' for Inactive)
REMARK    1  A    between atoms: C_1  and  O_2
REMARK    2  A    between atoms: O_2  and  C_3
REMARK    3  A    between atoms: C_6  and  C_7
REMARK    4  A    between atoms: C_10  and  C_11
REMARK    5  A    between atoms: C_11  and  O_12
REMARK    6  A    between atoms: O_12  and  C_13
REMARK    7  A    between atoms: C_18  and  N_19
REMARK                            x       y       z     vdW  Elec       q    Type
REMARK                         _______ _______ _______ _____ _____    ______ ____
ROOT
ATOM      1  C   UNL     1       1.203   8.723  19.960  0.00  0.00    +0.000 A 
ATOM      2  C   UNL     1       1.427   7.599  20.774  0.00  0.00    +0.000 A 
ATOM      3  C   UNL     1       2.229   6.535  20.346  0.00  0.00    +0.000 A 
ATOM      4  C   UNL     1       2.821   6.557  19.082  0.00  0.00    +0.000 A 
ATOM      5  C   UNL     1       2.600   7.661  18.254  0.00  0.00    +0.000 A 
ATOM      6  C   UNL     1       1.810   8.729  18.693  0.00  0.00    +0.000 A 
ENDROOT
BRANCH   1  10
ATOM      7  C   UNL     1      -1.318  11.915  21.175  0.00  0.00    +0.000 A 
ATOM      8  C   UNL     1      -0.495  11.342  22.127  0.00  0.00    +0.000 A 
ATOM      9  C   UNL     1       0.350  10.303  21.736  0.00  0.00    +0.000 A 
ATOM     10  C   UNL     1       0.349   9.840  20.412  0.00  0.00    +0.000 A 
ATOM     11  C   UNL     1      -0.530  10.499  19.547  0.00  0.00    +0.000 A 
ATOM     12  N   UNL     1      -1.349  11.521  19.887  0.00  0.00    +0.000 NA
BRANCH   7  14
ATOM     13  C   UNL     1      -3.093  12.478  22.585  0.00  0.00    +0.000 C 
ATOM     14  O   UNL     1      -2.153  12.925  21.604  0.00  0.00    +0.000 OA
ENDBRANCH   7  14
ENDBRANCH   1  10
BRANCH   4  15
ATOM     15  C   UNL     1       3.691   5.415  18.627  0.00  0.00    +0.000 C 
BRANCH  15  16
ATOM     16  O   UNL     1       4.969   5.538  19.254  0.00  0.00    +0.000 OA
BRANCH  16  17
ATOM     17  C   UNL     1       6.082   5.193  18.412  0.00  0.00    +0.000 C 
ATOM     18  C   UNL     1       6.670   6.447  17.738  0.00  0.00    +0.000 C 
ATOM     19  O   UNL     1       7.441   6.216  16.566  0.00  0.00    +0.000 OA
ATOM     20  C   UNL     1       6.903   5.369  15.703  0.00  0.00    +0.000 A 
ATOM     21  N   UNL     1       7.193   5.339  14.428  0.00  0.00    +0.000 NA
ATOM     22  C   UNL     1       6.519   4.231  13.947  0.00  0.00    +0.000 A 
ATOM     23  C   UNL     1       5.828   3.590  14.963  0.00  0.00    +0.000 A 
ATOM     24  N   UNL     1       6.063   4.359  16.062  0.00  0.00    +0.000 N 
ATOM     25  C   UNL     1       5.581   4.147  17.404  0.00  0.00    +0.000 C 
BRANCH  22  26
ATOM     26  N   UNL     1       6.610   3.844  12.562  0.00  0.00    +0.000 N 
ATOM     27  O   UNL     1       5.839   2.946  12.186  0.00  0.00    +0.000 OA
ATOM     28  O   UNL     1       7.437   4.429  11.847  0.00  0.00    +0.000 OA
ENDBRANCH  22  26
ENDBRANCH  16  17
ENDBRANCH  15  16
ENDBRANCH   4  15
TORSDOF 6
ENDMDL
MODEL 7
REMARK VINA RESULT:      -8.3      2.030      2.456
REMARK  Name = 
REMARK  7 active torsions:
REMARK  status: ('A' for Active; 'I' for Inactive)
REMARK    1  A    between atoms: C_1  and  O_2
REMARK    2  A    between atoms: O_2  and  C_3
REMARK    3  A    between atoms: C_6  and  C_7
REMARK    4  A    between atoms: C_10  and  C_11
REMARK    5  A    between atoms: C_11  and  O_12
REMARK    6  A    between atoms: O_12  and  C_13
REMARK    7  A    between atoms: C_18  and  N_19
REMARK                            x       y       z     vdW  Elec       q    Type
REMARK                         _______ _______ _______ _____ _____    ______ ____
ROOT
ATOM      1  C   UNL     1       1.419   9.382  19.060  0.00  0.00    +0.000 A 
ATOM      2  C   UNL     1       1.384   8.568  20.206  0.00  0.00    +0.000 A 
ATOM      3  C   UNL     1       1.914   7.273  20.200  0.00  0.00    +0.000 A 
ATOM      4  C   UNL     1       2.483   6.746  19.039  0.00  0.00    +0.000 A 
ATOM      5  C   UNL     1       2.517   7.536  17.887  0.00  0.00    +0.000 A 
ATOM      6  C   UNL     1       2.000   8.836  17.904  0.00  0.00    +0.000 A 
ENDROOT
BRANCH   1  10
ATOM      7  C   UNL     1      -0.293  13.265  19.148  0.00  0.00    +0.000 A 
ATOM      8  C   UNL     1       1.050  13.157  18.835  0.00  0.00    +0.000 A 
ATOM      9  C   UNL     1       1.620  11.885  18.788  0.00  0.00    +0.000 A 
ATOM     10  C   UNL     1       0.851  10.745  19.069  0.00  0.00    +0.000 A 
ATOM     11  C   UNL     1      -0.491  10.988  19.373  0.00  0.00    +0.000 A 
ATOM     12  N   UNL     1      -1.081  12.205  19.410  0.00  0.00    +0.000 NA
BRANCH   7  14
ATOM     13  C   UNL     1       0.127  15.536  18.796  0.00  0.00    +0.000 C 
ATOM     14  O   UNL     1      -0.815  14.540  19.205  0.00  0.00    +0.000 OA
ENDBRANCH   7  14
ENDBRANCH   1  10
BRANCH   4  15
ATOM     15  C   UNL     1       3.061   5.356  19.038  0.00  0.00    +0.000 C 
BRANCH  15  16
ATOM     16  O   UNL     1       4.318   5.383  19.715  0.00  0.00    +0.000 OA
BRANCH  16  17
ATOM     17  C   UNL     1       5.393   4.742  19.007  0.00  0.00    +0.000 C 
ATOM     18  C   UNL     1       6.622   5.667  18.919  0.00  0.00    +0.000 C 
ATOM     19  O   UNL     1       7.551   5.364  17.887  0.00  0.00    +0.000 OA
ATOM     20  C   UNL     1       7.011   5.109  16.706  0.00  0.00    +0.000 A 
ATOM     21  N   UNL     1       7.644   5.233  15.568  0.00  0.00    +0.000 NA
ATOM     22  C   UNL     1       6.760   4.737  14.627  0.00  0.00    +0.000 A 
ATOM     23  C   UNL     1       5.589   4.301  15.225  0.00  0.00    +0.000 A 
ATOM     24  N   UNL     1       5.764   4.584  16.546  0.00  0.00    +0.000 N 
ATOM     25  C   UNL     1       4.847   4.334  17.629  0.00  0.00    +0.000 C 
BRANCH  22  26
ATOM     26  N   UNL     1       7.110   4.682  13.229  0.00  0.00    +0.000 N 
ATOM     27  O   UNL     1       6.545   3.809  12.551  0.00  0.00    +0.000 OA
ATOM     28  O   UNL     1       7.935   5.504  12.803  0.00  0.00    +0.000 OA
ENDBRANCH  22  26
ENDBRANCH  16  17
ENDBRANCH  15  16
ENDBRANCH   4  15
TORSDOF 6
ENDMDL
MODEL 8
REMARK VINA RESULT:      -8.2      1.463      2.007
REMARK  Name = 
REMARK  7 active torsions:
REMARK  status: ('A' for Active; 'I' for Inactive)
REMARK    1  A    between atoms: C_1  and  O_2
REMARK    2  A    between atoms: O_2  and  C_3
REMARK    3  A    between atoms: C_6  and  C_7
REMARK    4  A    between atoms: C_10  and  C_11
REMARK    5  A    between atoms: C_11  and  O_12
REMARK    6  A    between atoms: O_12  and  C_13
REMARK    7  A    between atoms: C_18  and  N_19
REMARK                            x       y       z     vdW  Elec       q    Type
REMARK                         _______ _______ _______ _____ _____    ______ ____
ROOT
ATOM      1  C   UNL     1       1.311   8.895  19.473  0.00  0.00    +0.000 A 
ATOM      2  C   UNL     1       1.359   7.917  20.482  0.00  0.00    +0.000 A 
ATOM      3  C   UNL     1       2.104   6.742  20.327  0.00  0.00    +0.000 A 
ATOM      4  C   UNL     1       2.813   6.503  19.148  0.00  0.00    +0.000 A 
ATOM      5  C   UNL     1       2.768   7.459  18.129  0.00  0.00    +0.000 A 
ATOM      6  C   UNL     1       2.034   8.638  18.296  0.00  0.00    +0.000 A 
ENDROOT
BRANCH   1  10
ATOM      7  C   UNL     1      -0.959  12.463  19.840  0.00  0.00    +0.000 A 
ATOM      8  C   UNL     1      -1.135  11.483  20.800  0.00  0.00    +0.000 A 
ATOM      9  C   UNL     1      -0.383  10.312  20.698  0.00  0.00    +0.000 A 
ATOM     10  C   UNL     1       0.517  10.129  19.637  0.00  0.00    +0.000 A 
ATOM     11  C   UNL     1       0.602  11.191  18.734  0.00  0.00    +0.000 A 
ATOM     12  N   UNL     1      -0.098  12.348  18.811  0.00  0.00    +0.000 NA
BRANCH   7  14
ATOM     13  C   UNL     1      -2.025  13.915  21.327  0.00  0.00    +0.000 C 
ATOM     14  O   UNL     1      -1.734  13.597  19.963  0.00  0.00    +0.000 OA
ENDBRANCH   7  14
ENDBRANCH   1  10
BRANCH   4  15
ATOM     15  C   UNL     1       3.621   5.243  18.987  0.00  0.00    +0.000 C 
BRANCH  15  16
ATOM     16  O   UNL     1       4.933   5.472  19.503  0.00  0.00    +0.000 OA
BRANCH  16  17
ATOM     17  C   UNL     1       5.995   4.940  18.694  0.00  0.00    +0.000 C 
ATOM     18  C   UNL     1       6.933   6.061  18.211  0.00  0.00    +0.000 C 
ATOM     19  O   UNL     1       7.722   5.760  17.067  0.00  0.00    +0.000 OA
ATOM     20  C   UNL     1       7.068   5.170  16.079  0.00  0.00    +0.000 A 
ATOM     21  N   UNL     1       7.453   5.195  14.828  0.00  0.00    +0.000 NA
ATOM     22  C   UNL     1       6.569   4.351  14.180  0.00  0.00    +0.000 A 
ATOM     23  C   UNL     1       5.654   3.810  15.069  0.00  0.00    +0.000 A 
ATOM     24  N   UNL     1       5.975   4.379  16.265  0.00  0.00    +0.000 N 
ATOM     25  C   UNL     1       5.340   4.164  17.540  0.00  0.00    +0.000 C 
BRANCH  22  26
ATOM     26  N   UNL     1       6.682   4.094  12.766  0.00  0.00    +0.000 N 
ATOM     27  O   UNL     1       7.554   4.732  12.155  0.00  0.00    +0.000 OA
ATOM     28  O   UNL     1       5.914   3.260  12.263  0.00  0.00    +0.000 OA
ENDBRANCH  22  26
ENDBRANCH  16  17
ENDBRANCH  15  16
ENDBRANCH   4  15
TORSDOF 6
ENDMDL
MODEL 9
REMARK VINA RESULT:      -8.1      1.691      2.070
REMARK  Name = 
REMARK  7 active torsions:
REMARK  status: ('A' for Active; 'I' for Inactive)
REMARK    1  A    between atoms: C_1  and  O_2
REMARK    2  A    between atoms: O_2  and  C_3
REMARK    3  A    between atoms: C_6  and  C_7
REMARK    4  A    between atoms: C_10  and  C_11
REMARK    5  A    between atoms: C_11  and  O_12
REMARK    6  A    between atoms: O_12  and  C_13
REMARK    7  A    between atoms: C_18  and  N_19
REMARK                            x       y       z     vdW  Elec       q    Type
REMARK                         _______ _______ _______ _____ _____    ______ ____
ROOT
ATOM      1  C   UNL     1       1.492   8.877  19.254  0.00  0.00    +0.000 A 
ATOM      2  C   UNL     1       1.984   8.467  18.002  0.00  0.00    +0.000 A 
ATOM      3  C   UNL     1       2.481   7.173  17.800  0.00  0.00    +0.000 A 
ATOM      4  C   UNL     1       2.513   6.255  18.850  0.00  0.00    +0.000 A 
ATOM      5  C   UNL     1       2.038   6.648  20.105  0.00  0.00    +0.000 A 
ATOM      6  C   UNL     1       1.529   7.936  20.297  0.00  0.00    +0.000 A 
ENDROOT
BRANCH   1  10
ATOM      7  C   UNL     1      -0.013  12.782  19.963  0.00  0.00    +0.000 A 
ATOM      8  C   UNL     1       0.897  12.616  18.935  0.00  0.00    +0.000 A 
ATOM      9  C   UNL     1       1.386  11.335  18.682  0.00  0.00    +0.000 A 
ATOM     10  C   UNL     1       0.977  10.245  19.465  0.00  0.00    +0.000 A 
ATOM     11  C   UNL     1       0.058  10.543  20.474  0.00  0.00    +0.000 A 
ATOM     12  N   UNL     1      -0.452  11.770  20.736  0.00  0.00    +0.000 NA
BRANCH   7  14
ATOM     13  C   UNL     1       0.392  15.054  19.608  0.00  0.00    +0.000 C 
ATOM     14  O   UNL     1      -0.459  14.066  20.195  0.00  0.00    +0.000 OA
ENDBRANCH   7  14
ENDBRANCH   1  10
BRANCH   4  15
ATOM     15  C   UNL     1       3.038   4.861  18.628  0.00  0.00    +0.000 C 
BRANCH  15  16
ATOM     16  O   UNL     1       4.133   4.638  19.517  0.00  0.00    +0.000 OA
BRANCH  16  17
ATOM     17  C   UNL     1       5.383   4.355  18.866  0.00  0.00    +0.000 C 
ATOM     18  C   UNL     1       6.281   5.606  18.831  0.00  0.00    +0.000 C 
ATOM     19  O   UNL     1       7.307   5.604  17.848  0.00  0.00    +0.000 OA
ATOM     20  C   UNL     1       6.926   5.206  16.644  0.00  0.00    +0.000 A 
ATOM     21  N   UNL     1       7.547   5.523  15.537  0.00  0.00    +0.000 NA
ATOM     22  C   UNL     1       6.899   4.791  14.558  0.00  0.00    +0.000 A 
ATOM     23  C   UNL     1       5.885   4.020  15.102  0.00  0.00    +0.000 A 
ATOM     24  N   UNL     1       5.903   4.333  16.428  0.00  0.00    +0.000 N 
ATOM     25  C   UNL     1       5.052   3.811  17.467  0.00  0.00    +0.000 C 
BRANCH  22  26
ATOM     26  N   UNL     1       7.316   4.854  13.179  0.00  0.00    +0.000 N 
ATOM     27  O   UNL     1       8.153   5.725  12.892  0.00  0.00    +0.000 OA
ATOM     28  O   UNL     1       6.822   4.040  12.385  0.00  0.00    +0.000 OA
ENDBRANCH  22  26
ENDBRANCH  16  17
ENDBRANCH  15  16
ENDBRANCH   4  15
TORSDOF 6
ENDMDL
