MODEL 1
REMARK VINA RESULT:      -8.3      0.000      0.000
REMARK  Name = 
REMARK  2 active torsions:
REMARK  status: ('A' for Active; 'I' for Inactive)
REMARK    1  A    between atoms: C_2  and  C_3
REMARK    2  A    between atoms: C_9  and  C_10
REMARK                            x       y       z     vdW  Elec       q    Type
REMARK                         _______ _______ _______ _____ _____    ______ ____
ROOT
ATOM      1  C   UNL     1       2.300   7.636  18.638  0.00  0.00    +0.000 A 
ATOM      2  C   UNL     1       1.816   7.802  19.934  0.00  0.00    +0.000 A 
ATOM      3  C   UNL     1       1.788   6.711  20.806  0.00  0.00    +0.000 A 
ATOM      4  C   UNL     1       2.233   5.447  20.391  0.00  0.00    +0.000 A 
ATOM      5  C   UNL     1       2.771   5.297  19.102  0.00  0.00    +0.000 A 
ATOM      6  C   UNL     1       2.768   6.391  18.215  0.00  0.00    +0.000 A 
ATOM      7  C   UNL     1       3.463   4.041  18.664  0.00  0.00    +0.000 C 
ATOM      8  N   UNL     1       3.041   2.845  18.896  0.00  0.00    +0.000 NA
ATOM      9  C   UNL     1       1.799   2.646  19.632  0.00  0.00    +0.000 C 
ATOM     10  C   UNL     1       1.957   3.075  21.079  0.00  0.00    +0.000 C 
ATOM     11  O   UNL     1       1.835   2.293  22.024  0.00  0.00    +0.000 OA
ATOM     12  N   UNL     1       2.111   4.413  21.332  0.00  0.00    +0.000 N 
ATOM     13  H   UNL     1       1.972   4.643  22.307  0.00  0.00    +0.000 HD
ENDROOT
BRANCH   7  14
ATOM     14  C   UNL     1       4.741   4.164  17.884  0.00  0.00    +0.000 A 
ATOM     15  C   UNL     1       5.934   4.572  18.497  0.00  0.00    +0.000 A 
ATOM     16  C   UNL     1       7.085   4.753  17.728  0.00  0.00    +0.000 A 
ATOM     17  C   UNL     1       7.057   4.503  16.357  0.00  0.00    +0.000 A 
ATOM     18  C   UNL     1       5.884   4.052  15.752  0.00  0.00    +0.000 A 
ATOM     19  C   UNL     1       4.727   3.878  16.513  0.00  0.00    +0.000 A 
ENDBRANCH   7  14
BRANCH   1  21
ATOM     20  O   UNL     1       1.491   9.655  17.712  0.00  0.00    +0.000 OA
ATOM     21  C   UNL     1       2.353   8.786  17.712  0.00  0.00    +0.000 C 
ENDBRANCH   1  21
TORSDOF 2
ENDMDL
MODEL 2
REMARK VINA RESULT:      -8.3      0.090      1.086
REMARK  Name = 
REMARK  2 active torsions:
REMARK  status: ('A' for Active; 'I' for Inactive)
REMARK    1  A    between atoms: C_2  and  C_3
REMARK    2  A    between atoms: C_9  and  C_10
REMARK                            x       y       z     vdW  Elec       q    Type
REMARK                         _______ _______ _______ _____ _____    ______ ____
ROOT
ATOM      1  C   UNL     1       2.238   7.689  18.662  0.00  0.00    +0.000 A 
ATOM      2  C   UNL     1       1.768   7.835  19.965  0.00  0.00    +0.000 A 
ATOM      3  C   UNL     1       1.771   6.737  20.828  0.00  0.00    +0.000 A 
ATOM      4  C   UNL     1       2.234   5.485  20.396  0.00  0.00    +0.000 A 
ATOM      5  C   UNL     1       2.758   5.355  19.098  0.00  0.00    +0.000 A 
ATOM      6  C   UNL     1       2.724   6.457  18.222  0.00  0.00    +0.000 A 
ATOM      7  C   UNL     1       3.467   4.117  18.641  0.00  0.00    +0.000 C 
ATOM      8  N   UNL     1       3.070   2.911  18.867  0.00  0.00    +0.000 NA
ATOM      9  C   UNL     1       1.842   2.683  19.618  0.00  0.00    +0.000 C 
ATOM     10  C   UNL     1       2.010   3.102  21.067  0.00  0.00    +0.000 C 
ATOM     11  O   UNL     1       1.915   2.311  22.006  0.00  0.00    +0.000 OA
ATOM     12  N   UNL     1       2.143   4.441  21.329  0.00  0.00    +0.000 N 
ATOM     13  H   UNL     1       2.013   4.660  22.308  0.00  0.00    +0.000 HD
ENDROOT
BRANCH   7  14
ATOM     14  C   UNL     1       4.732   4.269  17.846  0.00  0.00    +0.000 A 
ATOM     15  C   UNL     1       4.770   3.992  16.473  0.00  0.00    +0.000 A 
ATOM     16  C   UNL     1       5.980   4.066  15.780  0.00  0.00    +0.000 A 
ATOM     17  C   UNL     1       7.145   4.441  16.447  0.00  0.00    +0.000 A 
ATOM     18  C   UNL     1       7.103   4.762  17.803  0.00  0.00    +0.000 A 
ATOM     19  C   UNL     1       5.898   4.681  18.503  0.00  0.00    +0.000 A 
ENDBRANCH   7  14
BRANCH   1  21
ATOM     20  O   UNL     1       1.396   9.716  17.783  0.00  0.00    +0.000 OA
ATOM     21  C   UNL     1       2.258   8.848  17.745  0.00  0.00    +0.000 C 
ENDBRANCH   1  21
TORSDOF 2
ENDMDL
MODEL 3
REMARK VINA RESULT:      -7.9      2.593      5.484
REMARK  Name = 
REMARK  2 active torsions:
REMARK  status: ('A' for Active; 'I' for Inactive)
REMARK    1  A    between atoms: C_2  and  C_3
REMARK    2  A    between atoms: C_9  and  C_10
REMARK                            x       y       z     vdW  Elec       q    Type
REMARK                         _______ _______ _______ _____ _____    ______ ____
ROOT
ATOM      1  C   UNL     1       2.108   3.015  19.150  0.00  0.00    +0.000 A 
ATOM      2  C   UNL     1       3.158   2.207  19.583  0.00  0.00    +0.000 A 
ATOM      3  C   UNL     1       4.476   2.623  19.385  0.00  0.00    +0.000 A 
ATOM      4  C   UNL     1       4.758   3.841  18.749  0.00  0.00    +0.000 A 
ATOM      5  C   UNL     1       3.697   4.678  18.363  0.00  0.00    +0.000 A 
ATOM      6  C   UNL     1       2.369   4.241  18.536  0.00  0.00    +0.000 A 
ATOM      7  C   UNL     1       3.917   6.080  17.881  0.00  0.00    +0.000 C 
ATOM      8  N   UNL     1       4.829   6.439  17.045  0.00  0.00    +0.000 NA
ATOM      9  C   UNL     1       5.740   5.443  16.494  0.00  0.00    +0.000 C 
ATOM     10  C   UNL     1       6.668   4.909  17.570  0.00  0.00    +0.000 C 
ATOM     11  O   UNL     1       7.891   5.046  17.523  0.00  0.00    +0.000 OA
ATOM     12  N   UNL     1       6.117   4.134  18.557  0.00  0.00    +0.000 N 
ATOM     13  H   UNL     1       6.813   3.629  19.088  0.00  0.00    +0.000 HD
ENDROOT
BRANCH   7  14
ATOM     14  C   UNL     1       3.008   7.162  18.390  0.00  0.00    +0.000 A 
ATOM     15  C   UNL     1       2.502   7.137  19.697  0.00  0.00    +0.000 A 
ATOM     16  C   UNL     1       1.596   8.115  20.112  0.00  0.00    +0.000 A 
ATOM     17  C   UNL     1       1.214   9.131  19.238  0.00  0.00    +0.000 A 
ATOM     18  C   UNL     1       1.750   9.185  17.951  0.00  0.00    +0.000 A 
ATOM     19  C   UNL     1       2.649   8.206  17.527  0.00  0.00    +0.000 A 
ENDBRANCH   7  14
BRANCH   1  21
ATOM     20  O   UNL     1       0.023   2.133  18.468  0.00  0.00    +0.000 OA
ATOM     21  C   UNL     1       0.708   2.596  19.370  0.00  0.00    +0.000 C 
ENDBRANCH   1  21
TORSDOF 2
ENDMDL
MODEL 4
REMARK VINA RESULT:      -7.9      2.590      5.566
REMARK  Name = 
REMARK  2 active torsions:
REMARK  status: ('A' for Active; 'I' for Inactive)
REMARK    1  A    between atoms: C_2  and  C_3
REMARK    2  A    between atoms: C_9  and  C_10
REMARK                            x       y       z     vdW  Elec       q    Type
REMARK                         _______ _______ _______ _____ _____    ______ ____
ROOT
ATOM      1  C   UNL     1       2.139   2.998  19.164  0.00  0.00    +0.000 A 
ATOM      2  C   UNL     1       3.212   2.227  19.609  0.00  0.00    +0.000 A 
ATOM      3  C   UNL     1       4.518   2.689  19.425  0.00  0.00    +0.000 A 
ATOM      4  C   UNL     1       4.764   3.915  18.789  0.00  0.00    +0.000 A 
ATOM      5  C   UNL     1       3.678   4.713  18.390  0.00  0.00    +0.000 A 
ATOM      6  C   UNL     1       2.364   4.230  18.551  0.00  0.00    +0.000 A 
ATOM      7  C   UNL     1       3.853   6.121  17.908  0.00  0.00    +0.000 C 
ATOM      8  N   UNL     1       4.761   6.511  17.080  0.00  0.00    +0.000 NA
ATOM      9  C   UNL     1       5.712   5.546  16.541  0.00  0.00    +0.000 C 
ATOM     10  C   UNL     1       6.647   5.047  17.627  0.00  0.00    +0.000 C 
ATOM     11  O   UNL     1       7.865   5.227  17.593  0.00  0.00    +0.000 OA
ATOM     12  N   UNL     1       6.113   4.254  18.610  0.00  0.00    +0.000 N 
ATOM     13  H   UNL     1       6.821   3.775  19.150  0.00  0.00    +0.000 HD
ENDROOT
BRANCH   7  14
ATOM     14  C   UNL     1       2.902   7.172  18.405  0.00  0.00    +0.000 A 
ATOM     15  C   UNL     1       2.478   8.223  17.580  0.00  0.00    +0.000 A 
ATOM     16  C   UNL     1       1.657   9.227  18.097  0.00  0.00    +0.000 A 
ATOM     17  C   UNL     1       1.237   9.172  19.424  0.00  0.00    +0.000 A 
ATOM     18  C   UNL     1       1.619   8.104  20.236  0.00  0.00    +0.000 A 
ATOM     19  C   UNL     1       2.447   7.102  19.727  0.00  0.00    +0.000 A 
ENDBRANCH   7  14
BRANCH   1  21
ATOM     20  O   UNL     1       0.047   2.172  18.438  0.00  0.00    +0.000 OA
ATOM     21  C   UNL     1       0.753   2.530  19.371  0.00  0.00    +0.000 C 
ENDBRANCH   1  21
TORSDOF 2
ENDMDL
MODEL 5
REMARK VINA RESULT:      -7.7      2.416      5.493
REMARK  Name = 
REMARK  2 active torsions:
REMARK  status: ('A' for Active; 'I' for Inactive)
REMARK    1  A    between atoms: C_2  and  C_3
REMARK    2  A    between atoms: C_9  and  C_10
REMARK                            x       y       z     vdW  Elec       q    Type
REMARK                         _______ _______ _______ _____ _____    ______ ____
ROOT
ATOM      1  C   UNL     1       2.467   3.117  20.210  0.00  0.00    +0.000 A 
ATOM      2  C   UNL     1       3.628   2.406  20.507  0.00  0.00    +0.000 A 
ATOM      3  C   UNL     1       4.830   2.759  19.890  0.00  0.00    +0.000 A 
ATOM      4  C   UNL     1       4.883   3.816  18.969  0.00  0.00    +0.000 A 
ATOM      5  C   UNL     1       3.722   4.564  18.714  0.00  0.00    +0.000 A 
ATOM      6  C   UNL     1       2.505   4.186  19.314  0.00  0.00    +0.000 A 
ATOM      7  C   UNL     1       3.746   5.834  17.917  0.00  0.00    +0.000 C 
ATOM      8  N   UNL     1       4.394   6.003  16.815  0.00  0.00    +0.000 NA
ATOM      9  C   UNL     1       5.175   4.905  16.259  0.00  0.00    +0.000 C 
ATOM     10  C   UNL     1       6.373   4.597  17.139  0.00  0.00    +0.000 C 
ATOM     11  O   UNL     1       7.535   4.709  16.746  0.00  0.00    +0.000 OA
ATOM     12  N   UNL     1       6.131   4.048  18.372  0.00  0.00    +0.000 N 
ATOM     13  H   UNL     1       6.964   3.658  18.793  0.00  0.00    +0.000 HD
ENDROOT
BRANCH   7  14
ATOM     14  C   UNL     1       2.951   7.007  18.416  0.00  0.00    +0.000 A 
ATOM     15  C   UNL     1       2.455   7.049  19.726  0.00  0.00    +0.000 A 
ATOM     16  C   UNL     1       1.652   8.117  20.133  0.00  0.00    +0.000 A 
ATOM     17  C   UNL     1       1.366   9.154  19.246  0.00  0.00    +0.000 A 
ATOM     18  C   UNL     1       1.896   9.138  17.956  0.00  0.00    +0.000 A 
ATOM     19  C   UNL     1       2.692   8.069  17.541  0.00  0.00    +0.000 A 
ENDBRANCH   7  14
BRANCH   1  21
ATOM     20  O   UNL     1       1.115   2.607  22.081  0.00  0.00    +0.000 OA
ATOM     21  C   UNL     1       1.192   2.767  20.870  0.00  0.00    +0.000 C 
ENDBRANCH   1  21
TORSDOF 2
ENDMDL
MODEL 6
REMARK VINA RESULT:      -7.6      3.672      6.403
REMARK  Name = 
REMARK  2 active torsions:
REMARK  status: ('A' for Active; 'I' for Inactive)
REMARK    1  A    between atoms: C_2  and  C_3
REMARK    2  A    between atoms: C_9  and  C_10
REMARK                            x       y       z     vdW  Elec       q    Type
REMARK                         _______ _______ _______ _____ _____    ______ ____
ROOT
ATOM      1  C   UNL     1       5.461   3.977  13.431  0.00  0.00    +0.000 A 
ATOM      2  C   UNL     1       6.838   4.172  13.345  0.00  0.00    +0.000 A 
ATOM      3  C   UNL     1       7.514   4.796  14.396  0.00  0.00    +0.000 A 
ATOM      4  C   UNL     1       6.822   5.238  15.534  0.00  0.00    +0.000 A 
ATOM      5  C   UNL     1       5.443   4.991  15.640  0.00  0.00    +0.000 A 
ATOM      6  C   UNL     1       4.760   4.389  14.565  0.00  0.00    +0.000 A 
ATOM      7  C   UNL     1       4.680   5.234  16.907  0.00  0.00    +0.000 C 
ATOM      8  N   UNL     1       4.801   6.277  17.654  0.00  0.00    +0.000 NA
ATOM      9  C   UNL     1       5.734   7.332  17.279  0.00  0.00    +0.000 C 
ATOM     10  C   UNL     1       7.168   6.849  17.395  0.00  0.00    +0.000 C 
ATOM     11  O   UNL     1       7.982   7.355  18.169  0.00  0.00    +0.000 OA
ATOM     12  N   UNL     1       7.592   5.898  16.503  0.00  0.00    +0.000 N 
ATOM     13  H   UNL     1       8.599   5.802  16.487  0.00  0.00    +0.000 HD
ENDROOT
BRANCH   7  14
ATOM     14  C   UNL     1       3.686   4.200  17.353  0.00  0.00    +0.000 A 
ATOM     15  C   UNL     1       2.340   4.526  17.568  0.00  0.00    +0.000 A 
ATOM     16  C   UNL     1       1.459   3.560  18.059  0.00  0.00    +0.000 A 
ATOM     17  C   UNL     1       1.910   2.266  18.311  0.00  0.00    +0.000 A 
ATOM     18  C   UNL     1       3.238   1.925  18.056  0.00  0.00    +0.000 A 
ATOM     19  C   UNL     1       4.125   2.888  17.573  0.00  0.00    +0.000 A 
ENDBRANCH   7  14
BRANCH   1  21
ATOM     20  O   UNL     1       5.295   2.513  11.582  0.00  0.00    +0.000 OA
ATOM     21  C   UNL     1       4.737   3.301  12.334  0.00  0.00    +0.000 C 
ENDBRANCH   1  21
TORSDOF 2
ENDMDL
MODEL 7
REMARK VINA RESULT:      -7.6      2.403      5.548
REMARK  Name = 
REMARK  2 active torsions:
REMARK  status: ('A' for Active; 'I' for Inactive)
REMARK    1  A    between atoms: C_2  and  C_3
REMARK    2  A    between atoms: C_9  and  C_10
REMARK                            x       y       z     vdW  Elec       q    Type
REMARK                         _______ _______ _______ _____ _____    ______ ____
ROOT
ATOM      1  C   UNL     1       2.452   3.128  20.291  0.00  0.00    +0.000 A 
ATOM      2  C   UNL     1       3.625   2.446  20.609  0.00  0.00    +0.000 A 
ATOM      3  C   UNL     1       4.822   2.798  19.982  0.00  0.00    +0.000 A 
ATOM      4  C   UNL     1       4.857   3.826  19.027  0.00  0.00    +0.000 A 
ATOM      5  C   UNL     1       3.684   4.547  18.749  0.00  0.00    +0.000 A 
ATOM      6  C   UNL     1       2.473   4.169  19.361  0.00  0.00    +0.000 A 
ATOM      7  C   UNL     1       3.688   5.791  17.912  0.00  0.00    +0.000 C 
ATOM      8  N   UNL     1       4.333   5.936  16.806  0.00  0.00    +0.000 NA
ATOM      9  C   UNL     1       5.132   4.833  16.284  0.00  0.00    +0.000 C 
ATOM     10  C   UNL     1       6.334   4.573  17.173  0.00  0.00    +0.000 C 
ATOM     11  O   UNL     1       7.495   4.691  16.776  0.00  0.00    +0.000 OA
ATOM     12  N   UNL     1       6.101   4.059  18.422  0.00  0.00    +0.000 N 
ATOM     13  H   UNL     1       6.940   3.696  18.856  0.00  0.00    +0.000 HD
ENDROOT
BRANCH   7  14
ATOM     14  C   UNL     1       2.875   6.967  18.374  0.00  0.00    +0.000 A 
ATOM     15  C   UNL     1       2.598   8.043  17.521  0.00  0.00    +0.000 A 
ATOM     16  C   UNL     1       1.908   9.157  18.005  0.00  0.00    +0.000 A 
ATOM     17  C   UNL     1       1.472   9.187  19.328  0.00  0.00    +0.000 A 
ATOM     18  C   UNL     1       1.705   8.098  20.168  0.00  0.00    +0.000 A 
ATOM     19  C   UNL     1       2.402   6.987  19.692  0.00  0.00    +0.000 A 
ENDBRANCH   7  14
BRANCH   1  21
ATOM     20  O   UNL     1       1.153   2.388  22.122  0.00  0.00    +0.000 OA
ATOM     21  C   UNL     1       1.183   2.778  20.962  0.00  0.00    +0.000 C 
ENDBRANCH   1  21
TORSDOF 2
ENDMDL
MODEL 8
REMARK VINA RESULT:      -7.5      2.309      5.021
REMARK  Name = 
REMARK  2 active torsions:
REMARK  status: ('A' for Active; 'I' for Inactive)
REMARK    1  A    between atoms: C_2  and  C_3
REMARK    2  A    between atoms: C_9  and  C_10
REMARK                            x       y       z     vdW  Elec       q    Type
REMARK                         _______ _______ _______ _____ _____    ______ ____
ROOT
ATOM      1  C   UNL     1       6.779   6.585  17.442  0.00  0.00    +0.000 A 
ATOM      2  C   UNL     1       7.109   5.519  16.607  0.00  0.00    +0.000 A 
ATOM      3  C   UNL     1       6.314   4.370  16.606  0.00  0.00    +0.000 A 
ATOM      4  C   UNL     1       5.191   4.273  17.442  0.00  0.00    +0.000 A 
ATOM      5  C   UNL     1       4.832   5.371  18.242  0.00  0.00    +0.000 A 
ATOM      6  C   UNL     1       5.653   6.515  18.262  0.00  0.00    +0.000 A 
ATOM      7  C   UNL     1       3.534   5.426  18.990  0.00  0.00    +0.000 C 
ATOM      8  N   UNL     1       3.030   4.452  19.668  0.00  0.00    +0.000 NA
ATOM      9  C   UNL     1       3.740   3.181  19.747  0.00  0.00    +0.000 C 
ATOM     10  C   UNL     1       3.752   2.486  18.398  0.00  0.00    +0.000 C 
ATOM     11  O   UNL     1       3.223   1.390  18.207  0.00  0.00    +0.000 OA
ATOM     12  N   UNL     1       4.497   3.055  17.397  0.00  0.00    +0.000 N 
ATOM     13  H   UNL     1       4.647   2.425  16.620  0.00  0.00    +0.000 HD
ENDROOT
BRANCH   7  14
ATOM     14  C   UNL     1       2.751   6.707  18.971  0.00  0.00    +0.000 A 
ATOM     15  C   UNL     1       2.626   7.469  17.802  0.00  0.00    +0.000 A 
ATOM     16  C   UNL     1       1.959   8.696  17.838  0.00  0.00    +0.000 A 
ATOM     17  C   UNL     1       1.395   9.150  19.028  0.00  0.00    +0.000 A 
ATOM     18  C   UNL     1       1.477   8.373  20.184  0.00  0.00    +0.000 A 
ATOM     19  C   UNL     1       2.150   7.151  20.156  0.00  0.00    +0.000 A 
ENDBRANCH   7  14
BRANCH   1  21
ATOM     20  O   UNL     1       8.363   8.083  18.357  0.00  0.00    +0.000 OA
ATOM     21  C   UNL     1       7.601   7.813  17.438  0.00  0.00    +0.000 C 
ENDBRANCH   1  21
TORSDOF 2
ENDMDL
MODEL 9
REMARK VINA RESULT:      -7.5      2.050      2.827
REMARK  Name = 
REMARK  2 active torsions:
REMARK  status: ('A' for Active; 'I' for Inactive)
REMARK    1  A    between atoms: C_2  and  C_3
REMARK    2  A    between atoms: C_9  and  C_10
REMARK                            x       y       z     vdW  Elec       q    Type
REMARK                         _______ _______ _______ _____ _____    ______ ____
ROOT
ATOM      1  C   UNL     1       2.112   6.689  20.093  0.00  0.00    +0.000 A 
ATOM      2  C   UNL     1       1.531   5.694  20.877  0.00  0.00    +0.000 A 
ATOM      3  C   UNL     1       1.914   4.363  20.701  0.00  0.00    +0.000 A 
ATOM      4  C   UNL     1       2.872   4.012  19.738  0.00  0.00    +0.000 A 
ATOM      5  C   UNL     1       3.495   5.024  18.987  0.00  0.00    +0.000 A 
ATOM      6  C   UNL     1       3.084   6.361  19.146  0.00  0.00    +0.000 A 
ATOM      7  C   UNL     1       4.675   4.754  18.102  0.00  0.00    +0.000 C 
ATOM      8  N   UNL     1       4.782   3.751  17.299  0.00  0.00    +0.000 NA
ATOM      9  C   UNL     1       3.699   2.779  17.206  0.00  0.00    +0.000 C 
ATOM     10  C   UNL     1       3.580   1.981  18.491  0.00  0.00    +0.000 C 
ATOM     11  O   UNL     1       3.744   0.761  18.537  0.00  0.00    +0.000 OA
ATOM     12  N   UNL     1       3.142   2.641  19.610  0.00  0.00    +0.000 N 
ATOM     13  H   UNL     1       2.865   2.010  20.350  0.00  0.00    +0.000 HD
ENDROOT
BRANCH   7  14
ATOM     14  C   UNL     1       5.825   5.719  18.128  0.00  0.00    +0.000 A 
ATOM     15  C   UNL     1       5.891   6.800  17.239  0.00  0.00    +0.000 A 
ATOM     16  C   UNL     1       7.013   7.632  17.236  0.00  0.00    +0.000 A 
ATOM     17  C   UNL     1       8.055   7.404  18.134  0.00  0.00    +0.000 A 
ATOM     18  C   UNL     1       7.972   6.357  19.051  0.00  0.00    +0.000 A 
ATOM     19  C   UNL     1       6.857   5.517  19.053  0.00  0.00    +0.000 A 
ENDBRANCH   7  14
BRANCH   1  21
ATOM     20  O   UNL     1       1.152   8.485  21.293  0.00  0.00    +0.000 OA
ATOM     21  C   UNL     1       1.729   8.103  20.283  0.00  0.00    +0.000 C 
ENDBRANCH   1  21
TORSDOF 2
ENDMDL
