MODEL 1
REMARK VINA RESULT:      -7.1      0.000      0.000
REMARK  Name = 
REMARK  0 active torsions:
REMARK  status: ('A' for Active; 'I' for Inactive)
REMARK                            x       y       z     vdW  Elec       q    Type
REMARK                         _______ _______ _______ _____ _____    ______ ____
ROOT
ATOM      1 CL   UNL     1       7.945   5.853  18.973  0.00  0.00    +0.000 Cl
ATOM      2  C   UNL     1       6.821   5.274  17.808  0.00  0.00    +0.000 A 
ATOM      3  C   UNL     1       6.961   5.615  16.460  0.00  0.00    +0.000 A 
ATOM      4  C   UNL     1       6.051   5.154  15.512  0.00  0.00    +0.000 A 
ATOM      5  C   UNL     1       4.978   4.338  15.890  0.00  0.00    +0.000 A 
ATOM      6  C   UNL     1       4.821   3.978  17.243  0.00  0.00    +0.000 A 
ATOM      7  C   UNL     1       3.870   3.195  17.959  0.00  0.00    +0.000 A 
ATOM      8  C   UNL     1       4.231   3.241  19.286  0.00  0.00    +0.000 A 
ATOM      9  N   UNL     1       5.367   3.980  19.418  0.00  0.00    +0.000 N 
ATOM     10  C   UNL     1       5.746   4.458  18.179  0.00  0.00    +0.000 A 
ATOM     11  C   UNL     1       3.452   2.592  20.371  0.00  0.00    +0.000 C 
ATOM     12  C   UNL     1       2.002   2.438  19.856  0.00  0.00    +0.000 C 
ATOM     13  N   UNL     1       1.948   1.760  18.543  0.00  0.00    +0.000 NA
ATOM     14  C   UNL     1       2.648   2.488  17.461  0.00  0.00    +0.000 C 
ATOM     15  H   UNL     1       5.860   4.179  20.276  0.00  0.00    +0.000 HD
ATOM     16  H   UNL     1       0.974   1.645  18.267  0.00  0.00    +0.000 HD
ENDROOT
TORSDOF 0
ENDMDL
MODEL 2
REMARK VINA RESULT:      -6.9      1.027      1.048
REMARK  Name = 
REMARK  0 active torsions:
REMARK  status: ('A' for Active; 'I' for Inactive)
REMARK                            x       y       z     vdW  Elec       q    Type
REMARK                         _______ _______ _______ _____ _____    ______ ____
ROOT
ATOM      1 CL   UNL     1       8.126   5.668  19.556  0.00  0.00    +0.000 Cl
ATOM      2  C   UNL     1       6.846   5.745  18.411  0.00  0.00    +0.000 A 
ATOM      3  C   UNL     1       6.820   6.759  17.449  0.00  0.00    +0.000 A 
ATOM      4  C   UNL     1       5.783   6.831  16.521  0.00  0.00    +0.000 A 
ATOM      5  C   UNL     1       4.747   5.888  16.533  0.00  0.00    +0.000 A 
ATOM      6  C   UNL     1       4.758   4.855  17.490  0.00  0.00    +0.000 A 
ATOM      7  C   UNL     1       3.889   3.766  17.787  0.00  0.00    +0.000 A 
ATOM      8  C   UNL     1       4.421   3.115  18.876  0.00  0.00    +0.000 A 
ATOM      9  N   UNL     1       5.582   3.723  19.243  0.00  0.00    +0.000 N 
ATOM     10  C   UNL     1       5.809   4.806  18.416  0.00  0.00    +0.000 A 
ATOM     11  C   UNL     1       3.773   1.950  19.532  0.00  0.00    +0.000 C 
ATOM     12  C   UNL     1       2.265   2.024  19.197  0.00  0.00    +0.000 C 
ATOM     13  N   UNL     1       2.024   2.149  17.744  0.00  0.00    +0.000 NA
ATOM     14  C   UNL     1       2.596   3.374  17.142  0.00  0.00    +0.000 C 
ATOM     15  H   UNL     1       6.187   3.458  20.006  0.00  0.00    +0.000 HD
ATOM     16  H   UNL     1       1.020   2.152  17.571  0.00  0.00    +0.000 HD
ENDROOT
TORSDOF 0
ENDMDL
MODEL 3
REMARK VINA RESULT:      -6.7      2.299      2.657
REMARK  Name = 
REMARK  0 active torsions:
REMARK  status: ('A' for Active; 'I' for Inactive)
REMARK                            x       y       z     vdW  Elec       q    Type
REMARK                         _______ _______ _______ _____ _____    ______ ____
ROOT
ATOM      1 CL   UNL     1       5.924   3.666  15.328  0.00  0.00    +0.000 Cl
ATOM      2  C   UNL     1       5.032   4.772  16.297  0.00  0.00    +0.000 A 
ATOM      3  C   UNL     1       5.255   6.147  16.186  0.00  0.00    +0.000 A 
ATOM      4  C   UNL     1       4.540   7.049  16.971  0.00  0.00    +0.000 A 
ATOM      5  C   UNL     1       3.583   6.595  17.887  0.00  0.00    +0.000 A 
ATOM      6  C   UNL     1       3.338   5.213  18.011  0.00  0.00    +0.000 A 
ATOM      7  C   UNL     1       2.471   4.426  18.820  0.00  0.00    +0.000 A 
ATOM      8  C   UNL     1       2.716   3.108  18.508  0.00  0.00    +0.000 A 
ATOM      9  N   UNL     1       3.662   3.046  17.531  0.00  0.00    +0.000 N 
ATOM     10  C   UNL     1       4.074   4.326  17.213  0.00  0.00    +0.000 A 
ATOM     11  C   UNL     1       2.048   1.967  19.184  0.00  0.00    +0.000 C 
ATOM     12  C   UNL     1       1.577   2.473  20.567  0.00  0.00    +0.000 C 
ATOM     13  N   UNL     1       0.772   3.708  20.462  0.00  0.00    +0.000 NA
ATOM     14  C   UNL     1       1.503   4.855  19.879  0.00  0.00    +0.000 C 
ATOM     15  H   UNL     1       4.034   2.210  17.104  0.00  0.00    +0.000 HD
ATOM     16  H   UNL     1       0.452   3.978  21.391  0.00  0.00    +0.000 HD
ENDROOT
TORSDOF 0
ENDMDL
MODEL 4
REMARK VINA RESULT:      -6.7      2.280      4.639
REMARK  Name = 
REMARK  0 active torsions:
REMARK  status: ('A' for Active; 'I' for Inactive)
REMARK                            x       y       z     vdW  Elec       q    Type
REMARK                         _______ _______ _______ _____ _____    ______ ____
ROOT
ATOM      1 CL   UNL     1       3.728   2.125  21.193  0.00  0.00    +0.000 Cl
ATOM      2  C   UNL     1       3.214   3.077  19.858  0.00  0.00    +0.000 A 
ATOM      3  C   UNL     1       1.852   3.261  19.604  0.00  0.00    +0.000 A 
ATOM      4  C   UNL     1       1.428   4.028  18.521  0.00  0.00    +0.000 A 
ATOM      5  C   UNL     1       2.359   4.631  17.665  0.00  0.00    +0.000 A 
ATOM      6  C   UNL     1       3.737   4.464  17.907  0.00  0.00    +0.000 A 
ATOM      7  C   UNL     1       4.921   4.913  17.257  0.00  0.00    +0.000 A 
ATOM      8  C   UNL     1       5.985   4.385  17.952  0.00  0.00    +0.000 A 
ATOM      9  N   UNL     1       5.519   3.665  19.009  0.00  0.00    +0.000 N 
ATOM     10  C   UNL     1       4.138   3.684  19.000  0.00  0.00    +0.000 A 
ATOM     11  C   UNL     1       7.402   4.576  17.552  0.00  0.00    +0.000 C 
ATOM     12  C   UNL     1       7.406   4.890  16.037  0.00  0.00    +0.000 C 
ATOM     13  N   UNL     1       6.495   6.004  15.698  0.00  0.00    +0.000 NA
ATOM     14  C   UNL     1       5.075   5.738  16.016  0.00  0.00    +0.000 C 
ATOM     15  H   UNL     1       6.073   3.170  19.692  0.00  0.00    +0.000 HD
ATOM     16  H   UNL     1       6.564   6.200  14.701  0.00  0.00    +0.000 HD
ENDROOT
TORSDOF 0
ENDMDL
MODEL 5
REMARK VINA RESULT:      -6.7      3.050      5.260
REMARK  Name = 
REMARK  0 active torsions:
REMARK  status: ('A' for Active; 'I' for Inactive)
REMARK                            x       y       z     vdW  Elec       q    Type
REMARK                         _______ _______ _______ _____ _____    ______ ____
ROOT
ATOM      1 CL   UNL     1       0.841   2.143  18.799  0.00  0.00    +0.000 Cl
ATOM      2  C   UNL     1       1.615   3.642  19.131  0.00  0.00    +0.000 A 
ATOM      3  C   UNL     1       1.182   4.442  20.192  0.00  0.00    +0.000 A 
ATOM      4  C   UNL     1       1.801   5.659  20.463  0.00  0.00    +0.000 A 
ATOM      5  C   UNL     1       2.873   6.106  19.679  0.00  0.00    +0.000 A 
ATOM      6  C   UNL     1       3.330   5.312  18.609  0.00  0.00    +0.000 A 
ATOM      7  C   UNL     1       4.356   5.457  17.632  0.00  0.00    +0.000 A 
ATOM      8  C   UNL     1       4.291   4.351  16.816  0.00  0.00    +0.000 A 
ATOM      9  N   UNL     1       3.306   3.522  17.258  0.00  0.00    +0.000 N 
ATOM     10  C   UNL     1       2.687   4.094  18.353  0.00  0.00    +0.000 A 
ATOM     11  C   UNL     1       5.166   4.153  15.632  0.00  0.00    +0.000 C 
ATOM     12  C   UNL     1       5.642   5.554  15.183  0.00  0.00    +0.000 C 
ATOM     13  N   UNL     1       6.244   6.319  16.295  0.00  0.00    +0.000 NA
ATOM     14  C   UNL     1       5.313   6.588  17.414  0.00  0.00    +0.000 C 
ATOM     15  H   UNL     1       3.037   2.636  16.855  0.00  0.00    +0.000 HD
ATOM     16  H   UNL     1       6.579   7.214  15.942  0.00  0.00    +0.000 HD
ENDROOT
TORSDOF 0
ENDMDL
MODEL 6
REMARK VINA RESULT:      -6.7      1.665      1.830
REMARK  Name = 
REMARK  0 active torsions:
REMARK  status: ('A' for Active; 'I' for Inactive)
REMARK                            x       y       z     vdW  Elec       q    Type
REMARK                         _______ _______ _______ _____ _____    ______ ____
ROOT
ATOM      1 CL   UNL     1       7.833   4.381  17.599  0.00  0.00    +0.000 Cl
ATOM      2  C   UNL     1       6.261   5.075  17.591  0.00  0.00    +0.000 A 
ATOM      3  C   UNL     1       5.995   6.215  16.829  0.00  0.00    +0.000 A 
ATOM      4  C   UNL     1       4.725   6.786  16.821  0.00  0.00    +0.000 A 
ATOM      5  C   UNL     1       3.687   6.227  17.577  0.00  0.00    +0.000 A 
ATOM      6  C   UNL     1       3.931   5.073  18.348  0.00  0.00    +0.000 A 
ATOM      7  C   UNL     1       3.135   4.271  19.215  0.00  0.00    +0.000 A 
ATOM      8  C   UNL     1       3.956   3.286  19.715  0.00  0.00    +0.000 A 
ATOM      9  N   UNL     1       5.200   3.421  19.178  0.00  0.00    +0.000 N 
ATOM     10  C   UNL     1       5.218   4.521  18.343  0.00  0.00    +0.000 A 
ATOM     11  C   UNL     1       3.512   2.274  20.707  0.00  0.00    +0.000 C 
ATOM     12  C   UNL     1       2.299   2.875  21.455  0.00  0.00    +0.000 C 
ATOM     13  N   UNL     1       1.254   3.352  20.524  0.00  0.00    +0.000 NA
ATOM     14  C   UNL     1       1.703   4.434  19.619  0.00  0.00    +0.000 C 
ATOM     15  H   UNL     1       6.002   2.836  19.362  0.00  0.00    +0.000 HD
ATOM     16  H   UNL     1       0.462   3.699  21.062  0.00  0.00    +0.000 HD
ENDROOT
TORSDOF 0
ENDMDL
MODEL 7
REMARK VINA RESULT:      -6.6      1.622      1.745
REMARK  Name = 
REMARK  0 active torsions:
REMARK  status: ('A' for Active; 'I' for Inactive)
REMARK                            x       y       z     vdW  Elec       q    Type
REMARK                         _______ _______ _______ _____ _____    ______ ____
ROOT
ATOM      1 CL   UNL     1       7.939   4.436  17.625  0.00  0.00    +0.000 Cl
ATOM      2  C   UNL     1       6.411   5.213  17.495  0.00  0.00    +0.000 A 
ATOM      3  C   UNL     1       6.333   6.573  17.183  0.00  0.00    +0.000 A 
ATOM      4  C   UNL     1       5.099   7.210  17.082  0.00  0.00    +0.000 A 
ATOM      5  C   UNL     1       3.910   6.500  17.290  0.00  0.00    +0.000 A 
ATOM      6  C   UNL     1       3.965   5.126  17.599  0.00  0.00    +0.000 A 
ATOM      7  C   UNL     1       2.985   4.129  17.873  0.00  0.00    +0.000 A 
ATOM      8  C   UNL     1       3.665   2.964  18.146  0.00  0.00    +0.000 A 
ATOM      9  N   UNL     1       5.002   3.184  18.023  0.00  0.00    +0.000 N 
ATOM     10  C   UNL     1       5.219   4.509  17.701  0.00  0.00    +0.000 A 
ATOM     11  C   UNL     1       2.996   1.698  18.538  0.00  0.00    +0.000 C 
ATOM     12  C   UNL     1       1.621   2.078  19.135  0.00  0.00    +0.000 C 
ATOM     13  N   UNL     1       0.845   2.952  18.231  0.00  0.00    +0.000 NA
ATOM     14  C   UNL     1       1.494   4.250  17.944  0.00  0.00    +0.000 C 
ATOM     15  H   UNL     1       5.740   2.508  18.161  0.00  0.00    +0.000 HD
ATOM     16  H   UNL     1      -0.065   3.140  18.648  0.00  0.00    +0.000 HD
ENDROOT
TORSDOF 0
ENDMDL
MODEL 8
REMARK VINA RESULT:      -6.6      2.175      2.820
REMARK  Name = 
REMARK  0 active torsions:
REMARK  status: ('A' for Active; 'I' for Inactive)
REMARK                            x       y       z     vdW  Elec       q    Type
REMARK                         _______ _______ _______ _____ _____    ______ ____
ROOT
ATOM      1 CL   UNL     1       6.297   3.787  14.921  0.00  0.00    +0.000 Cl
ATOM      2  C   UNL     1       6.219   4.358  16.541  0.00  0.00    +0.000 A 
ATOM      3  C   UNL     1       7.368   4.831  17.179  0.00  0.00    +0.000 A 
ATOM      4  C   UNL     1       7.314   5.290  18.493  0.00  0.00    +0.000 A 
ATOM      5  C   UNL     1       6.105   5.287  19.201  0.00  0.00    +0.000 A 
ATOM      6  C   UNL     1       4.933   4.820  18.574  0.00  0.00    +0.000 A 
ATOM      7  C   UNL     1       3.577   4.672  18.985  0.00  0.00    +0.000 A 
ATOM      8  C   UNL     1       2.896   4.118  17.926  0.00  0.00    +0.000 A 
ATOM      9  N   UNL     1       3.750   3.948  16.880  0.00  0.00    +0.000 N 
ATOM     10  C   UNL     1       5.015   4.359  17.253  0.00  0.00    +0.000 A 
ATOM     11  C   UNL     1       1.457   3.753  17.978  0.00  0.00    +0.000 C 
ATOM     12  C   UNL     1       1.097   3.540  19.467  0.00  0.00    +0.000 C 
ATOM     13  N   UNL     1       1.490   4.695  20.303  0.00  0.00    +0.000 NA
ATOM     14  C   UNL     1       2.945   4.966  20.310  0.00  0.00    +0.000 C 
ATOM     15  H   UNL     1       3.524   3.566  15.973  0.00  0.00    +0.000 HD
ATOM     16  H   UNL     1       1.196   4.526  21.264  0.00  0.00    +0.000 HD
ENDROOT
TORSDOF 0
ENDMDL
MODEL 9
REMARK VINA RESULT:      -6.5      2.245      4.606
REMARK  Name = 
REMARK  0 active torsions:
REMARK  status: ('A' for Active; 'I' for Inactive)
REMARK                            x       y       z     vdW  Elec       q    Type
REMARK                         _______ _______ _______ _____ _____    ______ ____
ROOT
ATOM      1 CL   UNL     1       2.304   3.835  21.852  0.00  0.00    +0.000 Cl
ATOM      2  C   UNL     1       2.389   3.411  20.188  0.00  0.00    +0.000 A 
ATOM      3  C   UNL     1       1.366   2.665  19.596  0.00  0.00    +0.000 A 
ATOM      4  C   UNL     1       1.430   2.314  18.250  0.00  0.00    +0.000 A 
ATOM      5  C   UNL     1       2.521   2.703  17.462  0.00  0.00    +0.000 A 
ATOM      6  C   UNL     1       3.560   3.461  18.037  0.00  0.00    +0.000 A 
ATOM      7  C   UNL     1       4.782   4.003  17.548  0.00  0.00    +0.000 A 
ATOM      8  C   UNL     1       5.399   4.624  18.610  0.00  0.00    +0.000 A 
ATOM      9  N   UNL     1       4.608   4.520  19.713  0.00  0.00    +0.000 N 
ATOM     10  C   UNL     1       3.474   3.798  19.394  0.00  0.00    +0.000 A 
ATOM     11  C   UNL     1       6.735   5.266  18.522  0.00  0.00    +0.000 C 
ATOM     12  C   UNL     1       7.475   4.611  17.332  0.00  0.00    +0.000 C 
ATOM     13  N   UNL     1       6.671   4.644  16.092  0.00  0.00    +0.000 NA
ATOM     14  C   UNL     1       5.392   3.904  16.184  0.00  0.00    +0.000 C 
ATOM     15  H   UNL     1       4.805   4.885  20.633  0.00  0.00    +0.000 HD
ATOM     16  H   UNL     1       7.214   4.239  15.331  0.00  0.00    +0.000 HD
ENDROOT
TORSDOF 0
ENDMDL
