MODEL 1
REMARK VINA RESULT:      -7.9      0.000      0.000
REMARK  Name = 
REMARK  5 active torsions:
REMARK  status: ('A' for Active; 'I' for Inactive)
REMARK    1  A    between atoms: O_1  and  C_2
REMARK    2  A    between atoms: C_5  and  C_6
REMARK    3  A    between atoms: C_8  and  C_9
REMARK    4  A    between atoms: C_12  and  O_13
REMARK    5  A    between atoms: O_13  and  C_14
REMARK                            x       y       z     vdW  Elec       q    Type
REMARK                         _______ _______ _______ _____ _____    ______ ____
ROOT
ATOM      1  C   UNL     1       2.328   6.892  19.812  0.00  0.00    +0.000 A 
ATOM      2  N   UNL     1       1.719   7.479  20.815  0.00  0.00    +0.000 NA
ATOM      3  C   UNL     1       1.267   8.652  20.253  0.00  0.00    +0.000 A 
ATOM      4  N   UNL     1       1.600   8.802  18.959  0.00  0.00    +0.000 NA
ATOM      5  O   UNL     1       2.301   7.633  18.665  0.00  0.00    +0.000 OA
ENDROOT
BRANCH   1   9
ATOM      6  C   UNL     1       4.309   3.123  19.692  0.00  0.00    +0.000 A 
ATOM      7  C   UNL     1       4.916   4.243  19.137  0.00  0.00    +0.000 A 
ATOM      8  C   UNL     1       4.249   5.472  19.172  0.00  0.00    +0.000 A 
ATOM      9  C   UNL     1       2.978   5.588  19.760  0.00  0.00    +0.000 A 
ATOM     10  C   UNL     1       2.381   4.438  20.298  0.00  0.00    +0.000 A 
ATOM     11  C   UNL     1       3.045   3.209  20.266  0.00  0.00    +0.000 A 
BRANCH   6  12
ATOM     12  O   UNL     1       4.924   1.909  19.696  0.00  0.00    +0.000 OA
ATOM     13  H   UNL     1       4.736   1.465  20.540  0.00  0.00    +0.000 HD
ENDBRANCH   6  12
ENDBRANCH   1   9
BRANCH   3  14
ATOM     14  C   UNL     1       0.498   9.617  21.027  0.00  0.00    +0.000 A 
ATOM     15  C   UNL     1      -0.081   9.214  22.239  0.00  0.00    +0.000 A 
ATOM     16  C   UNL     1      -0.826  10.109  23.004  0.00  0.00    +0.000 A 
ATOM     17  C   UNL     1      -0.946  11.441  22.604  0.00  0.00    +0.000 A 
ATOM     18  C   UNL     1      -0.414  11.843  21.378  0.00  0.00    +0.000 A 
ATOM     19  C   UNL     1       0.306  10.935  20.591  0.00  0.00    +0.000 A 
BRANCH  17  20
ATOM     20  O   UNL     1      -1.601  12.408  23.336  0.00  0.00    +0.000 OA
BRANCH  20  21
ATOM     21  C   UNL     1      -2.960  12.545  23.190  0.00  0.00    +0.000 A 
ATOM     22  C   UNL     1      -3.599  12.844  21.987  0.00  0.00    +0.000 A 
ATOM     23  C   UNL     1      -4.978  13.034  21.973  0.00  0.00    +0.000 A 
ATOM     24  C   UNL     1      -5.677  12.853  23.156  0.00  0.00    +0.000 A 
ATOM     25  N   UNL     1      -5.099  12.493  24.323  0.00  0.00    +0.000 NA
ATOM     26  C   UNL     1      -3.752  12.343  24.312  0.00  0.00    +0.000 A 
ENDBRANCH  20  21
ENDBRANCH  17  20
ENDBRANCH   3  14
TORSDOF 5
ENDMDL
MODEL 2
REMARK VINA RESULT:      -7.9      7.788     10.474
REMARK  Name = 
REMARK  5 active torsions:
REMARK  status: ('A' for Active; 'I' for Inactive)
REMARK    1  A    between atoms: O_1  and  C_2
REMARK    2  A    between atoms: C_5  and  C_6
REMARK    3  A    between atoms: C_8  and  C_9
REMARK    4  A    between atoms: C_12  and  O_13
REMARK    5  A    between atoms: O_13  and  C_14
REMARK                            x       y       z     vdW  Elec       q    Type
REMARK                         _______ _______ _______ _____ _____    ______ ____
ROOT
ATOM      1  C   UNL     1       8.590   9.687  18.069  0.00  0.00    +0.000 A 
ATOM      2  N   UNL     1       7.683   9.005  17.410  0.00  0.00    +0.000 NA
ATOM      3  C   UNL     1       7.717   7.775  18.030  0.00  0.00    +0.000 A 
ATOM      4  N   UNL     1       8.623   7.686  19.018  0.00  0.00    +0.000 NA
ATOM      5  O   UNL     1       9.201   8.955  19.047  0.00  0.00    +0.000 OA
ENDROOT
BRANCH   1   9
ATOM      6  C   UNL     1       9.834  13.729  17.558  0.00  0.00    +0.000 A 
ATOM      7  C   UNL     1      10.778  12.739  17.806  0.00  0.00    +0.000 A 
ATOM      8  C   UNL     1      10.355  11.418  17.985  0.00  0.00    +0.000 A 
ATOM      9  C   UNL     1       8.992  11.080  17.916  0.00  0.00    +0.000 A 
ATOM     10  C   UNL     1       8.059  12.101  17.680  0.00  0.00    +0.000 A 
ATOM     11  C   UNL     1       8.479  13.422  17.500  0.00  0.00    +0.000 A 
BRANCH   6  12
ATOM     12  O   UNL     1      10.198  15.026  17.363  0.00  0.00    +0.000 OA
ATOM     13  H   UNL     1       9.716  15.374  16.595  0.00  0.00    +0.000 HD
ENDBRANCH   6  12
ENDBRANCH   1   9
BRANCH   3  14
ATOM     14  C   UNL     1       6.830   6.695  17.619  0.00  0.00    +0.000 A 
ATOM     15  C   UNL     1       6.850   5.487  18.330  0.00  0.00    +0.000 A 
ATOM     16  C   UNL     1       6.017   4.431  17.964  0.00  0.00    +0.000 A 
ATOM     17  C   UNL     1       5.101   4.592  16.923  0.00  0.00    +0.000 A 
ATOM     18  C   UNL     1       5.102   5.773  16.178  0.00  0.00    +0.000 A 
ATOM     19  C   UNL     1       5.964   6.821  16.525  0.00  0.00    +0.000 A 
BRANCH  17  20
ATOM     20  O   UNL     1       4.191   3.628  16.543  0.00  0.00    +0.000 OA
BRANCH  20  21
ATOM     21  C   UNL     1       3.142   3.339  17.382  0.00  0.00    +0.000 A 
ATOM     22  C   UNL     1       2.144   4.244  17.740  0.00  0.00    +0.000 A 
ATOM     23  C   UNL     1       1.171   3.863  18.659  0.00  0.00    +0.000 A 
ATOM     24  C   UNL     1       1.195   2.563  19.139  0.00  0.00    +0.000 A 
ATOM     25  N   UNL     1       2.104   1.639  18.758  0.00  0.00    +0.000 NA
ATOM     26  C   UNL     1       3.056   2.048  17.884  0.00  0.00    +0.000 A 
ENDBRANCH  20  21
ENDBRANCH  17  20
ENDBRANCH   3  14
TORSDOF 5
ENDMDL
MODEL 3
REMARK VINA RESULT:      -7.8      2.310      9.975
REMARK  Name = 
REMARK  5 active torsions:
REMARK  status: ('A' for Active; 'I' for Inactive)
REMARK    1  A    between atoms: O_1  and  C_2
REMARK    2  A    between atoms: C_5  and  C_6
REMARK    3  A    between atoms: C_8  and  C_9
REMARK    4  A    between atoms: C_12  and  O_13
REMARK    5  A    between atoms: O_13  and  C_14
REMARK                            x       y       z     vdW  Elec       q    Type
REMARK                         _______ _______ _______ _____ _____    ______ ____
ROOT
ATOM      1  C   UNL     1      -0.218  10.401  21.777  0.00  0.00    +0.000 A 
ATOM      2  N   UNL     1      -0.008   9.606  20.755  0.00  0.00    +0.000 NA
ATOM      3  C   UNL     1       1.097   8.885  21.152  0.00  0.00    +0.000 A 
ATOM      4  N   UNL     1       1.571   9.232  22.361  0.00  0.00    +0.000 NA
ATOM      5  O   UNL     1       0.698  10.236  22.778  0.00  0.00    +0.000 OA
ENDROOT
BRANCH   1   9
ATOM      6  C   UNL     1      -3.362  13.225  22.309  0.00  0.00    +0.000 A 
ATOM      7  C   UNL     1      -2.767  13.076  21.061  0.00  0.00    +0.000 A 
ATOM      8  C   UNL     1      -1.727  12.155  20.904  0.00  0.00    +0.000 A 
ATOM      9  C   UNL     1      -1.278  11.379  21.986  0.00  0.00    +0.000 A 
ATOM     10  C   UNL     1      -1.885  11.561  23.238  0.00  0.00    +0.000 A 
ATOM     11  C   UNL     1      -2.926  12.480  23.398  0.00  0.00    +0.000 A 
BRANCH   6  12
ATOM     12  O   UNL     1      -4.388  14.098  22.508  0.00  0.00    +0.000 OA
ATOM     13  H   UNL     1      -5.210  13.695  22.183  0.00  0.00    +0.000 HD
ENDBRANCH   6  12
ENDBRANCH   1   9
BRANCH   3  14
ATOM     14  C   UNL     1       1.668   7.846  20.305  0.00  0.00    +0.000 A 
ATOM     15  C   UNL     1       1.716   6.528  20.780  0.00  0.00    +0.000 A 
ATOM     16  C   UNL     1       2.258   5.509  19.999  0.00  0.00    +0.000 A 
ATOM     17  C   UNL     1       2.698   5.780  18.702  0.00  0.00    +0.000 A 
ATOM     18  C   UNL     1       2.698   7.096  18.234  0.00  0.00    +0.000 A 
ATOM     19  C   UNL     1       2.185   8.126  19.033  0.00  0.00    +0.000 A 
BRANCH  17  20
ATOM     20  O   UNL     1       3.178   4.821  17.836  0.00  0.00    +0.000 OA
BRANCH  20  21
ATOM     21  C   UNL     1       4.521   4.798  17.551  0.00  0.00    +0.000 A 
ATOM     22  C   UNL     1       5.064   5.006  16.284  0.00  0.00    +0.000 A 
ATOM     23  C   UNL     1       6.438   4.882  16.098  0.00  0.00    +0.000 A 
ATOM     24  C   UNL     1       7.228   4.618  17.206  0.00  0.00    +0.000 A 
ATOM     25  N   UNL     1       6.743   4.482  18.459  0.00  0.00    +0.000 NA
ATOM     26  C   UNL     1       5.399   4.579  18.604  0.00  0.00    +0.000 A 
ENDBRANCH  20  21
ENDBRANCH  17  20
ENDBRANCH   3  14
TORSDOF 5
ENDMDL
MODEL 4
REMARK VINA RESULT:      -7.7      1.491      1.838
REMARK  Name = 
REMARK  5 active torsions:
REMARK  status: ('A' for Active; 'I' for Inactive)
REMARK    1  A    between atoms: O_1  and  C_2
REMARK    2  A    between atoms: C_5  and  C_6
REMARK    3  A    between atoms: C_8  and  C_9
REMARK    4  A    between atoms: C_12  and  O_13
REMARK    5  A    between atoms: O_13  and  C_14
REMARK                            x       y       z     vdW  Elec       q    Type
REMARK                         _______ _______ _______ _____ _____    ______ ____
ROOT
ATOM      1  C   UNL     1       2.332   7.915  18.366  0.00  0.00    +0.000 A 
ATOM      2  N   UNL     1       1.827   8.229  19.535  0.00  0.00    +0.000 NA
ATOM      3  C   UNL     1       1.278   9.472  19.305  0.00  0.00    +0.000 A 
ATOM      4  N   UNL     1       1.455   9.924  18.051  0.00  0.00    +0.000 NA
ATOM      5  O   UNL     1       2.151   8.890  17.427  0.00  0.00    +0.000 OA
ENDROOT
BRANCH   1   9
ATOM      6  C   UNL     1       4.391   4.373  17.198  0.00  0.00    +0.000 A 
ATOM      7  C   UNL     1       5.004   5.612  17.049  0.00  0.00    +0.000 A 
ATOM      8  C   UNL     1       4.311   6.768  17.424  0.00  0.00    +0.000 A 
ATOM      9  C   UNL     1       3.010   6.693  17.950  0.00  0.00    +0.000 A 
ATOM     10  C   UNL     1       2.409   5.431  18.074  0.00  0.00    +0.000 A 
ATOM     11  C   UNL     1       3.099   4.274  17.702  0.00  0.00    +0.000 A 
BRANCH   6  12
ATOM     12  O   UNL     1       5.030   3.219  16.862  0.00  0.00    +0.000 OA
ATOM     13  H   UNL     1       5.786   3.434  16.291  0.00  0.00    +0.000 HD
ENDBRANCH   6  12
ENDBRANCH   1   9
BRANCH   3  14
ATOM     14  C   UNL     1       0.576  10.197  20.356  0.00  0.00    +0.000 A 
ATOM     15  C   UNL     1       0.535  11.597  20.310  0.00  0.00    +0.000 A 
ATOM     16  C   UNL     1      -0.125  12.323  21.300  0.00  0.00    +0.000 A 
ATOM     17  C   UNL     1      -0.813  11.656  22.315  0.00  0.00    +0.000 A 
ATOM     18  C   UNL     1      -0.742  10.265  22.397  0.00  0.00    +0.000 A 
ATOM     19  C   UNL     1      -0.050   9.536  21.422  0.00  0.00    +0.000 A 
BRANCH  17  20
ATOM     20  O   UNL     1      -1.552  12.292  23.289  0.00  0.00    +0.000 OA
BRANCH  20  21
ATOM     21  C   UNL     1      -2.898  12.478  23.086  0.00  0.00    +0.000 A 
ATOM     22  C   UNL     1      -3.476  12.789  21.856  0.00  0.00    +0.000 A 
ATOM     23  C   UNL     1      -4.844  13.031  21.783  0.00  0.00    +0.000 A 
ATOM     24  C   UNL     1      -5.598  12.889  22.938  0.00  0.00    +0.000 A 
ATOM     25  N   UNL     1      -5.082  12.519  24.130  0.00  0.00    +0.000 NA
ATOM     26  C   UNL     1      -3.742  12.318  24.176  0.00  0.00    +0.000 A 
ENDBRANCH  20  21
ENDBRANCH  17  20
ENDBRANCH   3  14
TORSDOF 5
ENDMDL
MODEL 5
REMARK VINA RESULT:      -7.7      2.779     10.223
REMARK  Name = 
REMARK  5 active torsions:
REMARK  status: ('A' for Active; 'I' for Inactive)
REMARK    1  A    between atoms: O_1  and  C_2
REMARK    2  A    between atoms: C_5  and  C_6
REMARK    3  A    between atoms: C_8  and  C_9
REMARK    4  A    between atoms: C_12  and  O_13
REMARK    5  A    between atoms: O_13  and  C_14
REMARK                            x       y       z     vdW  Elec       q    Type
REMARK                         _______ _______ _______ _____ _____    ______ ____
ROOT
ATOM      1  C   UNL     1       0.009  10.347  20.183  0.00  0.00    +0.000 A 
ATOM      2  N   UNL     1       0.730   9.262  20.336  0.00  0.00    +0.000 NA
ATOM      3  C   UNL     1       1.310   9.105  19.096  0.00  0.00    +0.000 A 
ATOM      4  N   UNL     1       0.949  10.040  18.201  0.00  0.00    +0.000 NA
ATOM      5  O   UNL     1       0.088  10.867  18.922  0.00  0.00    +0.000 OA
ENDROOT
BRANCH   1   9
ATOM      6  C   UNL     1      -2.459  12.418  22.970  0.00  0.00    +0.000 A 
ATOM      7  C   UNL     1      -2.448  12.803  21.635  0.00  0.00    +0.000 A 
ATOM      8  C   UNL     1      -1.623  12.123  20.733  0.00  0.00    +0.000 A 
ATOM      9  C   UNL     1      -0.810  11.059  21.158  0.00  0.00    +0.000 A 
ATOM     10  C   UNL     1      -0.827  10.702  22.514  0.00  0.00    +0.000 A 
ATOM     11  C   UNL     1      -1.651  11.379  23.418  0.00  0.00    +0.000 A 
BRANCH   6  12
ATOM     12  O   UNL     1      -3.255  13.039  23.883  0.00  0.00    +0.000 OA
ATOM     13  H   UNL     1      -2.715  13.290  24.651  0.00  0.00    +0.000 HD
ENDBRANCH   6  12
ENDBRANCH   1   9
BRANCH   3  14
ATOM     14  C   UNL     1       2.231   8.010  18.823  0.00  0.00    +0.000 A 
ATOM     15  C   UNL     1       2.997   8.037  17.650  0.00  0.00    +0.000 A 
ATOM     16  C   UNL     1       3.885   7.004  17.355  0.00  0.00    +0.000 A 
ATOM     17  C   UNL     1       4.072   5.961  18.264  0.00  0.00    +0.000 A 
ATOM     18  C   UNL     1       3.283   5.899  19.414  0.00  0.00    +0.000 A 
ATOM     19  C   UNL     1       2.365   6.919  19.693  0.00  0.00    +0.000 A 
BRANCH  17  20
ATOM     20  O   UNL     1       4.982   4.941  18.088  0.00  0.00    +0.000 OA
BRANCH  20  21
ATOM     21  C   UNL     1       5.633   4.834  16.883  0.00  0.00    +0.000 A 
ATOM     22  C   UNL     1       5.193   4.055  15.813  0.00  0.00    +0.000 A 
ATOM     23  C   UNL     1       5.975   3.962  14.666  0.00  0.00    +0.000 A 
ATOM     24  C   UNL     1       7.143   4.707  14.607  0.00  0.00    +0.000 A 
ATOM     25  N   UNL     1       7.562   5.526  15.595  0.00  0.00    +0.000 NA
ATOM     26  C   UNL     1       6.794   5.574  16.711  0.00  0.00    +0.000 A 
ENDBRANCH  20  21
ENDBRANCH  17  20
ENDBRANCH   3  14
TORSDOF 5
ENDMDL
MODEL 6
REMARK VINA RESULT:      -7.7      2.291      9.962
REMARK  Name = 
REMARK  5 active torsions:
REMARK  status: ('A' for Active; 'I' for Inactive)
REMARK    1  A    between atoms: O_1  and  C_2
REMARK    2  A    between atoms: C_5  and  C_6
REMARK    3  A    between atoms: C_8  and  C_9
REMARK    4  A    between atoms: C_12  and  O_13
REMARK    5  A    between atoms: O_13  and  C_14
REMARK                            x       y       z     vdW  Elec       q    Type
REMARK                         _______ _______ _______ _____ _____    ______ ____
ROOT
ATOM      1  C   UNL     1      -0.773  10.881  21.964  0.00  0.00    +0.000 A 
ATOM      2  N   UNL     1      -0.414  10.248  20.873  0.00  0.00    +0.000 NA
ATOM      3  C   UNL     1       0.629   9.460  21.308  0.00  0.00    +0.000 A 
ATOM      4  N   UNL     1       0.923   9.612  22.610  0.00  0.00    +0.000 NA
ATOM      5  O   UNL     1      -0.008  10.553  23.047  0.00  0.00    +0.000 OA
ENDROOT
BRANCH   1   9
ATOM      6  C   UNL     1      -3.990  13.626  22.476  0.00  0.00    +0.000 A 
ATOM      7  C   UNL     1      -3.351  13.529  21.245  0.00  0.00    +0.000 A 
ATOM      8  C   UNL     1      -2.287  12.633  21.095  0.00  0.00    +0.000 A 
ATOM      9  C   UNL     1      -1.860  11.832  22.167  0.00  0.00    +0.000 A 
ATOM     10  C   UNL     1      -2.512  11.962  23.403  0.00  0.00    +0.000 A 
ATOM     11  C   UNL     1      -3.576  12.855  23.556  0.00  0.00    +0.000 A 
BRANCH   6  12
ATOM     12  O   UNL     1      -5.039  14.472  22.668  0.00  0.00    +0.000 OA
ATOM     13  H   UNL     1      -4.731  15.245  23.168  0.00  0.00    +0.000 HD
ENDBRANCH   6  12
ENDBRANCH   1   9
BRANCH   3  14
ATOM     14  C   UNL     1       1.323   8.554  20.402  0.00  0.00    +0.000 A 
ATOM     15  C   UNL     1       1.660   8.998  19.116  0.00  0.00    +0.000 A 
ATOM     16  C   UNL     1       2.320   8.158  18.222  0.00  0.00    +0.000 A 
ATOM     17  C   UNL     1       2.716   6.881  18.625  0.00  0.00    +0.000 A 
ATOM     18  C   UNL     1       2.346   6.409  19.886  0.00  0.00    +0.000 A 
ATOM     19  C   UNL     1       1.652   7.242  20.772  0.00  0.00    +0.000 A 
BRANCH  17  20
ATOM     20  O   UNL     1       3.436   6.013  17.832  0.00  0.00    +0.000 OA
BRANCH  20  21
ATOM     21  C   UNL     1       4.806   6.007  17.930  0.00  0.00    +0.000 A 
ATOM     22  C   UNL     1       5.654   6.855  17.220  0.00  0.00    +0.000 A 
ATOM     23  C   UNL     1       7.032   6.707  17.342  0.00  0.00    +0.000 A 
ATOM     24  C   UNL     1       7.513   5.753  18.225  0.00  0.00    +0.000 A 
ATOM     25  N   UNL     1       6.721   4.964  18.983  0.00  0.00    +0.000 NA
ATOM     26  C   UNL     1       5.383   5.112  18.821  0.00  0.00    +0.000 A 
ENDBRANCH  20  21
ENDBRANCH  17  20
ENDBRANCH   3  14
TORSDOF 5
ENDMDL
MODEL 7
REMARK VINA RESULT:      -7.6      2.398      9.466
REMARK  Name = 
REMARK  5 active torsions:
REMARK  status: ('A' for Active; 'I' for Inactive)
REMARK    1  A    between atoms: O_1  and  C_2
REMARK    2  A    between atoms: C_5  and  C_6
REMARK    3  A    between atoms: C_8  and  C_9
REMARK    4  A    between atoms: C_12  and  O_13
REMARK    5  A    between atoms: O_13  and  C_14
REMARK                            x       y       z     vdW  Elec       q    Type
REMARK                         _______ _______ _______ _____ _____    ______ ____
ROOT
ATOM      1  C   UNL     1      -0.803  11.867  21.207  0.00  0.00    +0.000 A 
ATOM      2  N   UNL     1      -0.228  10.688  21.190  0.00  0.00    +0.000 NA
ATOM      3  C   UNL     1       0.324  10.636  19.929  0.00  0.00    +0.000 A 
ATOM      4  N   UNL     1       0.084  11.727  19.182  0.00  0.00    +0.000 NA
ATOM      5  O   UNL     1      -0.661  12.545  20.030  0.00  0.00    +0.000 OA
ENDROOT
BRANCH   1   9
ATOM      6  C   UNL     1      -2.886  13.893  24.322  0.00  0.00    +0.000 A 
ATOM      7  C   UNL     1      -1.659  14.375  23.881  0.00  0.00    +0.000 A 
ATOM      8  C   UNL     1      -0.979  13.692  22.867  0.00  0.00    +0.000 A 
ATOM      9  C   UNL     1      -1.520  12.531  22.288  0.00  0.00    +0.000 A 
ATOM     10  C   UNL     1      -2.752  12.057  22.763  0.00  0.00    +0.000 A 
ATOM     11  C   UNL     1      -3.434  12.738  23.776  0.00  0.00    +0.000 A 
BRANCH   6  12
ATOM     12  O   UNL     1      -3.592  14.530  25.295  0.00  0.00    +0.000 OA
ATOM     13  H   UNL     1      -3.706  15.461  25.042  0.00  0.00    +0.000 HD
ENDBRANCH   6  12
ENDBRANCH   1   9
BRANCH   3  14
ATOM     14  C   UNL     1       1.095   9.482  19.486  0.00  0.00    +0.000 A 
ATOM     15  C   UNL     1       1.364   8.450  20.396  0.00  0.00    +0.000 A 
ATOM     16  C   UNL     1       2.101   7.333  20.009  0.00  0.00    +0.000 A 
ATOM     17  C   UNL     1       2.521   7.197  18.684  0.00  0.00    +0.000 A 
ATOM     18  C   UNL     1       2.300   8.237  17.780  0.00  0.00    +0.000 A 
ATOM     19  C   UNL     1       1.589   9.376  18.179  0.00  0.00    +0.000 A 
BRANCH  17  20
ATOM     20  O   UNL     1       3.189   6.093  18.199  0.00  0.00    +0.000 OA
BRANCH  20  21
ATOM     21  C   UNL     1       2.727   4.842  18.524  0.00  0.00    +0.000 A 
ATOM     22  C   UNL     1       1.558   4.275  18.018  0.00  0.00    +0.000 A 
ATOM     23  C   UNL     1       1.146   3.028  18.478  0.00  0.00    +0.000 A 
ATOM     24  C   UNL     1       1.957   2.362  19.384  0.00  0.00    +0.000 A 
ATOM     25  N   UNL     1       3.131   2.850  19.840  0.00  0.00    +0.000 NA
ATOM     26  C   UNL     1       3.491   4.079  19.396  0.00  0.00    +0.000 A 
ENDBRANCH  20  21
ENDBRANCH  17  20
ENDBRANCH   3  14
TORSDOF 5
ENDMDL
MODEL 8
REMARK VINA RESULT:      -7.6      1.065      1.643
REMARK  Name = 
REMARK  5 active torsions:
REMARK  status: ('A' for Active; 'I' for Inactive)
REMARK    1  A    between atoms: O_1  and  C_2
REMARK    2  A    between atoms: C_5  and  C_6
REMARK    3  A    between atoms: C_8  and  C_9
REMARK    4  A    between atoms: C_12  and  O_13
REMARK    5  A    between atoms: O_13  and  C_14
REMARK                            x       y       z     vdW  Elec       q    Type
REMARK                         _______ _______ _______ _____ _____    ______ ____
ROOT
ATOM      1  C   UNL     1       2.324   7.325  18.891  0.00  0.00    +0.000 A 
ATOM      2  N   UNL     1       1.757   7.753  19.994  0.00  0.00    +0.000 NA
ATOM      3  C   UNL     1       1.380   9.037  19.666  0.00  0.00    +0.000 A 
ATOM      4  N   UNL     1       1.719   9.403  18.417  0.00  0.00    +0.000 NA
ATOM      5  O   UNL     1       2.342   8.267  17.902  0.00  0.00    +0.000 OA
ENDROOT
BRANCH   1   9
ATOM      6  C   UNL     1       3.932   3.502  17.920  0.00  0.00    +0.000 A 
ATOM      7  C   UNL     1       2.587   3.767  17.691  0.00  0.00    +0.000 A 
ATOM      8  C   UNL     1       2.068   5.022  18.027  0.00  0.00    +0.000 A 
ATOM      9  C   UNL     1       2.888   6.016  18.589  0.00  0.00    +0.000 A 
ATOM     10  C   UNL     1       4.238   5.716  18.825  0.00  0.00    +0.000 A 
ATOM     11  C   UNL     1       4.759   4.463  18.489  0.00  0.00    +0.000 A 
BRANCH   6  12
ATOM     12  O   UNL     1       4.486   2.301  17.597  0.00  0.00    +0.000 OA
ATOM     13  H   UNL     1       5.300   2.182  18.114  0.00  0.00    +0.000 HD
ENDBRANCH   6  12
ENDBRANCH   1   9
BRANCH   3  14
ATOM     14  C   UNL     1       0.677   9.887  20.617  0.00  0.00    +0.000 A 
ATOM     15  C   UNL     1       0.666  11.274  20.414  0.00  0.00    +0.000 A 
ATOM     16  C   UNL     1       0.006  12.119  21.305  0.00  0.00    +0.000 A 
ATOM     17  C   UNL     1      -0.712  11.582  22.376  0.00  0.00    +0.000 A 
ATOM     18  C   UNL     1      -0.671  10.207  22.614  0.00  0.00    +0.000 A 
ATOM     19  C   UNL     1       0.021   9.362  21.738  0.00  0.00    +0.000 A 
BRANCH  17  20
ATOM     20  O   UNL     1      -1.452  12.337  23.260  0.00  0.00    +0.000 OA
BRANCH  20  21
ATOM     21  C   UNL     1      -2.798  12.495  23.033  0.00  0.00    +0.000 A 
ATOM     22  C   UNL     1      -3.365  12.741  21.784  0.00  0.00    +0.000 A 
ATOM     23  C   UNL     1      -4.736  12.960  21.685  0.00  0.00    +0.000 A 
ATOM     24  C   UNL     1      -5.501  12.859  22.836  0.00  0.00    +0.000 A 
ATOM     25  N   UNL     1      -4.995  12.551  24.049  0.00  0.00    +0.000 NA
ATOM     26  C   UNL     1      -3.653  12.371  24.120  0.00  0.00    +0.000 A 
ENDBRANCH  20  21
ENDBRANCH  17  20
ENDBRANCH   3  14
TORSDOF 5
ENDMDL
MODEL 9
REMARK VINA RESULT:      -7.6      1.897      2.282
REMARK  Name = 
REMARK  5 active torsions:
REMARK  status: ('A' for Active; 'I' for Inactive)
REMARK    1  A    between atoms: O_1  and  C_2
REMARK    2  A    between atoms: C_5  and  C_6
REMARK    3  A    between atoms: C_8  and  C_9
REMARK    4  A    between atoms: C_12  and  O_13
REMARK    5  A    between atoms: O_13  and  C_14
REMARK                            x       y       z     vdW  Elec       q    Type
REMARK                         _______ _______ _______ _____ _____    ______ ____
ROOT
ATOM      1  C   UNL     1       2.740   6.547  18.962  0.00  0.00    +0.000 A 
ATOM      2  N   UNL     1       2.272   7.765  19.098  0.00  0.00    +0.000 NA
ATOM      3  C   UNL     1       1.598   7.701  20.298  0.00  0.00    +0.000 A 
ATOM      4  N   UNL     1       1.624   6.487  20.875  0.00  0.00    +0.000 NA
ATOM      5  O   UNL     1       2.384   5.722  19.991  0.00  0.00    +0.000 OA
ENDROOT
BRANCH   1   9
ATOM      6  C   UNL     1       5.274   4.976  15.920  0.00  0.00    +0.000 A 
ATOM      7  C   UNL     1       5.229   6.346  16.145  0.00  0.00    +0.000 A 
ATOM      8  C   UNL     1       4.383   6.850  17.138  0.00  0.00    +0.000 A 
ATOM      9  C   UNL     1       3.582   5.991  17.910  0.00  0.00    +0.000 A 
ATOM     10  C   UNL     1       3.634   4.613  17.651  0.00  0.00    +0.000 A 
ATOM     11  C   UNL     1       4.480   4.107  16.660  0.00  0.00    +0.000 A 
BRANCH   6  12
ATOM     12  O   UNL     1       6.093   4.436  14.976  0.00  0.00    +0.000 OA
ATOM     13  H   UNL     1       5.635   4.452  14.119  0.00  0.00    +0.000 HD
ENDBRANCH   6  12
ENDBRANCH   1   9
BRANCH   3  14
ATOM     14  C   UNL     1       0.931   8.870  20.856  0.00  0.00    +0.000 A 
ATOM     15  C   UNL     1       0.465   8.824  22.177  0.00  0.00    +0.000 A 
ATOM     16  C   UNL     1      -0.180   9.922  22.743  0.00  0.00    +0.000 A 
ATOM     17  C   UNL     1      -0.308  11.108  22.017  0.00  0.00    +0.000 A 
ATOM     18  C   UNL     1       0.110  11.152  20.686  0.00  0.00    +0.000 A 
ATOM     19  C   UNL     1       0.727  10.036  20.106  0.00  0.00    +0.000 A 
BRANCH  17  20
ATOM     20  O   UNL     1      -0.865  12.263  22.524  0.00  0.00    +0.000 OA
BRANCH  20  21
ATOM     21  C   UNL     1      -2.215  12.470  22.374  0.00  0.00    +0.000 A 
ATOM     22  C   UNL     1      -2.818  12.943  21.210  0.00  0.00    +0.000 A 
ATOM     23  C   UNL     1      -4.188  13.187  21.198  0.00  0.00    +0.000 A 
ATOM     24  C   UNL     1      -4.918  12.885  22.337  0.00  0.00    +0.000 A 
ATOM     25  N   UNL     1      -4.377  12.358  23.457  0.00  0.00    +0.000 NA
ATOM     26  C   UNL     1      -3.037  12.158  23.448  0.00  0.00    +0.000 A 
ENDBRANCH  20  21
ENDBRANCH  17  20
ENDBRANCH   3  14
TORSDOF 5
ENDMDL
