MODEL 1
REMARK VINA RESULT:      -7.8      0.000      0.000
REMARK  Name = 
REMARK  3 active torsions:
REMARK  status: ('A' for Active; 'I' for Inactive)
REMARK    1  A    between atoms: C_6  and  N_7
REMARK    2  A    between atoms: N_10  and  C_11
REMARK    3  A    between atoms: C_11  and  C_12
REMARK                            x       y       z     vdW  Elec       q    Type
REMARK                         _______ _______ _______ _____ _____    ______ ____
ROOT
ATOM      1  N   UNL     1       5.049   5.488  17.048  0.00  0.00    +0.000 N 
ATOM      2  C   UNL     1       6.133   6.351  16.550  0.00  0.00    +0.000 C 
ATOM      3  C   UNL     1       7.324   5.464  16.070  0.00  0.00    +0.000 C 
ATOM      4  N   UNL     1       6.983   4.349  15.139  0.00  0.00    +0.000 NA
ATOM      5  C   UNL     1       5.839   3.600  15.716  0.00  0.00    +0.000 C 
ATOM      6  C   UNL     1       4.619   4.482  16.053  0.00  0.00    +0.000 C 
ENDROOT
BRANCH   1  12
ATOM      7 CL   UNL     1       1.514   2.549  22.044  0.00  0.00    +0.000 Cl
ATOM      8  C   UNL     1       2.288   3.538  20.872  0.00  0.00    +0.000 A 
ATOM      9  C   UNL     1       3.370   3.041  20.165  0.00  0.00    +0.000 A 
ATOM     10  C   UNL     1       3.980   3.850  19.214  0.00  0.00    +0.000 A 
ATOM     11  C   UNL     1       3.494   5.150  18.912  0.00  0.00    +0.000 A 
ATOM     12  C   UNL     1       4.049   5.978  17.891  0.00  0.00    +0.000 A 
ATOM     13  C   UNL     1       3.553   7.277  17.769  0.00  0.00    +0.000 A 
ATOM     14  C   UNL     1       2.524   7.682  18.595  0.00  0.00    +0.000 A 
ATOM     15  N   UNL     1       1.944   6.898  19.524  0.00  0.00    +0.000 NA
ATOM     16  C   UNL     1       2.421   5.657  19.683  0.00  0.00    +0.000 A 
ATOM     17  C   UNL     1       1.832   4.838  20.641  0.00  0.00    +0.000 A 
ENDBRANCH   1  12
BRANCH   4  18
ATOM     18  C   UNL     1       6.699   4.873  13.790  0.00  0.00    +0.000 C 
BRANCH  18  19
ATOM     19  C   UNL     1       6.311   3.816  12.773  0.00  0.00    +0.000 A 
ATOM     20  C   UNL     1       7.293   2.993  12.199  0.00  0.00    +0.000 A 
ATOM     21  C   UNL     1       6.945   2.009  11.273  0.00  0.00    +0.000 A 
ATOM     22  C   UNL     1       5.611   1.835  10.910  0.00  0.00    +0.000 A 
ATOM     23  C   UNL     1       4.626   2.649  11.467  0.00  0.00    +0.000 A 
ATOM     24  C   UNL     1       4.973   3.636  12.393  0.00  0.00    +0.000 A 
ENDBRANCH  18  19
ENDBRANCH   4  18
TORSDOF 3
ENDMDL
MODEL 2
REMARK VINA RESULT:      -7.5      2.010      3.216
REMARK  Name = 
REMARK  3 active torsions:
REMARK  status: ('A' for Active; 'I' for Inactive)
REMARK    1  A    between atoms: C_6  and  N_7
REMARK    2  A    between atoms: N_10  and  C_11
REMARK    3  A    between atoms: C_11  and  C_12
REMARK                            x       y       z     vdW  Elec       q    Type
REMARK                         _______ _______ _______ _____ _____    ______ ____
ROOT
ATOM      1  N   UNL     1       4.572   5.568  18.163  0.00  0.00    +0.000 N 
ATOM      2  C   UNL     1       4.325   5.339  16.730  0.00  0.00    +0.000 C 
ATOM      3  C   UNL     1       5.287   6.234  15.889  0.00  0.00    +0.000 C 
ATOM      4  N   UNL     1       6.732   6.175  16.254  0.00  0.00    +0.000 NA
ATOM      5  C   UNL     1       6.843   6.349  17.724  0.00  0.00    +0.000 C 
ATOM      6  C   UNL     1       5.987   5.357  18.538  0.00  0.00    +0.000 C 
ENDROOT
BRANCH   1  12
ATOM      7 CL   UNL     1      -0.104   9.275  21.403  0.00  0.00    +0.000 Cl
ATOM      8  C   UNL     1       0.949   8.110  20.705  0.00  0.00    +0.000 A 
ATOM      9  C   UNL     1       1.763   8.473  19.645  0.00  0.00    +0.000 A 
ATOM     10  C   UNL     1       2.615   7.522  19.097  0.00  0.00    +0.000 A 
ATOM     11  C   UNL     1       2.711   6.207  19.625  0.00  0.00    +0.000 A 
ATOM     12  C   UNL     1       3.627   5.229  19.135  0.00  0.00    +0.000 A 
ATOM     13  C   UNL     1       3.544   3.940  19.664  0.00  0.00    +0.000 A 
ATOM     14  C   UNL     1       2.627   3.684  20.664  0.00  0.00    +0.000 A 
ATOM     15  N   UNL     1       1.794   4.606  21.184  0.00  0.00    +0.000 NA
ATOM     16  C   UNL     1       1.831   5.843  20.672  0.00  0.00    +0.000 A 
ATOM     17  C   UNL     1       0.975   6.804  21.199  0.00  0.00    +0.000 A 
ENDBRANCH   1  12
BRANCH   4  18
ATOM     18  C   UNL     1       7.332   4.914  15.783  0.00  0.00    +0.000 C 
BRANCH  18  19
ATOM     19  C   UNL     1       7.102   4.616  14.314  0.00  0.00    +0.000 A 
ATOM     20  C   UNL     1       7.819   5.315  13.330  0.00  0.00    +0.000 A 
ATOM     21  C   UNL     1       7.625   5.038  11.976  0.00  0.00    +0.000 A 
ATOM     22  C   UNL     1       6.713   4.059  11.589  0.00  0.00    +0.000 A 
ATOM     23  C   UNL     1       5.989   3.361  12.555  0.00  0.00    +0.000 A 
ATOM     24  C   UNL     1       6.181   3.638  13.911  0.00  0.00    +0.000 A 
ENDBRANCH  18  19
ENDBRANCH   4  18
TORSDOF 3
ENDMDL
MODEL 3
REMARK VINA RESULT:      -7.4      2.118      3.412
REMARK  Name = 
REMARK  3 active torsions:
REMARK  status: ('A' for Active; 'I' for Inactive)
REMARK    1  A    between atoms: C_6  and  N_7
REMARK    2  A    between atoms: N_10  and  C_11
REMARK    3  A    between atoms: C_11  and  C_12
REMARK                            x       y       z     vdW  Elec       q    Type
REMARK                         _______ _______ _______ _____ _____    ______ ____
ROOT
ATOM      1  N   UNL     1       4.513   5.834  18.154  0.00  0.00    +0.000 N 
ATOM      2  C   UNL     1       4.260   5.549  16.732  0.00  0.00    +0.000 C 
ATOM      3  C   UNL     1       5.262   6.361  15.854  0.00  0.00    +0.000 C 
ATOM      4  N   UNL     1       6.703   6.255  16.229  0.00  0.00    +0.000 NA
ATOM      5  C   UNL     1       6.817   6.493  17.689  0.00  0.00    +0.000 C 
ATOM      6  C   UNL     1       5.916   5.579  18.545  0.00  0.00    +0.000 C 
ENDROOT
BRANCH   1  12
ATOM      7 CL   UNL     1      -0.207   9.817  20.976  0.00  0.00    +0.000 Cl
ATOM      8  C   UNL     1       0.854   8.594  20.401  0.00  0.00    +0.000 A 
ATOM      9  C   UNL     1       1.687   8.861  19.327  0.00  0.00    +0.000 A 
ATOM     10  C   UNL     1       2.546   7.864  18.880  0.00  0.00    +0.000 A 
ATOM     11  C   UNL     1       2.629   6.601  19.522  0.00  0.00    +0.000 A 
ATOM     12  C   UNL     1       3.551   5.583  19.136  0.00  0.00    +0.000 A 
ATOM     13  C   UNL     1       3.456   4.346  19.775  0.00  0.00    +0.000 A 
ATOM     14  C   UNL     1       2.522   4.179  20.778  0.00  0.00    +0.000 A 
ATOM     15  N   UNL     1       1.683   5.144  21.201  0.00  0.00    +0.000 NA
ATOM     16  C   UNL     1       1.732   6.331  20.583  0.00  0.00    +0.000 A 
ATOM     17  C   UNL     1       0.869   7.336  21.009  0.00  0.00    +0.000 A 
ENDBRANCH   1  12
BRANCH   4  18
ATOM     18  C   UNL     1       7.248   4.948  15.821  0.00  0.00    +0.000 C 
BRANCH  18  19
ATOM     19  C   UNL     1       7.080   4.627  14.348  0.00  0.00    +0.000 A 
ATOM     20  C   UNL     1       6.146   3.662  13.937  0.00  0.00    +0.000 A 
ATOM     21  C   UNL     1       5.973   3.370  12.584  0.00  0.00    +0.000 A 
ATOM     22  C   UNL     1       6.730   4.039  11.625  0.00  0.00    +0.000 A 
ATOM     23  C   UNL     1       7.665   4.995  12.018  0.00  0.00    +0.000 A 
ATOM     24  C   UNL     1       7.840   5.288  13.373  0.00  0.00    +0.000 A 
ENDBRANCH  18  19
ENDBRANCH   4  18
TORSDOF 3
ENDMDL
MODEL 4
REMARK VINA RESULT:      -7.2      2.283      3.540
REMARK  Name = 
REMARK  3 active torsions:
REMARK  status: ('A' for Active; 'I' for Inactive)
REMARK    1  A    between atoms: C_6  and  N_7
REMARK    2  A    between atoms: N_10  and  C_11
REMARK    3  A    between atoms: C_11  and  C_12
REMARK                            x       y       z     vdW  Elec       q    Type
REMARK                         _______ _______ _______ _____ _____    ______ ____
ROOT
ATOM      1  N   UNL     1       4.476   6.184  18.096  0.00  0.00    +0.000 N 
ATOM      2  C   UNL     1       4.182   5.930  16.676  0.00  0.00    +0.000 C 
ATOM      3  C   UNL     1       5.327   6.519  15.796  0.00  0.00    +0.000 C 
ATOM      4  N   UNL     1       6.718   6.146  16.186  0.00  0.00    +0.000 NA
ATOM      5  C   UNL     1       6.867   6.382  17.643  0.00  0.00    +0.000 C 
ATOM      6  C   UNL     1       5.801   5.672  18.504  0.00  0.00    +0.000 C 
ENDROOT
BRANCH   1  12
ATOM      7 CL   UNL     1      -0.224  10.715  19.965  0.00  0.00    +0.000 Cl
ATOM      8  C   UNL     1       0.823   9.386  19.663  0.00  0.00    +0.000 A 
ATOM      9  C   UNL     1       1.695   9.432  18.588  0.00  0.00    +0.000 A 
ATOM     10  C   UNL     1       2.541   8.353  18.364  0.00  0.00    +0.000 A 
ATOM     11  C   UNL     1       2.571   7.230  19.231  0.00  0.00    +0.000 A 
ATOM     12  C   UNL     1       3.477   6.139  19.072  0.00  0.00    +0.000 A 
ATOM     13  C   UNL     1       3.330   5.044  19.925  0.00  0.00    +0.000 A 
ATOM     14  C   UNL     1       2.360   5.084  20.907  0.00  0.00    +0.000 A 
ATOM     15  N   UNL     1       1.534   6.128  21.114  0.00  0.00    +0.000 NA
ATOM     16  C   UNL     1       1.634   7.179  20.290  0.00  0.00    +0.000 A 
ATOM     17  C   UNL     1       0.785   8.262  20.492  0.00  0.00    +0.000 A 
ENDBRANCH   1  12
BRANCH   4  18
ATOM     18  C   UNL     1       7.005   4.752  15.803  0.00  0.00    +0.000 C 
BRANCH  18  19
ATOM     19  C   UNL     1       6.883   4.468  14.317  0.00  0.00    +0.000 A 
ATOM     20  C   UNL     1       7.709   5.137  13.400  0.00  0.00    +0.000 A 
ATOM     21  C   UNL     1       7.614   4.872  12.033  0.00  0.00    +0.000 A 
ATOM     22  C   UNL     1       6.695   3.936  11.567  0.00  0.00    +0.000 A 
ATOM     23  C   UNL     1       5.864   3.269  12.465  0.00  0.00    +0.000 A 
ATOM     24  C   UNL     1       5.956   3.533  13.834  0.00  0.00    +0.000 A 
ENDBRANCH  18  19
ENDBRANCH   4  18
TORSDOF 3
ENDMDL
MODEL 5
REMARK VINA RESULT:      -7.0      4.751      7.331
REMARK  Name = 
REMARK  3 active torsions:
REMARK  status: ('A' for Active; 'I' for Inactive)
REMARK    1  A    between atoms: C_6  and  N_7
REMARK    2  A    between atoms: N_10  and  C_11
REMARK    3  A    between atoms: C_11  and  C_12
REMARK                            x       y       z     vdW  Elec       q    Type
REMARK                         _______ _______ _______ _____ _____    ______ ____
ROOT
ATOM      1  N   UNL     1       1.316   9.243  19.359  0.00  0.00    +0.000 N 
ATOM      2  C   UNL     1       1.665   9.094  17.936  0.00  0.00    +0.000 C 
ATOM      3  C   UNL     1       2.914   8.168  17.803  0.00  0.00    +0.000 C 
ATOM      4  N   UNL     1       2.853   6.869  18.535  0.00  0.00    +0.000 NA
ATOM      5  C   UNL     1       2.426   7.145  19.929  0.00  0.00    +0.000 C 
ATOM      6  C   UNL     1       1.111   7.944  20.034  0.00  0.00    +0.000 C 
ENDROOT
BRANCH   1  12
ATOM      7 CL   UNL     1      -4.562  11.774  17.089  0.00  0.00    +0.000 Cl
ATOM      8  C   UNL     1      -3.116  11.306  17.891  0.00  0.00    +0.000 A 
ATOM      9  C   UNL     1      -2.447  10.164  17.483  0.00  0.00    +0.000 A 
ATOM     10  C   UNL     1      -1.274   9.804  18.137  0.00  0.00    +0.000 A 
ATOM     11  C   UNL     1      -0.718  10.599  19.172  0.00  0.00    +0.000 A 
ATOM     12  C   UNL     1       0.521  10.299  19.813  0.00  0.00    +0.000 A 
ATOM     13  C   UNL     1       0.904  11.097  20.892  0.00  0.00    +0.000 A 
ATOM     14  C   UNL     1       0.103  12.162  21.255  0.00  0.00    +0.000 A 
ATOM     15  N   UNL     1      -1.040  12.501  20.627  0.00  0.00    +0.000 NA
ATOM     16  C   UNL     1      -1.445  11.732  19.608  0.00  0.00    +0.000 A 
ATOM     17  C   UNL     1      -2.624  12.070  18.952  0.00  0.00    +0.000 A 
ENDBRANCH   1  12
BRANCH   4  18
ATOM     18  C   UNL     1       1.956   5.927  17.840  0.00  0.00    +0.000 C 
BRANCH  18  19
ATOM     19  C   UNL     1       2.285   4.463  18.062  0.00  0.00    +0.000 A 
ATOM     20  C   UNL     1       3.493   3.930  17.583  0.00  0.00    +0.000 A 
ATOM     21  C   UNL     1       3.811   2.588  17.794  0.00  0.00    +0.000 A 
ATOM     22  C   UNL     1       2.928   1.763  18.487  0.00  0.00    +0.000 A 
ATOM     23  C   UNL     1       1.723   2.277  18.963  0.00  0.00    +0.000 A 
ATOM     24  C   UNL     1       1.402   3.620  18.751  0.00  0.00    +0.000 A 
ENDBRANCH  18  19
ENDBRANCH   4  18
TORSDOF 3
ENDMDL
MODEL 6
REMARK VINA RESULT:      -6.9      1.974      2.972
REMARK  Name = 
REMARK  3 active torsions:
REMARK  status: ('A' for Active; 'I' for Inactive)
REMARK    1  A    between atoms: C_6  and  N_7
REMARK    2  A    between atoms: N_10  and  C_11
REMARK    3  A    between atoms: C_11  and  C_12
REMARK                            x       y       z     vdW  Elec       q    Type
REMARK                         _______ _______ _______ _____ _____    ______ ____
ROOT
ATOM      1  N   UNL     1       4.808   5.014  17.823  0.00  0.00    +0.000 N 
ATOM      2  C   UNL     1       5.787   6.041  17.426  0.00  0.00    +0.000 C 
ATOM      3  C   UNL     1       7.027   5.351  16.777  0.00  0.00    +0.000 C 
ATOM      4  N   UNL     1       6.741   4.360  15.698  0.00  0.00    +0.000 NA
ATOM      5  C   UNL     1       5.696   3.430  16.192  0.00  0.00    +0.000 C 
ATOM      6  C   UNL     1       4.421   4.133  16.701  0.00  0.00    +0.000 C 
ENDROOT
BRANCH   1  12
ATOM      7 CL   UNL     1       0.899  10.468  18.860  0.00  0.00    +0.000 Cl
ATOM      8  C   UNL     1       1.717   8.959  18.790  0.00  0.00    +0.000 A 
ATOM      9  C   UNL     1       2.591   8.703  17.747  0.00  0.00    +0.000 A 
ATOM     10  C   UNL     1       3.251   7.480  17.709  0.00  0.00    +0.000 A 
ATOM     11  C   UNL     1       3.093   6.510  18.733  0.00  0.00    +0.000 A 
ATOM     12  C   UNL     1       3.810   5.277  18.765  0.00  0.00    +0.000 A 
ATOM     13  C   UNL     1       3.483   4.361  19.765  0.00  0.00    +0.000 A 
ATOM     14  C   UNL     1       2.527   4.704  20.702  0.00  0.00    +0.000 A 
ATOM     15  N   UNL     1       1.881   5.886  20.728  0.00  0.00    +0.000 NA
ATOM     16  C   UNL     1       2.155   6.771  19.761  0.00  0.00    +0.000 A 
ATOM     17  C   UNL     1       1.493   7.994  19.775  0.00  0.00    +0.000 A 
ENDBRANCH   1  12
BRANCH   4  18
ATOM     18  C   UNL     1       6.348   5.050  14.455  0.00  0.00    +0.000 C 
BRANCH  18  19
ATOM     19  C   UNL     1       6.070   4.128  13.283  0.00  0.00    +0.000 A 
ATOM     20  C   UNL     1       7.127   3.456  12.647  0.00  0.00    +0.000 A 
ATOM     21  C   UNL     1       6.880   2.595  11.577  0.00  0.00    +0.000 A 
ATOM     22  C   UNL     1       5.576   2.394  11.131  0.00  0.00    +0.000 A 
ATOM     23  C   UNL     1       4.518   3.059  11.749  0.00  0.00    +0.000 A 
ATOM     24  C   UNL     1       4.763   3.923  12.819  0.00  0.00    +0.000 A 
ENDBRANCH  18  19
ENDBRANCH   4  18
TORSDOF 3
ENDMDL
MODEL 7
REMARK VINA RESULT:      -6.8      4.032      9.180
REMARK  Name = 
REMARK  3 active torsions:
REMARK  status: ('A' for Active; 'I' for Inactive)
REMARK    1  A    between atoms: C_6  and  N_7
REMARK    2  A    between atoms: N_10  and  C_11
REMARK    3  A    between atoms: C_11  and  C_12
REMARK                            x       y       z     vdW  Elec       q    Type
REMARK                         _______ _______ _______ _____ _____    ______ ____
ROOT
ATOM      1  N   UNL     1       2.234   7.082  18.844  0.00  0.00    +0.000 N 
ATOM      2  C   UNL     1       1.705   7.310  20.200  0.00  0.00    +0.000 C 
ATOM      3  C   UNL     1       1.879   8.813  20.579  0.00  0.00    +0.000 C 
ATOM      4  N   UNL     1       1.388   9.807  19.580  0.00  0.00    +0.000 NA
ATOM      5  C   UNL     1       1.931   9.431  18.251  0.00  0.00    +0.000 C 
ATOM      6  C   UNL     1       1.624   7.977  17.837  0.00  0.00    +0.000 C 
ENDROOT
BRANCH   1  12
ATOM      7 CL   UNL     1       7.131   4.938  14.658  0.00  0.00    +0.000 Cl
ATOM      8  C   UNL     1       5.850   5.201  15.772  0.00  0.00    +0.000 A 
ATOM      9  C   UNL     1       5.646   6.468  16.293  0.00  0.00    +0.000 A 
ATOM     10  C   UNL     1       4.600   6.665  17.187  0.00  0.00    +0.000 A 
ATOM     11  C   UNL     1       3.707   5.620  17.540  0.00  0.00    +0.000 A 
ATOM     12  C   UNL     1       2.580   5.805  18.396  0.00  0.00    +0.000 A 
ATOM     13  C   UNL     1       1.846   4.674  18.755  0.00  0.00    +0.000 A 
ATOM     14  C   UNL     1       2.204   3.447  18.232  0.00  0.00    +0.000 A 
ATOM     15  N   UNL     1       3.227   3.258  17.375  0.00  0.00    +0.000 NA
ATOM     16  C   UNL     1       3.967   4.322  17.039  0.00  0.00    +0.000 A 
ATOM     17  C   UNL     1       5.026   4.140  16.156  0.00  0.00    +0.000 A 
ENDBRANCH   1  12
BRANCH   4  18
ATOM     18  C   UNL     1      -0.085   9.869  19.595  0.00  0.00    +0.000 C 
BRANCH  18  19
ATOM     19  C   UNL     1      -0.670  10.658  20.752  0.00  0.00    +0.000 A 
ATOM     20  C   UNL     1      -0.628  10.137  22.055  0.00  0.00    +0.000 A 
ATOM     21  C   UNL     1      -1.151  10.861  23.128  0.00  0.00    +0.000 A 
ATOM     22  C   UNL     1      -1.720  12.113  22.911  0.00  0.00    +0.000 A 
ATOM     23  C   UNL     1      -1.775  12.640  21.622  0.00  0.00    +0.000 A 
ATOM     24  C   UNL     1      -1.253  11.916  20.547  0.00  0.00    +0.000 A 
ENDBRANCH  18  19
ENDBRANCH   4  18
TORSDOF 3
ENDMDL
MODEL 8
REMARK VINA RESULT:      -6.8      5.770      8.351
REMARK  Name = 
REMARK  3 active torsions:
REMARK  status: ('A' for Active; 'I' for Inactive)
REMARK    1  A    between atoms: C_6  and  N_7
REMARK    2  A    between atoms: N_10  and  C_11
REMARK    3  A    between atoms: C_11  and  C_12
REMARK                            x       y       z     vdW  Elec       q    Type
REMARK                         _______ _______ _______ _____ _____    ______ ____
ROOT
ATOM      1  N   UNL     1       1.118   9.453  18.897  0.00  0.00    +0.000 N 
ATOM      2  C   UNL     1       1.597   8.851  17.641  0.00  0.00    +0.000 C 
ATOM      3  C   UNL     1       2.874   8.003  17.928  0.00  0.00    +0.000 C 
ATOM      4  N   UNL     1       2.780   7.026  19.052  0.00  0.00    +0.000 NA
ATOM      5  C   UNL     1       2.223   7.733  20.231  0.00  0.00    +0.000 C 
ATOM      6  C   UNL     1       0.885   8.449  19.958  0.00  0.00    +0.000 C 
ENDROOT
BRANCH   1  12
ATOM      7 CL   UNL     1       2.340  16.125  18.585  0.00  0.00    +0.000 Cl
ATOM      8  C   UNL     1       1.754  14.510  18.630  0.00  0.00    +0.000 A 
ATOM      9  C   UNL     1       2.640  13.457  18.475  0.00  0.00    +0.000 A 
ATOM     10  C   UNL     1       2.151  12.157  18.523  0.00  0.00    +0.000 A 
ATOM     11  C   UNL     1       0.782  11.879  18.774  0.00  0.00    +0.000 A 
ATOM     12  C   UNL     1       0.260  10.557  18.902  0.00  0.00    +0.000 A 
ATOM     13  C   UNL     1      -1.121  10.415  19.038  0.00  0.00    +0.000 A 
ATOM     14  C   UNL     1      -1.909  11.548  19.094  0.00  0.00    +0.000 A 
ATOM     15  N   UNL     1      -1.433  12.806  19.036  0.00  0.00    +0.000 NA
ATOM     16  C   UNL     1      -0.113  12.970  18.875  0.00  0.00    +0.000 A 
ATOM     17  C   UNL     1       0.391  14.264  18.812  0.00  0.00    +0.000 A 
ENDBRANCH   1  12
BRANCH   4  18
ATOM     18  C   UNL     1       1.972   5.859  18.654  0.00  0.00    +0.000 C 
BRANCH  18  19
ATOM     19  C   UNL     1       2.133   4.646  19.550  0.00  0.00    +0.000 A 
ATOM     20  C   UNL     1       3.327   3.908  19.535  0.00  0.00    +0.000 A 
ATOM     21  C   UNL     1       3.490   2.800  20.366  0.00  0.00    +0.000 A 
ATOM     22  C   UNL     1       2.462   2.415  21.224  0.00  0.00    +0.000 A 
ATOM     23  C   UNL     1       1.268   3.134  21.245  0.00  0.00    +0.000 A 
ATOM     24  C   UNL     1       1.103   4.244  20.413  0.00  0.00    +0.000 A 
ENDBRANCH  18  19
ENDBRANCH   4  18
TORSDOF 3
ENDMDL
MODEL 9
REMARK VINA RESULT:      -6.8      4.057      9.219
REMARK  Name = 
REMARK  3 active torsions:
REMARK  status: ('A' for Active; 'I' for Inactive)
REMARK    1  A    between atoms: C_6  and  N_7
REMARK    2  A    between atoms: N_10  and  C_11
REMARK    3  A    between atoms: C_11  and  C_12
REMARK                            x       y       z     vdW  Elec       q    Type
REMARK                         _______ _______ _______ _____ _____    ______ ____
ROOT
ATOM      1  N   UNL     1       2.209   6.978  18.925  0.00  0.00    +0.000 N 
ATOM      2  C   UNL     1       1.648   7.166  20.273  0.00  0.00    +0.000 C 
ATOM      3  C   UNL     1       1.826   8.655  20.705  0.00  0.00    +0.000 C 
ATOM      4  N   UNL     1       1.369   9.685  19.728  0.00  0.00    +0.000 NA
ATOM      5  C   UNL     1       1.942   9.348  18.401  0.00  0.00    +0.000 C 
ATOM      6  C   UNL     1       1.633   7.911  17.933  0.00  0.00    +0.000 C 
ENDROOT
BRANCH   1  12
ATOM      7 CL   UNL     1       7.123   4.939  14.705  0.00  0.00    +0.000 Cl
ATOM      8  C   UNL     1       5.837   5.174  15.820  0.00  0.00    +0.000 A 
ATOM      9  C   UNL     1       5.633   6.427  16.375  0.00  0.00    +0.000 A 
ATOM     10  C   UNL     1       4.582   6.602  17.268  0.00  0.00    +0.000 A 
ATOM     11  C   UNL     1       3.686   5.549  17.588  0.00  0.00    +0.000 A 
ATOM     12  C   UNL     1       2.555   5.713  18.443  0.00  0.00    +0.000 A 
ATOM     13  C   UNL     1       1.817   4.574  18.768  0.00  0.00    +0.000 A 
ATOM     14  C   UNL     1       2.176   3.362  18.213  0.00  0.00    +0.000 A 
ATOM     15  N   UNL     1       3.202   3.194  17.357  0.00  0.00    +0.000 NA
ATOM     16  C   UNL     1       3.946   4.265  17.053  0.00  0.00    +0.000 A 
ATOM     17  C   UNL     1       5.009   4.105  16.171  0.00  0.00    +0.000 A 
ENDBRANCH   1  12
BRANCH   4  18
ATOM     18  C   UNL     1      -0.104   9.762  19.709  0.00  0.00    +0.000 C 
BRANCH  18  19
ATOM     19  C   UNL     1      -0.698  10.718  20.725  0.00  0.00    +0.000 A 
ATOM     20  C   UNL     1      -1.314  11.907  20.301  0.00  0.00    +0.000 A 
ATOM     21  C   UNL     1      -1.878  12.786  21.226  0.00  0.00    +0.000 A 
ATOM     22  C   UNL     1      -1.833  12.488  22.586  0.00  0.00    +0.000 A 
ATOM     23  C   UNL     1      -1.219  11.315  23.022  0.00  0.00    +0.000 A 
ATOM     24  C   UNL     1      -0.653  10.434  22.097  0.00  0.00    +0.000 A 
ENDBRANCH  18  19
ENDBRANCH   4  18
TORSDOF 3
ENDMDL
