MODEL 1
REMARK VINA RESULT:      -6.8      0.000      0.000
REMARK  Name = 
REMARK  6 active torsions:
REMARK  status: ('A' for Active; 'I' for Inactive)
REMARK    1  A    between atoms: C_2  and  C_3
REMARK    2  A    between atoms: C_3  and  N_4
REMARK    3  A    between atoms: N_4  and  N_5
REMARK    4  A    between atoms: C_6  and  C_7
REMARK    5  A    between atoms: C_7  and  C_8
REMARK    6  A    between atoms: C_11  and  C_12
REMARK                            x       y       z     vdW  Elec       q    Type
REMARK                         _______ _______ _______ _____ _____    ______ ____
ROOT
ATOM      1  C   UNL     1       4.161   3.868  17.199  0.00  0.00    +0.000 A 
ATOM      2  C   UNL     1       4.596   4.129  18.510  0.00  0.00    +0.000 A 
ATOM      3  C   UNL     1       3.766   3.845  19.596  0.00  0.00    +0.000 A 
ATOM      4  C   UNL     1       2.453   3.398  19.390  0.00  0.00    +0.000 A 
ATOM      5  C   UNL     1       2.023   3.133  18.084  0.00  0.00    +0.000 A 
ATOM      6  C   UNL     1       2.874   3.353  17.004  0.00  0.00    +0.000 A 
ENDROOT
BRANCH   4   7
ATOM      7  C   UNL     1       1.492   3.274  20.541  0.00  0.00    +0.000 C 
ATOM      8  F   UNL     1       1.596   2.089  21.205  0.00  0.00    +0.000 F 
ATOM      9  F   UNL     1       1.690   4.243  21.479  0.00  0.00    +0.000 F 
ATOM     10  F   UNL     1       0.188   3.381  20.166  0.00  0.00    +0.000 F 
ENDBRANCH   4   7
BRANCH   1  11
ATOM     11  C   UNL     1       5.050   4.142  16.000  0.00  0.00    +0.000 C 
BRANCH  11  13
ATOM     12  N   UNL     1       6.397   6.166  16.095  0.00  0.00    +0.000 NA
ATOM     13  C   UNL     1       6.299   4.896  16.368  0.00  0.00    +0.000 C 
BRANCH  12  14
ATOM     14  N   UNL     1       7.525   6.774  16.506  0.00  0.00    +0.000 N 
ATOM     15  H   UNL     1       8.235   7.091  15.853  0.00  0.00    +0.000 HD
BRANCH  14  16
ATOM     16  C   UNL     1       7.701   7.145  17.904  0.00  0.00    +0.000 C 
BRANCH  16  18
ATOM     17  C   UNL     1       8.658   9.786  18.193  0.00  0.00    +0.000 C 
ATOM     18  C   UNL     1       8.216   8.567  18.060  0.00  0.00    +0.000 C 
ENDBRANCH  16  18
ENDBRANCH  14  16
ENDBRANCH  12  14
ENDBRANCH  11  13
ENDBRANCH   1  11
TORSDOF 6
ENDMDL
MODEL 2
REMARK VINA RESULT:      -6.8      1.237      1.532
REMARK  Name = 
REMARK  6 active torsions:
REMARK  status: ('A' for Active; 'I' for Inactive)
REMARK    1  A    between atoms: C_2  and  C_3
REMARK    2  A    between atoms: C_3  and  N_4
REMARK    3  A    between atoms: N_4  and  N_5
REMARK    4  A    between atoms: C_6  and  C_7
REMARK    5  A    between atoms: C_7  and  C_8
REMARK    6  A    between atoms: C_11  and  C_12
REMARK                            x       y       z     vdW  Elec       q    Type
REMARK                         _______ _______ _______ _____ _____    ______ ____
ROOT
ATOM      1  C   UNL     1       4.192   4.834  17.075  0.00  0.00    +0.000 A 
ATOM      2  C   UNL     1       3.435   5.644  17.939  0.00  0.00    +0.000 A 
ATOM      3  C   UNL     1       2.510   5.068  18.812  0.00  0.00    +0.000 A 
ATOM      4  C   UNL     1       2.248   3.691  18.765  0.00  0.00    +0.000 A 
ATOM      5  C   UNL     1       3.007   2.885  17.908  0.00  0.00    +0.000 A 
ATOM      6  C   UNL     1       3.976   3.451  17.084  0.00  0.00    +0.000 A 
ENDROOT
BRANCH   4   7
ATOM      7  C   UNL     1       1.121   3.094  19.564  0.00  0.00    +0.000 C 
ATOM      8  F   UNL     1       0.228   2.404  18.801  0.00  0.00    +0.000 F 
ATOM      9  F   UNL     1       1.570   2.210  20.499  0.00  0.00    +0.000 F 
ATOM     10  F   UNL     1       0.396   4.022  20.246  0.00  0.00    +0.000 F 
ENDBRANCH   4   7
BRANCH   1  11
ATOM     11  C   UNL     1       5.222   5.427  16.132  0.00  0.00    +0.000 C 
BRANCH  11  13
ATOM     12  N   UNL     1       7.010   6.071  17.653  0.00  0.00    +0.000 NA
ATOM     13  C   UNL     1       6.098   6.451  16.804  0.00  0.00    +0.000 C 
BRANCH  12  14
ATOM     14  N   UNL     1       7.782   7.045  18.166  0.00  0.00    +0.000 N 
ATOM     15  H   UNL     1       8.472   6.862  18.888  0.00  0.00    +0.000 HD
BRANCH  14  16
ATOM     16  C   UNL     1       7.769   8.384  17.591  0.00  0.00    +0.000 C 
BRANCH  16  18
ATOM     17  C   UNL     1       9.266  10.219  19.128  0.00  0.00    +0.000 C 
ATOM     18  C   UNL     1       8.575   9.372  18.418  0.00  0.00    +0.000 C 
ENDBRANCH  16  18
ENDBRANCH  14  16
ENDBRANCH  12  14
ENDBRANCH  11  13
ENDBRANCH   1  11
TORSDOF 6
ENDMDL
MODEL 3
REMARK VINA RESULT:      -6.7      2.464      4.326
REMARK  Name = 
REMARK  6 active torsions:
REMARK  status: ('A' for Active; 'I' for Inactive)
REMARK    1  A    between atoms: C_2  and  C_3
REMARK    2  A    between atoms: C_3  and  N_4
REMARK    3  A    between atoms: N_4  and  N_5
REMARK    4  A    between atoms: C_6  and  C_7
REMARK    5  A    between atoms: C_7  and  C_8
REMARK    6  A    between atoms: C_11  and  C_12
REMARK                            x       y       z     vdW  Elec       q    Type
REMARK                         _______ _______ _______ _____ _____    ______ ____
ROOT
ATOM      1  C   UNL     1       4.746   4.147  17.754  0.00  0.00    +0.000 A 
ATOM      2  C   UNL     1       3.500   4.374  17.145  0.00  0.00    +0.000 A 
ATOM      3  C   UNL     1       2.319   4.125  17.846  0.00  0.00    +0.000 A 
ATOM      4  C   UNL     1       2.357   3.548  19.123  0.00  0.00    +0.000 A 
ATOM      5  C   UNL     1       3.599   3.328  19.732  0.00  0.00    +0.000 A 
ATOM      6  C   UNL     1       4.778   3.638  19.058  0.00  0.00    +0.000 A 
ENDROOT
BRANCH   4   7
ATOM      7  C   UNL     1       1.092   3.100  19.804  0.00  0.00    +0.000 C 
ATOM      8  F   UNL     1       1.316   2.280  20.869  0.00  0.00    +0.000 F 
ATOM      9  F   UNL     1       0.374   4.151  20.291  0.00  0.00    +0.000 F 
ATOM     10  F   UNL     1       0.249   2.423  18.979  0.00  0.00    +0.000 F 
ENDBRANCH   4   7
BRANCH   1  11
ATOM     11  C   UNL     1       6.048   4.431  17.027  0.00  0.00    +0.000 C 
BRANCH  11  13
ATOM     12  N   UNL     1       6.144   3.806  14.677  0.00  0.00    +0.000 NA
ATOM     13  C   UNL     1       5.841   4.712  15.563  0.00  0.00    +0.000 C 
BRANCH  12  14
ATOM     14  N   UNL     1       5.878   4.120  13.396  0.00  0.00    +0.000 N 
ATOM     15  H   UNL     1       5.821   5.082  13.078  0.00  0.00    +0.000 HD
BRANCH  14  16
ATOM     16  C   UNL     1       5.817   3.083  12.375  0.00  0.00    +0.000 C 
BRANCH  16  18
ATOM     17  C   UNL     1       3.501   3.299  10.774  0.00  0.00    +0.000 C 
ATOM     18  C   UNL     1       4.570   3.199  11.513  0.00  0.00    +0.000 C 
ENDBRANCH  16  18
ENDBRANCH  14  16
ENDBRANCH  12  14
ENDBRANCH  11  13
ENDBRANCH   1  11
TORSDOF 6
ENDMDL
MODEL 4
REMARK VINA RESULT:      -6.7      1.387      1.510
REMARK  Name = 
REMARK  6 active torsions:
REMARK  status: ('A' for Active; 'I' for Inactive)
REMARK    1  A    between atoms: C_2  and  C_3
REMARK    2  A    between atoms: C_3  and  N_4
REMARK    3  A    between atoms: N_4  and  N_5
REMARK    4  A    between atoms: C_6  and  C_7
REMARK    5  A    between atoms: C_7  and  C_8
REMARK    6  A    between atoms: C_11  and  C_12
REMARK                            x       y       z     vdW  Elec       q    Type
REMARK                         _______ _______ _______ _____ _____    ______ ____
ROOT
ATOM      1  C   UNL     1       4.118   3.827  17.144  0.00  0.00    +0.000 A 
ATOM      2  C   UNL     1       3.420   4.928  17.670  0.00  0.00    +0.000 A 
ATOM      3  C   UNL     1       2.451   4.741  18.657  0.00  0.00    +0.000 A 
ATOM      4  C   UNL     1       2.087   3.448  19.060  0.00  0.00    +0.000 A 
ATOM      5  C   UNL     1       2.787   2.352  18.540  0.00  0.00    +0.000 A 
ATOM      6  C   UNL     1       3.800   2.544  17.604  0.00  0.00    +0.000 A 
ENDROOT
BRANCH   4   7
ATOM      7  C   UNL     1       0.915   3.229  19.979  0.00  0.00    +0.000 C 
ATOM      8  F   UNL     1       1.244   2.565  21.122  0.00  0.00    +0.000 F 
ATOM      9  F   UNL     1       0.354   4.403  20.381  0.00  0.00    +0.000 F 
ATOM     10  F   UNL     1      -0.090   2.513  19.405  0.00  0.00    +0.000 F 
ENDBRANCH   4   7
BRANCH   1  11
ATOM     11  C   UNL     1       5.194   4.001  16.088  0.00  0.00    +0.000 C 
BRANCH  11  13
ATOM     12  N   UNL     1       6.727   4.341  17.948  0.00  0.00    +0.000 NA
ATOM     13  C   UNL     1       6.504   4.460  16.669  0.00  0.00    +0.000 C 
BRANCH  12  14
ATOM     14  N   UNL     1       7.943   4.726  18.374  0.00  0.00    +0.000 N 
ATOM     15  H   UNL     1       8.793   4.267  18.064  0.00  0.00    +0.000 HD
BRANCH  14  16
ATOM     16  C   UNL     1       8.100   5.928  19.183  0.00  0.00    +0.000 C 
BRANCH  16  18
ATOM     17  C   UNL     1       7.830   8.285  17.652  0.00  0.00    +0.000 C 
ATOM     18  C   UNL     1       7.955   7.197  18.359  0.00  0.00    +0.000 C 
ENDBRANCH  16  18
ENDBRANCH  14  16
ENDBRANCH  12  14
ENDBRANCH  11  13
ENDBRANCH   1  11
TORSDOF 6
ENDMDL
MODEL 5
REMARK VINA RESULT:      -6.7      0.894      2.007
REMARK  Name = 
REMARK  6 active torsions:
REMARK  status: ('A' for Active; 'I' for Inactive)
REMARK    1  A    between atoms: C_2  and  C_3
REMARK    2  A    between atoms: C_3  and  N_4
REMARK    3  A    between atoms: N_4  and  N_5
REMARK    4  A    between atoms: C_6  and  C_7
REMARK    5  A    between atoms: C_7  and  C_8
REMARK    6  A    between atoms: C_11  and  C_12
REMARK                            x       y       z     vdW  Elec       q    Type
REMARK                         _______ _______ _______ _____ _____    ______ ____
ROOT
ATOM      1  C   UNL     1       4.044   4.010  17.130  0.00  0.00    +0.000 A 
ATOM      2  C   UNL     1       2.747   3.474  17.063  0.00  0.00    +0.000 A 
ATOM      3  C   UNL     1       1.917   3.500  18.186  0.00  0.00    +0.000 A 
ATOM      4  C   UNL     1       2.402   3.961  19.419  0.00  0.00    +0.000 A 
ATOM      5  C   UNL     1       3.693   4.500  19.482  0.00  0.00    +0.000 A 
ATOM      6  C   UNL     1       4.497   4.535  18.345  0.00  0.00    +0.000 A 
ENDROOT
BRANCH   4   7
ATOM      7  C   UNL     1       1.582   3.814  20.672  0.00  0.00    +0.000 C 
ATOM      8  F   UNL     1       0.417   4.518  20.639  0.00  0.00    +0.000 F 
ATOM      9  F   UNL     1       1.226   2.519  20.902  0.00  0.00    +0.000 F 
ATOM     10  F   UNL     1       2.237   4.224  21.793  0.00  0.00    +0.000 F 
ENDBRANCH   4   7
BRANCH   1  11
ATOM     11  C   UNL     1       4.961   4.019  15.920  0.00  0.00    +0.000 C 
BRANCH  11  13
ATOM     12  N   UNL     1       6.324   6.034  15.993  0.00  0.00    +0.000 NA
ATOM     13  C   UNL     1       6.253   4.747  16.180  0.00  0.00    +0.000 C 
BRANCH  12  14
ATOM     14  N   UNL     1       7.499   6.612  16.300  0.00  0.00    +0.000 N 
ATOM     15  H   UNL     1       8.274   6.638  15.646  0.00  0.00    +0.000 HD
BRANCH  14  16
ATOM     16  C   UNL     1       7.654   7.367  17.537  0.00  0.00    +0.000 C 
BRANCH  16  18
ATOM     17  C   UNL     1       8.000   5.684  19.778  0.00  0.00    +0.000 C 
ATOM     18  C   UNL     1       7.840   6.461  18.743  0.00  0.00    +0.000 C 
ENDBRANCH  16  18
ENDBRANCH  14  16
ENDBRANCH  12  14
ENDBRANCH  11  13
ENDBRANCH   1  11
TORSDOF 6
ENDMDL
MODEL 6
REMARK VINA RESULT:      -6.7      2.622      4.395
REMARK  Name = 
REMARK  6 active torsions:
REMARK  status: ('A' for Active; 'I' for Inactive)
REMARK    1  A    between atoms: C_2  and  C_3
REMARK    2  A    between atoms: C_3  and  N_4
REMARK    3  A    between atoms: N_4  and  N_5
REMARK    4  A    between atoms: C_6  and  C_7
REMARK    5  A    between atoms: C_7  and  C_8
REMARK    6  A    between atoms: C_11  and  C_12
REMARK                            x       y       z     vdW  Elec       q    Type
REMARK                         _______ _______ _______ _____ _____    ______ ____
ROOT
ATOM      1  C   UNL     1       4.325   5.690  17.163  0.00  0.00    +0.000 A 
ATOM      2  C   UNL     1       4.071   4.373  17.582  0.00  0.00    +0.000 A 
ATOM      3  C   UNL     1       3.142   4.124  18.593  0.00  0.00    +0.000 A 
ATOM      4  C   UNL     1       2.531   5.185  19.276  0.00  0.00    +0.000 A 
ATOM      5  C   UNL     1       2.781   6.497  18.854  0.00  0.00    +0.000 A 
ATOM      6  C   UNL     1       3.658   6.742  17.801  0.00  0.00    +0.000 A 
ENDROOT
BRANCH   4   7
ATOM      7  C   UNL     1       1.679   4.932  20.491  0.00  0.00    +0.000 C 
ATOM      8  F   UNL     1       0.630   4.098  20.247  0.00  0.00    +0.000 F 
ATOM      9  F   UNL     1       2.387   4.351  21.500  0.00  0.00    +0.000 F 
ATOM     10  F   UNL     1       1.143   6.066  21.017  0.00  0.00    +0.000 F 
ENDBRANCH   4   7
BRANCH   1  11
ATOM     11  C   UNL     1       5.311   5.992  16.049  0.00  0.00    +0.000 C 
BRANCH  11  13
ATOM     12  N   UNL     1       6.245   4.078  14.871  0.00  0.00    +0.000 NA
ATOM     13  C   UNL     1       5.285   4.954  14.959  0.00  0.00    +0.000 C 
BRANCH  12  14
ATOM     14  N   UNL     1       6.115   3.155  13.901  0.00  0.00    +0.000 N 
ATOM     15  H   UNL     1       5.822   2.203  14.099  0.00  0.00    +0.000 HD
BRANCH  14  16
ATOM     16  C   UNL     1       6.240   3.529  12.498  0.00  0.00    +0.000 C 
BRANCH  16  18
ATOM     17  C   UNL     1       3.845   3.099  11.065  0.00  0.00    +0.000 C 
ATOM     18  C   UNL     1       4.951   3.297  11.727  0.00  0.00    +0.000 C 
ENDBRANCH  16  18
ENDBRANCH  14  16
ENDBRANCH  12  14
ENDBRANCH  11  13
ENDBRANCH   1  11
TORSDOF 6
ENDMDL
MODEL 7
REMARK VINA RESULT:      -6.6      2.480      4.254
REMARK  Name = 
REMARK  6 active torsions:
REMARK  status: ('A' for Active; 'I' for Inactive)
REMARK    1  A    between atoms: C_2  and  C_3
REMARK    2  A    between atoms: C_3  and  N_4
REMARK    3  A    between atoms: N_4  and  N_5
REMARK    4  A    between atoms: C_6  and  C_7
REMARK    5  A    between atoms: C_7  and  C_8
REMARK    6  A    between atoms: C_11  and  C_12
REMARK                            x       y       z     vdW  Elec       q    Type
REMARK                         _______ _______ _______ _____ _____    ______ ____
ROOT
ATOM      1  C   UNL     1       4.140   4.970  17.062  0.00  0.00    +0.000 A 
ATOM      2  C   UNL     1       3.822   3.606  16.945  0.00  0.00    +0.000 A 
ATOM      3  C   UNL     1       2.777   3.061  17.694  0.00  0.00    +0.000 A 
ATOM      4  C   UNL     1       2.103   3.838  18.647  0.00  0.00    +0.000 A 
ATOM      5  C   UNL     1       2.417   5.199  18.758  0.00  0.00    +0.000 A 
ATOM      6  C   UNL     1       3.415   5.758  17.964  0.00  0.00    +0.000 A 
ENDROOT
BRANCH   4   7
ATOM      7  C   UNL     1       1.111   3.213  19.590  0.00  0.00    +0.000 C 
ATOM      8  F   UNL     1       1.692   2.418  20.531  0.00  0.00    +0.000 F 
ATOM      9  F   UNL     1       0.402   4.148  20.281  0.00  0.00    +0.000 F 
ATOM     10  F   UNL     1       0.188   2.436  18.960  0.00  0.00    +0.000 F 
ENDBRANCH   4   7
BRANCH   1  11
ATOM     11  C   UNL     1       5.253   5.597  16.243  0.00  0.00    +0.000 C 
BRANCH  11  13
ATOM     12  N   UNL     1       6.668   5.028  14.346  0.00  0.00    +0.000 NA
ATOM     13  C   UNL     1       5.552   4.824  14.986  0.00  0.00    +0.000 C 
BRANCH  12  14
ATOM     14  N   UNL     1       6.878   4.257  13.264  0.00  0.00    +0.000 N 
ATOM     15  H   UNL     1       7.811   4.049  12.924  0.00  0.00    +0.000 HD
BRANCH  14  16
ATOM     16  C   UNL     1       5.771   3.558  12.625  0.00  0.00    +0.000 C 
BRANCH  16  18
ATOM     17  C   UNL     1       6.652   1.397  11.035  0.00  0.00    +0.000 C 
ATOM     18  C   UNL     1       6.245   2.395  11.769  0.00  0.00    +0.000 C 
ENDBRANCH  16  18
ENDBRANCH  14  16
ENDBRANCH  12  14
ENDBRANCH  11  13
ENDBRANCH   1  11
TORSDOF 6
ENDMDL
MODEL 8
REMARK VINA RESULT:      -6.6      2.115      3.791
REMARK  Name = 
REMARK  6 active torsions:
REMARK  status: ('A' for Active; 'I' for Inactive)
REMARK    1  A    between atoms: C_2  and  C_3
REMARK    2  A    between atoms: C_3  and  N_4
REMARK    3  A    between atoms: N_4  and  N_5
REMARK    4  A    between atoms: C_6  and  C_7
REMARK    5  A    between atoms: C_7  and  C_8
REMARK    6  A    between atoms: C_11  and  C_12
REMARK                            x       y       z     vdW  Elec       q    Type
REMARK                         _______ _______ _______ _____ _____    ______ ____
ROOT
ATOM      1  C   UNL     1       4.191   5.181  17.585  0.00  0.00    +0.000 A 
ATOM      2  C   UNL     1       3.715   5.673  18.812  0.00  0.00    +0.000 A 
ATOM      3  C   UNL     1       2.780   4.942  19.548  0.00  0.00    +0.000 A 
ATOM      4  C   UNL     1       2.226   3.764  19.025  0.00  0.00    +0.000 A 
ATOM      5  C   UNL     1       2.706   3.273  17.804  0.00  0.00    +0.000 A 
ATOM      6  C   UNL     1       3.686   3.968  17.101  0.00  0.00    +0.000 A 
ENDROOT
BRANCH   4   7
ATOM      7  C   UNL     1       1.083   3.076  19.720  0.00  0.00    +0.000 C 
ATOM      8  F   UNL     1       0.273   2.387  18.869  0.00  0.00    +0.000 F 
ATOM      9  F   UNL     1       1.516   2.165  20.637  0.00  0.00    +0.000 F 
ATOM     10  F   UNL     1       0.274   3.932  20.400  0.00  0.00    +0.000 F 
ENDBRANCH   4   7
BRANCH   1  11
ATOM     11  C   UNL     1       5.224   5.941  16.774  0.00  0.00    +0.000 C 
BRANCH  11  13
ATOM     12  N   UNL     1       6.553   5.702  14.749  0.00  0.00    +0.000 NA
ATOM     13  C   UNL     1       5.635   5.204  15.527  0.00  0.00    +0.000 C 
BRANCH  12  14
ATOM     14  N   UNL     1       6.897   4.953  13.685  0.00  0.00    +0.000 N 
ATOM     15  H   UNL     1       7.584   5.265  13.006  0.00  0.00    +0.000 HD
BRANCH  14  16
ATOM     16  C   UNL     1       6.409   3.587  13.551  0.00  0.00    +0.000 C 
BRANCH  16  18
ATOM     17  C   UNL     1       4.474   3.343  11.509  0.00  0.00    +0.000 C 
ATOM     18  C   UNL     1       5.367   3.455  12.452  0.00  0.00    +0.000 C 
ENDBRANCH  16  18
ENDBRANCH  14  16
ENDBRANCH  12  14
ENDBRANCH  11  13
ENDBRANCH   1  11
TORSDOF 6
ENDMDL
MODEL 9
REMARK VINA RESULT:      -6.6      2.134      3.532
REMARK  Name = 
REMARK  6 active torsions:
REMARK  status: ('A' for Active; 'I' for Inactive)
REMARK    1  A    between atoms: C_2  and  C_3
REMARK    2  A    between atoms: C_3  and  N_4
REMARK    3  A    between atoms: N_4  and  N_5
REMARK    4  A    between atoms: C_6  and  C_7
REMARK    5  A    between atoms: C_7  and  C_8
REMARK    6  A    between atoms: C_11  and  C_12
REMARK                            x       y       z     vdW  Elec       q    Type
REMARK                         _______ _______ _______ _____ _____    ______ ____
ROOT
ATOM      1  C   UNL     1       3.971   5.629  17.303  0.00  0.00    +0.000 A 
ATOM      2  C   UNL     1       3.089   6.162  18.259  0.00  0.00    +0.000 A 
ATOM      3  C   UNL     1       2.261   5.317  19.000  0.00  0.00    +0.000 A 
ATOM      4  C   UNL     1       2.221   3.942  18.729  0.00  0.00    +0.000 A 
ATOM      5  C   UNL     1       3.105   3.411  17.780  0.00  0.00    +0.000 A 
ATOM      6  C   UNL     1       3.978   4.246  17.087  0.00  0.00    +0.000 A 
ENDROOT
BRANCH   4   7
ATOM      7  C   UNL     1       1.197   3.056  19.386  0.00  0.00    +0.000 C 
ATOM      8  F   UNL     1       1.748   2.082  20.163  0.00  0.00    +0.000 F 
ATOM      9  F   UNL     1       0.366   3.758  20.206  0.00  0.00    +0.000 F 
ATOM     10  F   UNL     1       0.390   2.416  18.497  0.00  0.00    +0.000 F 
ENDBRANCH   4   7
BRANCH   1  11
ATOM     11  C   UNL     1       4.901   6.518  16.499  0.00  0.00    +0.000 C 
BRANCH  11  13
ATOM     12  N   UNL     1       7.008   5.699  15.598  0.00  0.00    +0.000 NA
ATOM     13  C   UNL     1       5.710   5.746  15.492  0.00  0.00    +0.000 C 
BRANCH  12  14
ATOM     14  N   UNL     1       7.649   4.943  14.688  0.00  0.00    +0.000 N 
ATOM     15  H   UNL     1       8.229   4.155  14.955  0.00  0.00    +0.000 HD
BRANCH  14  16
ATOM     16  C   UNL     1       7.406   5.132  13.264  0.00  0.00    +0.000 C 
BRANCH  16  18
ATOM     17  C   UNL     1       5.913   3.011  12.147  0.00  0.00    +0.000 C 
ATOM     18  C   UNL     1       6.603   3.990  12.662  0.00  0.00    +0.000 C 
ENDBRANCH  16  18
ENDBRANCH  14  16
ENDBRANCH  12  14
ENDBRANCH  11  13
ENDBRANCH   1  11
TORSDOF 6
ENDMDL
