MODEL 1
REMARK VINA RESULT:      -9.2      0.000      0.000
REMARK  Name = 
REMARK  10 active torsions:
REMARK  status: ('A' for Active; 'I' for Inactive)
REMARK    1  A    between atoms: C_2  and  C_3
REMARK    2  A    between atoms: C_4  and  C_5
REMARK    3  A    between atoms: N_11  and  C_12
REMARK    4  A    between atoms: C_12  and  C_13
REMARK    5  A    between atoms: C_12  and  C_24
REMARK    6  A    between atoms: C_13  and  O_14
REMARK    7  A    between atoms: O_14  and  C_15
REMARK    8  A    between atoms: C_15  and  C_17
REMARK    9  A    between atoms: C_17  and  C_18
REMARK   10  A    between atoms: N_26  and  C_27
REMARK                            x       y       z     vdW  Elec       q    Type
REMARK                         _______ _______ _______ _____ _____    ______ ____
ROOT
ATOM      1  C   UNL     1       6.802   5.553  17.621  0.00  0.00    +0.000 C 
ENDROOT
BRANCH   1   4
ATOM      2  O   UNL     1       6.904   8.321  16.917  0.00  0.00    +0.000 OA
ATOM      3  C   UNL     1       7.683   7.882  17.752  0.00  0.00    +0.000 C 
ATOM      4  N   UNL     1       7.743   6.563  18.129  0.00  0.00    +0.000 N 
ATOM      5  H   UNL     1       8.393   6.250  18.841  0.00  0.00    +0.000 HD
BRANCH   3   6
ATOM      6  C   UNL     1       8.642   8.745  18.497  0.00  0.00    +0.000 C 
ATOM      7  C   UNL     1       8.865  10.017  18.120  0.00  0.00    +0.000 C 
BRANCH   7   8
ATOM      8  C   UNL     1       9.721  10.973  18.850  0.00  0.00    +0.000 A 
ATOM      9  C   UNL     1       9.433  11.273  20.192  0.00  0.00    +0.000 A 
ATOM     10  C   UNL     1      10.274  12.117  20.934  0.00  0.00    +0.000 A 
ATOM     11  C   UNL     1      11.413  12.660  20.350  0.00  0.00    +0.000 A 
ATOM     12  C   UNL     1      11.717  12.363  19.024  0.00  0.00    +0.000 A 
ATOM     13  C   UNL     1      10.878  11.522  18.283  0.00  0.00    +0.000 A 
ENDBRANCH   7   8
ENDBRANCH   3   6
ENDBRANCH   1   4
BRANCH   1  14
ATOM     14  C   UNL     1       6.043   4.926  18.810  0.00  0.00    +0.000 C 
ATOM     15  O   UNL     1       6.293   5.222  19.978  0.00  0.00    +0.000 OA
ATOM     16  N   UNL     1       5.116   3.967  18.447  0.00  0.00    +0.000 N 
ATOM     17  H   UNL     1       4.835   3.956  17.473  0.00  0.00    +0.000 HD
BRANCH  16  18
ATOM     18  C   UNL     1       4.227   3.301  19.402  0.00  0.00    +0.000 C 
ATOM     19  C   UNL     1       3.148   4.259  19.923  0.00  0.00    +0.000 C 
ATOM     20  C   UNL     1       2.199   4.698  18.808  0.00  0.00    +0.000 C 
ATOM     21  C   UNL     1       1.554   3.502  18.109  0.00  0.00    +0.000 C 
ATOM     22  C   UNL     1       2.574   2.462  17.650  0.00  0.00    +0.000 C 
ATOM     23  C   UNL     1       3.556   2.078  18.758  0.00  0.00    +0.000 C 
ENDBRANCH  16  18
ENDBRANCH   1  14
BRANCH   1  24
ATOM     24  C   UNL     1       7.516   4.430  16.857  0.00  0.00    +0.000 C 
BRANCH  24  25
ATOM     25  O   UNL     1       6.785   4.018  15.689  0.00  0.00    +0.000 OA
BRANCH  25  26
ATOM     26  C   UNL     1       6.860   4.866  14.625  0.00  0.00    +0.000 C 
ATOM     27  O   UNL     1       7.806   5.613  14.396  0.00  0.00    +0.000 OA
BRANCH  26  28
ATOM     28  C   UNL     1       5.610   4.773  13.779  0.00  0.00    +0.000 C 
BRANCH  28  29
ATOM     29  C   UNL     1       5.668   3.679  12.741  0.00  0.00    +0.000 A 
ATOM     30  C   UNL     1       6.884   3.056  12.427  0.00  0.00    +0.000 A 
ATOM     31  C   UNL     1       6.939   2.062  11.448  0.00  0.00    +0.000 A 
ATOM     32  C   UNL     1       5.784   1.685  10.768  0.00  0.00    +0.000 A 
ATOM     33  C   UNL     1       4.568   2.293  11.075  0.00  0.00    +0.000 A 
ATOM     34  C   UNL     1       4.509   3.285  12.056  0.00  0.00    +0.000 A 
ENDBRANCH  28  29
ENDBRANCH  26  28
ENDBRANCH  25  26
ENDBRANCH  24  25
ENDBRANCH   1  24
TORSDOF 10
ENDMDL
MODEL 2
REMARK VINA RESULT:      -8.8      0.718      1.344
REMARK  Name = 
REMARK  10 active torsions:
REMARK  status: ('A' for Active; 'I' for Inactive)
REMARK    1  A    between atoms: C_2  and  C_3
REMARK    2  A    between atoms: C_4  and  C_5
REMARK    3  A    between atoms: N_11  and  C_12
REMARK    4  A    between atoms: C_12  and  C_13
REMARK    5  A    between atoms: C_12  and  C_24
REMARK    6  A    between atoms: C_13  and  O_14
REMARK    7  A    between atoms: O_14  and  C_15
REMARK    8  A    between atoms: C_15  and  C_17
REMARK    9  A    between atoms: C_17  and  C_18
REMARK   10  A    between atoms: N_26  and  C_27
REMARK                            x       y       z     vdW  Elec       q    Type
REMARK                         _______ _______ _______ _____ _____    ______ ____
ROOT
ATOM      1  C   UNL     1       6.799   5.657  18.020  0.00  0.00    +0.000 C 
ENDROOT
BRANCH   1   4
ATOM      2  O   UNL     1       7.819   7.974  16.695  0.00  0.00    +0.000 OA
ATOM      3  C   UNL     1       8.024   7.825  17.892  0.00  0.00    +0.000 C 
ATOM      4  N   UNL     1       7.613   6.730  18.611  0.00  0.00    +0.000 N 
ATOM      5  H   UNL     1       7.790   6.660  19.607  0.00  0.00    +0.000 HD
BRANCH   3   6
ATOM      6  C   UNL     1       8.716   8.846  18.728  0.00  0.00    +0.000 C 
ATOM      7  C   UNL     1       8.884  10.105  18.286  0.00  0.00    +0.000 C 
BRANCH   7   8
ATOM      8  C   UNL     1       9.470  11.204  19.078  0.00  0.00    +0.000 A 
ATOM      9  C   UNL     1       9.319  11.205  20.475  0.00  0.00    +0.000 A 
ATOM     10  C   UNL     1       9.930  12.194  21.261  0.00  0.00    +0.000 A 
ATOM     11  C   UNL     1      10.707  13.181  20.665  0.00  0.00    +0.000 A 
ATOM     12  C   UNL     1      10.874  13.186  19.282  0.00  0.00    +0.000 A 
ATOM     13  C   UNL     1      10.263  12.201  18.497  0.00  0.00    +0.000 A 
ENDBRANCH   7   8
ENDBRANCH   3   6
ENDBRANCH   1   4
BRANCH   1  14
ATOM     14  C   UNL     1       5.880   5.063  19.109  0.00  0.00    +0.000 C 
ATOM     15  O   UNL     1       6.278   4.834  20.251  0.00  0.00    +0.000 OA
ATOM     16  N   UNL     1       4.607   4.755  18.668  0.00  0.00    +0.000 N 
ATOM     17  H   UNL     1       4.317   5.177  17.793  0.00  0.00    +0.000 HD
BRANCH  16  18
ATOM     18  C   UNL     1       3.546   4.257  19.547  0.00  0.00    +0.000 C 
ATOM     19  C   UNL     1       2.155   4.569  18.977  0.00  0.00    +0.000 C 
ATOM     20  C   UNL     1       1.904   3.821  17.668  0.00  0.00    +0.000 C 
ATOM     21  C   UNL     1       2.085   2.313  17.833  0.00  0.00    +0.000 C 
ATOM     22  C   UNL     1       3.415   1.942  18.486  0.00  0.00    +0.000 C 
ATOM     23  C   UNL     1       3.682   2.742  19.762  0.00  0.00    +0.000 C 
ENDBRANCH  16  18
ENDBRANCH   1  14
BRANCH   1  24
ATOM     24  C   UNL     1       7.662   4.525  17.445  0.00  0.00    +0.000 C 
BRANCH  24  25
ATOM     25  O   UNL     1       7.566   4.445  16.013  0.00  0.00    +0.000 OA
BRANCH  25  26
ATOM     26  C   UNL     1       6.336   4.120  15.527  0.00  0.00    +0.000 C 
ATOM     27  O   UNL     1       5.554   3.349  16.074  0.00  0.00    +0.000 OA
BRANCH  26  28
ATOM     28  C   UNL     1       6.075   4.825  14.215  0.00  0.00    +0.000 C 
BRANCH  28  29
ATOM     29  C   UNL     1       6.003   3.888  13.034  0.00  0.00    +0.000 A 
ATOM     30  C   UNL     1       4.764   3.486  12.517  0.00  0.00    +0.000 A 
ATOM     31  C   UNL     1       4.700   2.599  11.440  0.00  0.00    +0.000 A 
ATOM     32  C   UNL     1       5.871   2.100  10.874  0.00  0.00    +0.000 A 
ATOM     33  C   UNL     1       7.108   2.497  11.376  0.00  0.00    +0.000 A 
ATOM     34  C   UNL     1       7.176   3.386  12.450  0.00  0.00    +0.000 A 
ENDBRANCH  28  29
ENDBRANCH  26  28
ENDBRANCH  25  26
ENDBRANCH  24  25
ENDBRANCH   1  24
TORSDOF 10
ENDMDL
MODEL 3
REMARK VINA RESULT:      -8.6      3.403      7.683
REMARK  Name = 
REMARK  10 active torsions:
REMARK  status: ('A' for Active; 'I' for Inactive)
REMARK    1  A    between atoms: C_2  and  C_3
REMARK    2  A    between atoms: C_4  and  C_5
REMARK    3  A    between atoms: N_11  and  C_12
REMARK    4  A    between atoms: C_12  and  C_13
REMARK    5  A    between atoms: C_12  and  C_24
REMARK    6  A    between atoms: C_13  and  O_14
REMARK    7  A    between atoms: O_14  and  C_15
REMARK    8  A    between atoms: C_15  and  C_17
REMARK    9  A    between atoms: C_17  and  C_18
REMARK   10  A    between atoms: N_26  and  C_27
REMARK                            x       y       z     vdW  Elec       q    Type
REMARK                         _______ _______ _______ _____ _____    ______ ____
ROOT
ATOM      1  C   UNL     1       5.664   5.999  17.363  0.00  0.00    +0.000 C 
ENDROOT
BRANCH   1   4
ATOM      2  O   UNL     1       2.812   6.086  17.526  0.00  0.00    +0.000 OA
ATOM      3  C   UNL     1       3.454   7.126  17.603  0.00  0.00    +0.000 C 
ATOM      4  N   UNL     1       4.821   7.196  17.496  0.00  0.00    +0.000 N 
ATOM      5  H   UNL     1       5.309   8.080  17.586  0.00  0.00    +0.000 HD
BRANCH   3   6
ATOM      6  C   UNL     1       2.821   8.449  17.866  0.00  0.00    +0.000 C 
ATOM      7  C   UNL     1       1.483   8.586  17.884  0.00  0.00    +0.000 C 
BRANCH   7   8
ATOM      8  C   UNL     1       0.768   9.830  18.228  0.00  0.00    +0.000 A 
ATOM      9  C   UNL     1       1.498  10.945  18.675  0.00  0.00    +0.000 A 
ATOM     10  C   UNL     1       0.856  12.165  18.935  0.00  0.00    +0.000 A 
ATOM     11  C   UNL     1      -0.515  12.289  18.742  0.00  0.00    +0.000 A 
ATOM     12  C   UNL     1      -1.250  11.196  18.290  0.00  0.00    +0.000 A 
ATOM     13  C   UNL     1      -0.610   9.978  18.031  0.00  0.00    +0.000 A 
ENDBRANCH   7   8
ENDBRANCH   3   6
ENDBRANCH   1   4
BRANCH   1  14
ATOM     14  C   UNL     1       5.475   5.108  18.610  0.00  0.00    +0.000 C 
ATOM     15  O   UNL     1       6.135   5.265  19.636  0.00  0.00    +0.000 OA
ATOM     16  N   UNL     1       4.555   4.090  18.443  0.00  0.00    +0.000 N 
ATOM     17  H   UNL     1       3.918   4.180  17.658  0.00  0.00    +0.000 HD
BRANCH  16  18
ATOM     18  C   UNL     1       4.157   3.176  19.517  0.00  0.00    +0.000 C 
ATOM     19  C   UNL     1       3.029   3.772  20.370  0.00  0.00    +0.000 C 
ATOM     20  C   UNL     1       1.743   3.942  19.562  0.00  0.00    +0.000 C 
ATOM     21  C   UNL     1       1.292   2.627  18.929  0.00  0.00    +0.000 C 
ATOM     22  C   UNL     1       2.404   1.934  18.143  0.00  0.00    +0.000 C 
ATOM     23  C   UNL     1       3.704   1.825  18.942  0.00  0.00    +0.000 C 
ENDBRANCH  16  18
ENDBRANCH   1  14
BRANCH   1  24
ATOM     24  C   UNL     1       7.154   6.350  17.242  0.00  0.00    +0.000 C 
BRANCH  24  25
ATOM     25  O   UNL     1       7.365   7.760  17.059  0.00  0.00    +0.000 OA
BRANCH  25  26
ATOM     26  C   UNL     1       8.118   8.368  18.017  0.00  0.00    +0.000 C 
ATOM     27  O   UNL     1       8.717   7.775  18.909  0.00  0.00    +0.000 OA
BRANCH  26  28
ATOM     28  C   UNL     1       8.099   9.869  17.842  0.00  0.00    +0.000 C 
BRANCH  28  29
ATOM     29  C   UNL     1       9.236  10.571  18.543  0.00  0.00    +0.000 A 
ATOM     30  C   UNL     1       9.223  10.734  19.936  0.00  0.00    +0.000 A 
ATOM     31  C   UNL     1      10.264  11.407  20.580  0.00  0.00    +0.000 A 
ATOM     32  C   UNL     1      11.322  11.929  19.840  0.00  0.00    +0.000 A 
ATOM     33  C   UNL     1      11.349  11.768  18.456  0.00  0.00    +0.000 A 
ATOM     34  C   UNL     1      10.311  11.093  17.810  0.00  0.00    +0.000 A 
ENDBRANCH  28  29
ENDBRANCH  26  28
ENDBRANCH  25  26
ENDBRANCH  24  25
ENDBRANCH   1  24
TORSDOF 10
ENDMDL
MODEL 4
REMARK VINA RESULT:      -8.6      4.180      5.947
REMARK  Name = 
REMARK  10 active torsions:
REMARK  status: ('A' for Active; 'I' for Inactive)
REMARK    1  A    between atoms: C_2  and  C_3
REMARK    2  A    between atoms: C_4  and  C_5
REMARK    3  A    between atoms: N_11  and  C_12
REMARK    4  A    between atoms: C_12  and  C_13
REMARK    5  A    between atoms: C_12  and  C_24
REMARK    6  A    between atoms: C_13  and  O_14
REMARK    7  A    between atoms: O_14  and  C_15
REMARK    8  A    between atoms: C_15  and  C_17
REMARK    9  A    between atoms: C_17  and  C_18
REMARK   10  A    between atoms: N_26  and  C_27
REMARK                            x       y       z     vdW  Elec       q    Type
REMARK                         _______ _______ _______ _____ _____    ______ ____
ROOT
ATOM      1  C   UNL     1       3.814   5.664  17.350  0.00  0.00    +0.000 C 
ENDROOT
BRANCH   1   4
ATOM      2  O   UNL     1       3.229   5.996  20.127  0.00  0.00    +0.000 OA
ATOM      3  C   UNL     1       2.743   6.768  19.311  0.00  0.00    +0.000 C 
ATOM      4  N   UNL     1       2.929   6.670  17.955  0.00  0.00    +0.000 N 
ATOM      5  H   UNL     1       2.522   7.347  17.320  0.00  0.00    +0.000 HD
BRANCH   3   6
ATOM      6  C   UNL     1       1.917   7.944  19.704  0.00  0.00    +0.000 C 
ATOM      7  C   UNL     1       1.379   8.034  20.933  0.00  0.00    +0.000 C 
BRANCH   7   8
ATOM      8  C   UNL     1       0.630   9.200  21.441  0.00  0.00    +0.000 A 
ATOM      9  C   UNL     1       0.521  10.352  20.643  0.00  0.00    +0.000 A 
ATOM     10  C   UNL     1      -0.250  11.445  21.065  0.00  0.00    +0.000 A 
ATOM     11  C   UNL     1      -0.928  11.397  22.278  0.00  0.00    +0.000 A 
ATOM     12  C   UNL     1      -0.838  10.258  23.075  0.00  0.00    +0.000 A 
ATOM     13  C   UNL     1      -0.068   9.167  22.654  0.00  0.00    +0.000 A 
ENDBRANCH   7   8
ENDBRANCH   3   6
ENDBRANCH   1   4
BRANCH   1  14
ATOM     14  C   UNL     1       3.179   4.266  17.517  0.00  0.00    +0.000 C 
ATOM     15  O   UNL     1       2.449   3.770  16.660  0.00  0.00    +0.000 OA
ATOM     16  N   UNL     1       3.449   3.664  18.732  0.00  0.00    +0.000 N 
ATOM     17  H   UNL     1       4.222   4.048  19.265  0.00  0.00    +0.000 HD
BRANCH  16  18
ATOM     18  C   UNL     1       3.017   2.306  19.074  0.00  0.00    +0.000 C 
ATOM     19  C   UNL     1       3.488   1.907  20.479  0.00  0.00    +0.000 C 
ATOM     20  C   UNL     1       2.830   2.766  21.558  0.00  0.00    +0.000 C 
ATOM     21  C   UNL     1       1.305   2.712  21.474  0.00  0.00    +0.000 C 
ATOM     22  C   UNL     1       0.777   3.007  20.071  0.00  0.00    +0.000 C 
ATOM     23  C   UNL     1       1.488   2.185  18.994  0.00  0.00    +0.000 C 
ENDBRANCH  16  18
ENDBRANCH   1  14
BRANCH   1  24
ATOM     24  C   UNL     1       5.202   5.644  18.005  0.00  0.00    +0.000 C 
BRANCH  24  25
ATOM     25  O   UNL     1       5.940   4.454  17.679  0.00  0.00    +0.000 OA
BRANCH  25  26
ATOM     26  C   UNL     1       7.126   4.658  17.042  0.00  0.00    +0.000 C 
ATOM     27  O   UNL     1       8.192   4.150  17.379  0.00  0.00    +0.000 OA
BRANCH  26  28
ATOM     28  C   UNL     1       6.953   5.607  15.879  0.00  0.00    +0.000 C 
BRANCH  28  29
ATOM     29  C   UNL     1       6.760   4.908  14.555  0.00  0.00    +0.000 A 
ATOM     30  C   UNL     1       7.655   5.123  13.498  0.00  0.00    +0.000 A 
ATOM     31  C   UNL     1       7.460   4.495  12.266  0.00  0.00    +0.000 A 
ATOM     32  C   UNL     1       6.367   3.652  12.076  0.00  0.00    +0.000 A 
ATOM     33  C   UNL     1       5.474   3.426  13.122  0.00  0.00    +0.000 A 
ATOM     34  C   UNL     1       5.669   4.050  14.355  0.00  0.00    +0.000 A 
ENDBRANCH  28  29
ENDBRANCH  26  28
ENDBRANCH  25  26
ENDBRANCH  24  25
ENDBRANCH   1  24
TORSDOF 10
ENDMDL
MODEL 5
REMARK VINA RESULT:      -8.5      1.439      1.929
REMARK  Name = 
REMARK  10 active torsions:
REMARK  status: ('A' for Active; 'I' for Inactive)
REMARK    1  A    between atoms: C_2  and  C_3
REMARK    2  A    between atoms: C_4  and  C_5
REMARK    3  A    between atoms: N_11  and  C_12
REMARK    4  A    between atoms: C_12  and  C_13
REMARK    5  A    between atoms: C_12  and  C_24
REMARK    6  A    between atoms: C_13  and  O_14
REMARK    7  A    between atoms: O_14  and  C_15
REMARK    8  A    between atoms: C_15  and  C_17
REMARK    9  A    between atoms: C_17  and  C_18
REMARK   10  A    between atoms: N_26  and  C_27
REMARK                            x       y       z     vdW  Elec       q    Type
REMARK                         _______ _______ _______ _____ _____    ______ ____
ROOT
ATOM      1  C   UNL     1       5.059   6.742  16.412  0.00  0.00    +0.000 C 
ENDROOT
BRANCH   1   4
ATOM      2  O   UNL     1       7.079   5.794  18.197  0.00  0.00    +0.000 OA
ATOM      3  C   UNL     1       7.119   6.951  17.800  0.00  0.00    +0.000 C 
ATOM      4  N   UNL     1       6.177   7.514  16.975  0.00  0.00    +0.000 N 
ATOM      5  H   UNL     1       6.264   8.472  16.657  0.00  0.00    +0.000 HD
BRANCH   3   6
ATOM      6  C   UNL     1       8.231   7.884  18.137  0.00  0.00    +0.000 C 
ATOM      7  C   UNL     1       8.049   9.216  18.115  0.00  0.00    +0.000 C 
BRANCH   7   8
ATOM      8  C   UNL     1       9.060  10.211  18.523  0.00  0.00    +0.000 A 
ATOM      9  C   UNL     1       9.275  10.456  19.890  0.00  0.00    +0.000 A 
ATOM     10  C   UNL     1      10.283  11.338  20.309  0.00  0.00    +0.000 A 
ATOM     11  C   UNL     1      11.091  11.974  19.374  0.00  0.00    +0.000 A 
ATOM     12  C   UNL     1      10.896  11.733  18.016  0.00  0.00    +0.000 A 
ATOM     13  C   UNL     1       9.890  10.854  17.597  0.00  0.00    +0.000 A 
ENDBRANCH   7   8
ENDBRANCH   3   6
ENDBRANCH   1   4
BRANCH   1  14
ATOM     14  C   UNL     1       3.926   6.658  17.457  0.00  0.00    +0.000 C 
ATOM     15  O   UNL     1       3.504   7.651  18.049  0.00  0.00    +0.000 OA
ATOM     16  N   UNL     1       3.482   5.374  17.708  0.00  0.00    +0.000 N 
ATOM     17  H   UNL     1       3.731   4.667  17.024  0.00  0.00    +0.000 HD
BRANCH  16  18
ATOM     18  C   UNL     1       2.361   5.066  18.600  0.00  0.00    +0.000 C 
ATOM     19  C   UNL     1       1.439   4.000  17.993  0.00  0.00    +0.000 C 
ATOM     20  C   UNL     1       2.152   2.656  17.851  0.00  0.00    +0.000 C 
ATOM     21  C   UNL     1       2.719   2.171  19.184  0.00  0.00    +0.000 C 
ATOM     22  C   UNL     1       3.571   3.226  19.887  0.00  0.00    +0.000 C 
ATOM     23  C   UNL     1       2.870   4.584  19.967  0.00  0.00    +0.000 C 
ENDBRANCH  16  18
ENDBRANCH   1  14
BRANCH   1  24
ATOM     24  C   UNL     1       5.474   5.313  16.034  0.00  0.00    +0.000 C 
BRANCH  24  25
ATOM     25  O   UNL     1       5.743   5.180  14.628  0.00  0.00    +0.000 OA
BRANCH  25  26
ATOM     26  C   UNL     1       7.040   4.922  14.303  0.00  0.00    +0.000 C 
ATOM     27  O   UNL     1       7.940   4.751  15.119  0.00  0.00    +0.000 OA
BRANCH  26  28
ATOM     28  C   UNL     1       7.220   4.893  12.802  0.00  0.00    +0.000 C 
BRANCH  28  29
ATOM     29  C   UNL     1       6.713   3.624  12.160  0.00  0.00    +0.000 A 
ATOM     30  C   UNL     1       7.610   2.672  11.657  0.00  0.00    +0.000 A 
ATOM     31  C   UNL     1       7.138   1.511  11.040  0.00  0.00    +0.000 A 
ATOM     32  C   UNL     1       5.769   1.293  10.914  0.00  0.00    +0.000 A 
ATOM     33  C   UNL     1       4.867   2.231  11.415  0.00  0.00    +0.000 A 
ATOM     34  C   UNL     1       5.336   3.391  12.035  0.00  0.00    +0.000 A 
ENDBRANCH  28  29
ENDBRANCH  26  28
ENDBRANCH  25  26
ENDBRANCH  24  25
ENDBRANCH   1  24
TORSDOF 10
ENDMDL
MODEL 6
REMARK VINA RESULT:      -8.4      4.012      6.087
REMARK  Name = 
REMARK  10 active torsions:
REMARK  status: ('A' for Active; 'I' for Inactive)
REMARK    1  A    between atoms: C_2  and  C_3
REMARK    2  A    between atoms: C_4  and  C_5
REMARK    3  A    between atoms: N_11  and  C_12
REMARK    4  A    between atoms: C_12  and  C_13
REMARK    5  A    between atoms: C_12  and  C_24
REMARK    6  A    between atoms: C_13  and  O_14
REMARK    7  A    between atoms: O_14  and  C_15
REMARK    8  A    between atoms: C_15  and  C_17
REMARK    9  A    between atoms: C_17  and  C_18
REMARK   10  A    between atoms: N_26  and  C_27
REMARK                            x       y       z     vdW  Elec       q    Type
REMARK                         _______ _______ _______ _____ _____    ______ ____
ROOT
ATOM      1  C   UNL     1       3.531   6.526  17.393  0.00  0.00    +0.000 C 
ENDROOT
BRANCH   1   4
ATOM      2  O   UNL     1       2.223   9.066  17.458  0.00  0.00    +0.000 OA
ATOM      3  C   UNL     1       2.158   8.328  18.433  0.00  0.00    +0.000 C 
ATOM      4  N   UNL     1       2.783   7.109  18.517  0.00  0.00    +0.000 N 
ATOM      5  H   UNL     1       2.683   6.524  19.339  0.00  0.00    +0.000 HD
BRANCH   3   6
ATOM      6  C   UNL     1       1.347   8.652  19.640  0.00  0.00    +0.000 C 
ATOM      7  C   UNL     1       0.924   9.908  19.873  0.00  0.00    +0.000 C 
BRANCH   7   8
ATOM      8  C   UNL     1       0.041  10.305  20.987  0.00  0.00    +0.000 A 
ATOM      9  C   UNL     1       0.050   9.556  22.176  0.00  0.00    +0.000 A 
ATOM     10  C   UNL     1      -0.720   9.955  23.280  0.00  0.00    +0.000 A 
ATOM     11  C   UNL     1      -1.496  11.106  23.213  0.00  0.00    +0.000 A 
ATOM     12  C   UNL     1      -1.507  11.864  22.044  0.00  0.00    +0.000 A 
ATOM     13  C   UNL     1      -0.740  11.466  20.943  0.00  0.00    +0.000 A 
ENDBRANCH   7   8
ENDBRANCH   3   6
ENDBRANCH   1   4
BRANCH   1  14
ATOM     14  C   UNL     1       3.569   4.991  17.554  0.00  0.00    +0.000 C 
ATOM     15  O   UNL     1       3.889   4.242  16.631  0.00  0.00    +0.000 OA
ATOM     16  N   UNL     1       3.153   4.541  18.793  0.00  0.00    +0.000 N 
ATOM     17  H   UNL     1       3.125   5.229  19.537  0.00  0.00    +0.000 HD
BRANCH  16  18
ATOM     18  C   UNL     1       3.185   3.132  19.193  0.00  0.00    +0.000 C 
ATOM     19  C   UNL     1       3.480   2.983  20.692  0.00  0.00    +0.000 C 
ATOM     20  C   UNL     1       2.354   3.565  21.547  0.00  0.00    +0.000 C 
ATOM     21  C   UNL     1       1.003   2.940  21.207  0.00  0.00    +0.000 C 
ATOM     22  C   UNL     1       0.693   2.970  19.712  0.00  0.00    +0.000 C 
ATOM     23  C   UNL     1       1.852   2.443  18.864  0.00  0.00    +0.000 C 
ENDBRANCH  16  18
ENDBRANCH   1  14
BRANCH   1  24
ATOM     24  C   UNL     1       4.976   7.041  17.330  0.00  0.00    +0.000 C 
BRANCH  24  25
ATOM     25  O   UNL     1       5.671   6.565  16.165  0.00  0.00    +0.000 OA
BRANCH  25  26
ATOM     26  C   UNL     1       6.972   6.213  16.364  0.00  0.00    +0.000 C 
ATOM     27  O   UNL     1       7.837   6.967  16.798  0.00  0.00    +0.000 OA
BRANCH  26  28
ATOM     28  C   UNL     1       7.205   4.775  15.960  0.00  0.00    +0.000 C 
BRANCH  28  29
ATOM     29  C   UNL     1       7.029   4.530  14.481  0.00  0.00    +0.000 A 
ATOM     30  C   UNL     1       7.845   5.184  13.547  0.00  0.00    +0.000 A 
ATOM     31  C   UNL     1       7.662   4.976  12.179  0.00  0.00    +0.000 A 
ATOM     32  C   UNL     1       6.660   4.120  11.729  0.00  0.00    +0.000 A 
ATOM     33  C   UNL     1       5.846   3.460  12.648  0.00  0.00    +0.000 A 
ATOM     34  C   UNL     1       6.029   3.663  14.017  0.00  0.00    +0.000 A 
ENDBRANCH  28  29
ENDBRANCH  26  28
ENDBRANCH  25  26
ENDBRANCH  24  25
ENDBRANCH   1  24
TORSDOF 10
ENDMDL
MODEL 7
REMARK VINA RESULT:      -8.3      4.129      5.834
REMARK  Name = 
REMARK  10 active torsions:
REMARK  status: ('A' for Active; 'I' for Inactive)
REMARK    1  A    between atoms: C_2  and  C_3
REMARK    2  A    between atoms: C_4  and  C_5
REMARK    3  A    between atoms: N_11  and  C_12
REMARK    4  A    between atoms: C_12  and  C_13
REMARK    5  A    between atoms: C_12  and  C_24
REMARK    6  A    between atoms: C_13  and  O_14
REMARK    7  A    between atoms: O_14  and  C_15
REMARK    8  A    between atoms: C_15  and  C_17
REMARK    9  A    between atoms: C_17  and  C_18
REMARK   10  A    between atoms: N_26  and  C_27
REMARK                            x       y       z     vdW  Elec       q    Type
REMARK                         _______ _______ _______ _____ _____    ______ ____
ROOT
ATOM      1  C   UNL     1       3.907   5.903  17.230  0.00  0.00    +0.000 C 
ENDROOT
BRANCH   1   4
ATOM      2  O   UNL     1       2.412   8.338  17.185  0.00  0.00    +0.000 OA
ATOM      3  C   UNL     1       2.619   7.776  18.253  0.00  0.00    +0.000 C 
ATOM      4  N   UNL     1       3.358   6.627  18.386  0.00  0.00    +0.000 N 
ATOM      5  H   UNL     1       3.485   6.188  19.291  0.00  0.00    +0.000 HD
BRANCH   3   6
ATOM      6  C   UNL     1       2.050   8.258  19.543  0.00  0.00    +0.000 C 
ATOM      7  C   UNL     1       1.187   9.289  19.578  0.00  0.00    +0.000 C 
BRANCH   7   8
ATOM      8  C   UNL     1       0.502   9.772  20.792  0.00  0.00    +0.000 A 
ATOM      9  C   UNL     1      -0.140  11.022  20.772  0.00  0.00    +0.000 A 
ATOM     10  C   UNL     1      -0.865  11.473  21.885  0.00  0.00    +0.000 A 
ATOM     11  C   UNL     1      -0.967  10.680  23.023  0.00  0.00    +0.000 A 
ATOM     12  C   UNL     1      -0.344   9.435  23.054  0.00  0.00    +0.000 A 
ATOM     13  C   UNL     1       0.380   8.985  21.944  0.00  0.00    +0.000 A 
ENDBRANCH   7   8
ENDBRANCH   3   6
ENDBRANCH   1   4
BRANCH   1  14
ATOM     14  C   UNL     1       3.587   4.400  17.377  0.00  0.00    +0.000 C 
ATOM     15  O   UNL     1       4.253   3.529  16.819  0.00  0.00    +0.000 OA
ATOM     16  N   UNL     1       2.459   4.133  18.131  0.00  0.00    +0.000 N 
ATOM     17  H   UNL     1       2.118   4.887  18.717  0.00  0.00    +0.000 HD
BRANCH  16  18
ATOM     18  C   UNL     1       2.015   2.778  18.468  0.00  0.00    +0.000 C 
ATOM     19  C   UNL     1       3.114   1.995  19.200  0.00  0.00    +0.000 C 
ATOM     20  C   UNL     1       3.429   2.610  20.563  0.00  0.00    +0.000 C 
ATOM     21  C   UNL     1       2.182   2.719  21.439  0.00  0.00    +0.000 C 
ATOM     22  C   UNL     1       1.016   3.406  20.730  0.00  0.00    +0.000 C 
ATOM     23  C   UNL     1       0.751   2.821  19.341  0.00  0.00    +0.000 C 
ENDBRANCH  16  18
ENDBRANCH   1  14
BRANCH   1  24
ATOM     24  C   UNL     1       5.430   6.064  17.116  0.00  0.00    +0.000 C 
BRANCH  24  25
ATOM     25  O   UNL     1       5.878   6.029  15.751  0.00  0.00    +0.000 OA
BRANCH  25  26
ATOM     26  C   UNL     1       6.944   5.216  15.506  0.00  0.00    +0.000 C 
ATOM     27  O   UNL     1       7.494   4.519  16.353  0.00  0.00    +0.000 OA
BRANCH  26  28
ATOM     28  C   UNL     1       7.366   5.308  14.057  0.00  0.00    +0.000 C 
BRANCH  28  29
ATOM     29  C   UNL     1       6.656   4.322  13.161  0.00  0.00    +0.000 A 
ATOM     30  C   UNL     1       5.274   4.117  13.281  0.00  0.00    +0.000 A 
ATOM     31  C   UNL     1       4.624   3.185  12.468  0.00  0.00    +0.000 A 
ATOM     32  C   UNL     1       5.347   2.446  11.535  0.00  0.00    +0.000 A 
ATOM     33  C   UNL     1       6.719   2.646  11.404  0.00  0.00    +0.000 A 
ATOM     34  C   UNL     1       7.372   3.579  12.212  0.00  0.00    +0.000 A 
ENDBRANCH  28  29
ENDBRANCH  26  28
ENDBRANCH  25  26
ENDBRANCH  24  25
ENDBRANCH   1  24
TORSDOF 10
ENDMDL
MODEL 8
REMARK VINA RESULT:      -8.3      1.266      2.024
REMARK  Name = 
REMARK  10 active torsions:
REMARK  status: ('A' for Active; 'I' for Inactive)
REMARK    1  A    between atoms: C_2  and  C_3
REMARK    2  A    between atoms: C_4  and  C_5
REMARK    3  A    between atoms: N_11  and  C_12
REMARK    4  A    between atoms: C_12  and  C_13
REMARK    5  A    between atoms: C_12  and  C_24
REMARK    6  A    between atoms: C_13  and  O_14
REMARK    7  A    between atoms: O_14  and  C_15
REMARK    8  A    between atoms: C_15  and  C_17
REMARK    9  A    between atoms: C_17  and  C_18
REMARK   10  A    between atoms: N_26  and  C_27
REMARK                            x       y       z     vdW  Elec       q    Type
REMARK                         _______ _______ _______ _____ _____    ______ ____
ROOT
ATOM      1  C   UNL     1       5.775   6.179  16.471  0.00  0.00    +0.000 C 
ENDROOT
BRANCH   1   4
ATOM      2  O   UNL     1       7.333   6.165  18.867  0.00  0.00    +0.000 OA
ATOM      3  C   UNL     1       7.459   7.086  18.070  0.00  0.00    +0.000 C 
ATOM      4  N   UNL     1       6.730   7.207  16.913  0.00  0.00    +0.000 N 
ATOM      5  H   UNL     1       6.884   7.978  16.274  0.00  0.00    +0.000 HD
BRANCH   3   6
ATOM      6  C   UNL     1       8.460   8.175  18.245  0.00  0.00    +0.000 C 
ATOM      7  C   UNL     1       8.089   9.468  18.223  0.00  0.00    +0.000 C 
BRANCH   7   8
ATOM      8  C   UNL     1       8.991  10.607  18.481  0.00  0.00    +0.000 A 
ATOM      9  C   UNL     1       8.829  11.796  17.748  0.00  0.00    +0.000 A 
ATOM     10  C   UNL     1       9.619  12.922  18.025  0.00  0.00    +0.000 A 
ATOM     11  C   UNL     1      10.569  12.878  19.040  0.00  0.00    +0.000 A 
ATOM     12  C   UNL     1      10.733  11.710  19.781  0.00  0.00    +0.000 A 
ATOM     13  C   UNL     1       9.946  10.586  19.504  0.00  0.00    +0.000 A 
ENDBRANCH   7   8
ENDBRANCH   3   6
ENDBRANCH   1   4
BRANCH   1  14
ATOM     14  C   UNL     1       4.452   6.352  17.248  0.00  0.00    +0.000 C 
ATOM     15  O   UNL     1       3.853   7.426  17.294  0.00  0.00    +0.000 OA
ATOM     16  N   UNL     1       4.044   5.221  17.930  0.00  0.00    +0.000 N 
ATOM     17  H   UNL     1       4.477   4.346  17.653  0.00  0.00    +0.000 HD
BRANCH  16  18
ATOM     18  C   UNL     1       2.780   5.132  18.664  0.00  0.00    +0.000 C 
ATOM     19  C   UNL     1       1.731   4.335  17.878  0.00  0.00    +0.000 C 
ATOM     20  C   UNL     1       2.143   2.872  17.714  0.00  0.00    +0.000 C 
ATOM     21  C   UNL     1       2.418   2.205  19.061  0.00  0.00    +0.000 C 
ATOM     22  C   UNL     1       3.384   3.004  19.933  0.00  0.00    +0.000 C 
ATOM     23  C   UNL     1       2.994   4.479  20.039  0.00  0.00    +0.000 C 
ENDBRANCH  16  18
ENDBRANCH   1  14
BRANCH   1  24
ATOM     24  C   UNL     1       6.298   4.757  16.719  0.00  0.00    +0.000 C 
BRANCH  24  25
ATOM     25  O   UNL     1       6.481   4.026  15.495  0.00  0.00    +0.000 OA
BRANCH  25  26
ATOM     26  C   UNL     1       6.888   4.766  14.426  0.00  0.00    +0.000 C 
ATOM     27  O   UNL     1       7.915   5.436  14.396  0.00  0.00    +0.000 OA
BRANCH  26  28
ATOM     28  C   UNL     1       5.891   4.665  13.294  0.00  0.00    +0.000 C 
BRANCH  28  29
ATOM     29  C   UNL     1       6.133   3.485  12.384  0.00  0.00    +0.000 A 
ATOM     30  C   UNL     1       5.078   2.636  12.022  0.00  0.00    +0.000 A 
ATOM     31  C   UNL     1       5.309   1.530  11.201  0.00  0.00    +0.000 A 
ATOM     32  C   UNL     1       6.595   1.258  10.739  0.00  0.00    +0.000 A 
ATOM     33  C   UNL     1       7.650   2.099  11.088  0.00  0.00    +0.000 A 
ATOM     34  C   UNL     1       7.422   3.207  11.906  0.00  0.00    +0.000 A 
ENDBRANCH  28  29
ENDBRANCH  26  28
ENDBRANCH  25  26
ENDBRANCH  24  25
ENDBRANCH   1  24
TORSDOF 10
ENDMDL
MODEL 9
REMARK VINA RESULT:      -8.3      1.198      1.518
REMARK  Name = 
REMARK  10 active torsions:
REMARK  status: ('A' for Active; 'I' for Inactive)
REMARK    1  A    between atoms: C_2  and  C_3
REMARK    2  A    between atoms: C_4  and  C_5
REMARK    3  A    between atoms: N_11  and  C_12
REMARK    4  A    between atoms: C_12  and  C_13
REMARK    5  A    between atoms: C_12  and  C_24
REMARK    6  A    between atoms: C_13  and  O_14
REMARK    7  A    between atoms: O_14  and  C_15
REMARK    8  A    between atoms: C_15  and  C_17
REMARK    9  A    between atoms: C_17  and  C_18
REMARK   10  A    between atoms: N_26  and  C_27
REMARK                            x       y       z     vdW  Elec       q    Type
REMARK                         _______ _______ _______ _____ _____    ______ ____
ROOT
ATOM      1  C   UNL     1       5.701   6.059  16.797  0.00  0.00    +0.000 C 
ENDROOT
BRANCH   1   4
ATOM      2  O   UNL     1       7.878   6.771  18.506  0.00  0.00    +0.000 OA
ATOM      3  C   UNL     1       7.449   7.588  17.702  0.00  0.00    +0.000 C 
ATOM      4  N   UNL     1       6.384   7.359  16.866  0.00  0.00    +0.000 N 
ATOM      5  H   UNL     1       6.078   8.061  16.202  0.00  0.00    +0.000 HD
BRANCH   3   6
ATOM      6  C   UNL     1       8.068   8.929  17.504  0.00  0.00    +0.000 C 
ATOM      7  C   UNL     1       8.649   9.582  18.526  0.00  0.00    +0.000 C 
BRANCH   7   8
ATOM      8  C   UNL     1       9.368  10.865  18.406  0.00  0.00    +0.000 A 
ATOM      9  C   UNL     1      10.750  10.909  18.657  0.00  0.00    +0.000 A 
ATOM     10  C   UNL     1      11.474  12.097  18.475  0.00  0.00    +0.000 A 
ATOM     11  C   UNL     1      10.831  13.247  18.030  0.00  0.00    +0.000 A 
ATOM     12  C   UNL     1       9.464  13.217  17.768  0.00  0.00    +0.000 A 
ATOM     13  C   UNL     1       8.741  12.032  17.950  0.00  0.00    +0.000 A 
ENDBRANCH   7   8
ENDBRANCH   3   6
ENDBRANCH   1   4
BRANCH   1  14
ATOM     14  C   UNL     1       4.749   5.924  18.004  0.00  0.00    +0.000 C 
ATOM     15  O   UNL     1       4.232   6.900  18.546  0.00  0.00    +0.000 OA
ATOM     16  N   UNL     1       4.586   4.627  18.454  0.00  0.00    +0.000 N 
ATOM     17  H   UNL     1       4.870   3.889  17.818  0.00  0.00    +0.000 HD
BRANCH  16  18
ATOM     18  C   UNL     1       3.667   4.255  19.533  0.00  0.00    +0.000 C 
ATOM     19  C   UNL     1       2.208   4.535  19.147  0.00  0.00    +0.000 C 
ATOM     20  C   UNL     1       1.756   3.653  17.983  0.00  0.00    +0.000 C 
ATOM     21  C   UNL     1       1.950   2.168  18.287  0.00  0.00    +0.000 C 
ATOM     22  C   UNL     1       3.361   1.840  18.771  0.00  0.00    +0.000 C 
ATOM     23  C   UNL     1       3.824   2.770  19.894  0.00  0.00    +0.000 C 
ENDBRANCH  16  18
ENDBRANCH   1  14
BRANCH   1  24
ATOM     24  C   UNL     1       6.688   4.884  16.826  0.00  0.00    +0.000 C 
BRANCH  24  25
ATOM     25  O   UNL     1       6.650   4.113  15.613  0.00  0.00    +0.000 OA
BRANCH  25  26
ATOM     26  C   UNL     1       6.969   4.794  14.478  0.00  0.00    +0.000 C 
ATOM     27  O   UNL     1       7.981   5.472  14.335  0.00  0.00    +0.000 OA
BRANCH  26  28
ATOM     28  C   UNL     1       5.896   4.614  13.427  0.00  0.00    +0.000 C 
BRANCH  28  29
ATOM     29  C   UNL     1       6.149   3.448  12.503  0.00  0.00    +0.000 A 
ATOM     30  C   UNL     1       7.446   3.162  12.054  0.00  0.00    +0.000 A 
ATOM     31  C   UNL     1       7.674   2.099  11.178  0.00  0.00    +0.000 A 
ATOM     32  C   UNL     1       6.610   1.315  10.738  0.00  0.00    +0.000 A 
ATOM     33  C   UNL     1       5.317   1.586  11.182  0.00  0.00    +0.000 A 
ATOM     34  C   UNL     1       5.087   2.647  12.060  0.00  0.00    +0.000 A 
ENDBRANCH  28  29
ENDBRANCH  26  28
ENDBRANCH  25  26
ENDBRANCH  24  25
ENDBRANCH   1  24
TORSDOF 10
ENDMDL
