MODEL 1
REMARK VINA RESULT:      -7.7      0.000      0.000
REMARK  Name = 
REMARK  10 active torsions:
REMARK  status: ('A' for Active; 'I' for Inactive)
REMARK    1  A    between atoms: C_1  and  C_2
REMARK    2  A    between atoms: C_2  and  C_4
REMARK    3  A    between atoms: C_7  and  O_8
REMARK    4  A    between atoms: O_8  and  C_9
REMARK    5  A    between atoms: C_9  and  C_11
REMARK    6  A    between atoms: C_11  and  C_12
REMARK    7  A    between atoms: C_11  and  N_19
REMARK    8  A    between atoms: C_12  and  C_13
REMARK    9  A    between atoms: N_19  and  S_20
REMARK   10  A    between atoms: S_20  and  C_21
REMARK                            x       y       z     vdW  Elec       q    Type
REMARK                         _______ _______ _______ _____ _____    ______ ____
ROOT
ATOM      1  C   UNL     1       2.886   4.858  19.524  0.00  0.00    +0.000 C 
ENDROOT
BRANCH   1   2
ATOM      2  C   UNL     1       4.371   4.509  19.563  0.00  0.00    +0.000 C 
ATOM      3  O   UNL     1       4.836   3.483  20.050  0.00  0.00    +0.000 OA
BRANCH   2   4
ATOM      4  O   UNL     1       5.134   5.541  19.023  0.00  0.00    +0.000 OA
BRANCH   4   8
ATOM      5  C   UNL     1       6.575   4.990  15.130  0.00  0.00    +0.000 A 
ATOM      6  C   UNL     1       5.212   4.843  15.417  0.00  0.00    +0.000 A 
ATOM      7  C   UNL     1       4.752   4.988  16.731  0.00  0.00    +0.000 A 
ATOM      8  C   UNL     1       5.653   5.285  17.749  0.00  0.00    +0.000 A 
ATOM      9  C   UNL     1       7.008   5.475  17.467  0.00  0.00    +0.000 A 
ATOM     10  C   UNL     1       7.466   5.321  16.162  0.00  0.00    +0.000 A 
BRANCH   5  12
ATOM     11  C   UNL     1       6.470   3.878  12.805  0.00  0.00    +0.000 C 
ATOM     12  C   UNL     1       7.136   4.839  13.757  0.00  0.00    +0.000 C 
ATOM     13  O   UNL     1       8.123   5.486  13.414  0.00  0.00    +0.000 OA
ENDBRANCH   5  12
ENDBRANCH   4   8
ENDBRANCH   2   4
ENDBRANCH   1   2
BRANCH   1  14
ATOM     14  N   UNL     1       2.014   3.658  19.765  0.00  0.00    +0.000 NA
ATOM     15  H   UNL     1       1.353   3.825  20.528  0.00  0.00    +0.000 HD
BRANCH  14  16
ATOM     16  S   UNL     1       1.292   2.981  18.405  0.00  0.00    +0.000 S 
ATOM     17  C   UNL     1       2.613   1.964  17.786  0.00  0.00    +0.000 C 
ATOM     18  O   UNL     1       0.233   2.118  18.865  0.00  0.00    +0.000 OA
ATOM     19  O   UNL     1       1.041   4.051  17.468  0.00  0.00    +0.000 OA
ENDBRANCH  14  16
ENDBRANCH   1  14
BRANCH   1  20
ATOM     20  C   UNL     1       2.557   6.027  20.472  0.00  0.00    +0.000 C 
BRANCH  20  21
ATOM     21  C   UNL     1       2.119   7.310  19.795  0.00  0.00    +0.000 A 
ATOM     22  C   UNL     1       1.422   8.302  20.496  0.00  0.00    +0.000 A 
ATOM     23  C   UNL     1       0.991   9.458  19.842  0.00  0.00    +0.000 A 
ATOM     24  C   UNL     1       1.265   9.644  18.489  0.00  0.00    +0.000 A 
ATOM     25  C   UNL     1       1.987   8.682  17.790  0.00  0.00    +0.000 A 
ATOM     26  C   UNL     1       2.417   7.526  18.441  0.00  0.00    +0.000 A 
ENDBRANCH  20  21
ENDBRANCH   1  20
TORSDOF 8
ENDMDL
MODEL 2
REMARK VINA RESULT:      -7.6      2.787      6.860
REMARK  Name = 
REMARK  10 active torsions:
REMARK  status: ('A' for Active; 'I' for Inactive)
REMARK    1  A    between atoms: C_1  and  C_2
REMARK    2  A    between atoms: C_2  and  C_4
REMARK    3  A    between atoms: C_7  and  O_8
REMARK    4  A    between atoms: O_8  and  C_9
REMARK    5  A    between atoms: C_9  and  C_11
REMARK    6  A    between atoms: C_11  and  C_12
REMARK    7  A    between atoms: C_11  and  N_19
REMARK    8  A    between atoms: C_12  and  C_13
REMARK    9  A    between atoms: N_19  and  S_20
REMARK   10  A    between atoms: S_20  and  C_21
REMARK                            x       y       z     vdW  Elec       q    Type
REMARK                         _______ _______ _______ _____ _____    ______ ____
ROOT
ATOM      1  C   UNL     1       4.284   4.700  17.231  0.00  0.00    +0.000 C 
ENDROOT
BRANCH   1   2
ATOM      2  C   UNL     1       4.044   5.834  18.223  0.00  0.00    +0.000 C 
ATOM      3  O   UNL     1       4.582   5.929  19.322  0.00  0.00    +0.000 OA
BRANCH   2   4
ATOM      4  O   UNL     1       3.085   6.720  17.736  0.00  0.00    +0.000 OA
BRANCH   4   8
ATOM      5  C   UNL     1       0.910   8.949  20.535  0.00  0.00    +0.000 A 
ATOM      6  C   UNL     1       1.140   9.446  19.246  0.00  0.00    +0.000 A 
ATOM      7  C   UNL     1       1.906   8.709  18.336  0.00  0.00    +0.000 A 
ATOM      8  C   UNL     1       2.431   7.477  18.715  0.00  0.00    +0.000 A 
ATOM      9  C   UNL     1       2.173   6.952  19.983  0.00  0.00    +0.000 A 
ATOM     10  C   UNL     1       1.419   7.691  20.891  0.00  0.00    +0.000 A 
BRANCH   5  12
ATOM     11  C   UNL     1       0.050  11.189  21.482  0.00  0.00    +0.000 C 
ATOM     12  C   UNL     1       0.114   9.684  21.558  0.00  0.00    +0.000 C 
ATOM     13  O   UNL     1      -0.477   9.072  22.445  0.00  0.00    +0.000 OA
ENDBRANCH   5  12
ENDBRANCH   4   8
ENDBRANCH   2   4
ENDBRANCH   1   2
BRANCH   1  14
ATOM     14  N   UNL     1       5.653   4.098  17.377  0.00  0.00    +0.000 NA
ATOM     15  H   UNL     1       5.615   3.076  17.355  0.00  0.00    +0.000 HD
BRANCH  14  16
ATOM     16  S   UNL     1       6.852   4.734  16.384  0.00  0.00    +0.000 S 
ATOM     17  C   UNL     1       6.422   4.007  14.819  0.00  0.00    +0.000 C 
ATOM     18  O   UNL     1       6.630   6.155  16.298  0.00  0.00    +0.000 OA
ATOM     19  O   UNL     1       8.115   4.191  16.825  0.00  0.00    +0.000 OA
ENDBRANCH  14  16
ENDBRANCH   1  14
BRANCH   1  20
ATOM     20  C   UNL     1       3.164   3.644  17.302  0.00  0.00    +0.000 C 
BRANCH  20  21
ATOM     21  C   UNL     1       2.578   3.408  18.679  0.00  0.00    +0.000 A 
ATOM     22  C   UNL     1       1.255   3.756  18.978  0.00  0.00    +0.000 A 
ATOM     23  C   UNL     1       0.749   3.568  20.266  0.00  0.00    +0.000 A 
ATOM     24  C   UNL     1       1.551   3.017  21.262  0.00  0.00    +0.000 A 
ATOM     25  C   UNL     1       2.856   2.635  20.970  0.00  0.00    +0.000 A 
ATOM     26  C   UNL     1       3.363   2.822  19.684  0.00  0.00    +0.000 A 
ENDBRANCH  20  21
ENDBRANCH   1  20
TORSDOF 8
ENDMDL
MODEL 3
REMARK VINA RESULT:      -7.5      2.716      6.640
REMARK  Name = 
REMARK  10 active torsions:
REMARK  status: ('A' for Active; 'I' for Inactive)
REMARK    1  A    between atoms: C_1  and  C_2
REMARK    2  A    between atoms: C_2  and  C_4
REMARK    3  A    between atoms: C_7  and  O_8
REMARK    4  A    between atoms: O_8  and  C_9
REMARK    5  A    between atoms: C_9  and  C_11
REMARK    6  A    between atoms: C_11  and  C_12
REMARK    7  A    between atoms: C_11  and  N_19
REMARK    8  A    between atoms: C_12  and  C_13
REMARK    9  A    between atoms: N_19  and  S_20
REMARK   10  A    between atoms: S_20  and  C_21
REMARK                            x       y       z     vdW  Elec       q    Type
REMARK                         _______ _______ _______ _____ _____    ______ ____
ROOT
ATOM      1  C   UNL     1       4.565   3.919  17.272  0.00  0.00    +0.000 C 
ENDROOT
BRANCH   1   2
ATOM      2  C   UNL     1       4.317   5.191  18.078  0.00  0.00    +0.000 C 
ATOM      3  O   UNL     1       5.047   5.606  18.973  0.00  0.00    +0.000 OA
BRANCH   2   4
ATOM      4  O   UNL     1       3.116   5.787  17.700  0.00  0.00    +0.000 OA
BRANCH   4   8
ATOM      5  C   UNL     1       1.405   8.613  20.273  0.00  0.00    +0.000 A 
ATOM      6  C   UNL     1       1.753   8.957  18.960  0.00  0.00    +0.000 A 
ATOM      7  C   UNL     1       2.363   8.014  18.127  0.00  0.00    +0.000 A 
ATOM      8  C   UNL     1       2.617   6.731  18.605  0.00  0.00    +0.000 A 
ATOM      9  C   UNL     1       2.237   6.366  19.898  0.00  0.00    +0.000 A 
ATOM     10  C   UNL     1       1.638   7.308  20.730  0.00  0.00    +0.000 A 
BRANCH   5  12
ATOM     11  C   UNL     1      -0.405  10.393  20.735  0.00  0.00    +0.000 C 
ATOM     12  C   UNL     1       0.762   9.569  21.219  0.00  0.00    +0.000 C 
ATOM     13  O   UNL     1       1.180   9.682  22.369  0.00  0.00    +0.000 OA
ENDBRANCH   5  12
ENDBRANCH   4   8
ENDBRANCH   2   4
ENDBRANCH   1   2
BRANCH   1  14
ATOM     14  N   UNL     1       5.923   3.910  16.630  0.00  0.00    +0.000 NA
ATOM     15  H   UNL     1       6.127   3.004  16.201  0.00  0.00    +0.000 HD
BRANCH  14  16
ATOM     16  S   UNL     1       6.275   5.209  15.621  0.00  0.00    +0.000 S 
ATOM     17  C   UNL     1       6.872   4.367  14.173  0.00  0.00    +0.000 C 
ATOM     18  O   UNL     1       5.026   5.848  15.291  0.00  0.00    +0.000 OA
ATOM     19  O   UNL     1       7.364   5.943  16.222  0.00  0.00    +0.000 OA
ENDBRANCH  14  16
ENDBRANCH   1  14
BRANCH   1  20
ATOM     20  C   UNL     1       4.301   2.657  18.115  0.00  0.00    +0.000 C 
BRANCH  20  21
ATOM     21  C   UNL     1       3.144   2.754  19.088  0.00  0.00    +0.000 A 
ATOM     22  C   UNL     1       1.819   2.816  18.639  0.00  0.00    +0.000 A 
ATOM     23  C   UNL     1       0.769   2.947  19.551  0.00  0.00    +0.000 A 
ATOM     24  C   UNL     1       1.030   3.003  20.919  0.00  0.00    +0.000 A 
ATOM     25  C   UNL     1       2.339   2.908  21.379  0.00  0.00    +0.000 A 
ATOM     26  C   UNL     1       3.388   2.777  20.470  0.00  0.00    +0.000 A 
ENDBRANCH  20  21
ENDBRANCH   1  20
TORSDOF 8
ENDMDL
MODEL 4
REMARK VINA RESULT:      -7.5      2.807      6.901
REMARK  Name = 
REMARK  10 active torsions:
REMARK  status: ('A' for Active; 'I' for Inactive)
REMARK    1  A    between atoms: C_1  and  C_2
REMARK    2  A    between atoms: C_2  and  C_4
REMARK    3  A    between atoms: C_7  and  O_8
REMARK    4  A    between atoms: O_8  and  C_9
REMARK    5  A    between atoms: C_9  and  C_11
REMARK    6  A    between atoms: C_11  and  C_12
REMARK    7  A    between atoms: C_11  and  N_19
REMARK    8  A    between atoms: C_12  and  C_13
REMARK    9  A    between atoms: N_19  and  S_20
REMARK   10  A    between atoms: S_20  and  C_21
REMARK                            x       y       z     vdW  Elec       q    Type
REMARK                         _______ _______ _______ _____ _____    ______ ____
ROOT
ATOM      1  C   UNL     1       4.342   4.699  17.393  0.00  0.00    +0.000 C 
ENDROOT
BRANCH   1   2
ATOM      2  C   UNL     1       3.935   5.797  18.371  0.00  0.00    +0.000 C 
ATOM      3  O   UNL     1       4.465   5.996  19.460  0.00  0.00    +0.000 OA
BRANCH   2   4
ATOM      4  O   UNL     1       2.839   6.507  17.886  0.00  0.00    +0.000 OA
BRANCH   4   8
ATOM      5  C   UNL     1       0.982   9.254  20.444  0.00  0.00    +0.000 A 
ATOM      6  C   UNL     1       1.274   9.594  19.117  0.00  0.00    +0.000 A 
ATOM      7  C   UNL     1       1.934   8.681  18.287  0.00  0.00    +0.000 A 
ATOM      8  C   UNL     1       2.292   7.431  18.784  0.00  0.00    +0.000 A 
ATOM      9  C   UNL     1       1.969   7.066  20.093  0.00  0.00    +0.000 A 
ATOM     10  C   UNL     1       1.322   7.979  20.920  0.00  0.00    +0.000 A 
BRANCH   5  12
ATOM     11  C   UNL     1      -0.697  11.174  20.830  0.00  0.00    +0.000 C 
ATOM     12  C   UNL     1       0.292  10.180  21.386  0.00  0.00    +0.000 C 
ATOM     13  O   UNL     1       0.529  10.133  22.591  0.00  0.00    +0.000 OA
ENDBRANCH   5  12
ENDBRANCH   4   8
ENDBRANCH   2   4
ENDBRANCH   1   2
BRANCH   1  14
ATOM     14  N   UNL     1       5.780   4.294  17.560  0.00  0.00    +0.000 NA
ATOM     15  H   UNL     1       5.910   3.297  17.374  0.00  0.00    +0.000 HD
BRANCH  14  16
ATOM     16  S   UNL     1       6.918   5.262  16.787  0.00  0.00    +0.000 S 
ATOM     17  C   UNL     1       7.575   6.182  18.161  0.00  0.00    +0.000 C 
ATOM     18  O   UNL     1       7.953   4.393  16.288  0.00  0.00    +0.000 OA
ATOM     19  O   UNL     1       6.201   6.163  15.916  0.00  0.00    +0.000 OA
ENDBRANCH  14  16
ENDBRANCH   1  14
BRANCH   1  20
ATOM     20  C   UNL     1       3.379   3.499  17.459  0.00  0.00    +0.000 C 
BRANCH  20  21
ATOM     21  C   UNL     1       2.686   3.294  18.791  0.00  0.00    +0.000 A 
ATOM     22  C   UNL     1       1.326   3.583  18.957  0.00  0.00    +0.000 A 
ATOM     23  C   UNL     1       0.717   3.427  20.204  0.00  0.00    +0.000 A 
ATOM     24  C   UNL     1       1.455   2.965  21.293  0.00  0.00    +0.000 A 
ATOM     25  C   UNL     1       2.798   2.642  21.133  0.00  0.00    +0.000 A 
ATOM     26  C   UNL     1       3.407   2.798  19.888  0.00  0.00    +0.000 A 
ENDBRANCH  20  21
ENDBRANCH   1  20
TORSDOF 8
ENDMDL
MODEL 5
REMARK VINA RESULT:      -7.5      2.793      6.718
REMARK  Name = 
REMARK  10 active torsions:
REMARK  status: ('A' for Active; 'I' for Inactive)
REMARK    1  A    between atoms: C_1  and  C_2
REMARK    2  A    between atoms: C_2  and  C_4
REMARK    3  A    between atoms: C_7  and  O_8
REMARK    4  A    between atoms: O_8  and  C_9
REMARK    5  A    between atoms: C_9  and  C_11
REMARK    6  A    between atoms: C_11  and  C_12
REMARK    7  A    between atoms: C_11  and  N_19
REMARK    8  A    between atoms: C_12  and  C_13
REMARK    9  A    between atoms: N_19  and  S_20
REMARK   10  A    between atoms: S_20  and  C_21
REMARK                            x       y       z     vdW  Elec       q    Type
REMARK                         _______ _______ _______ _____ _____    ______ ____
ROOT
ATOM      1  C   UNL     1       4.772   4.356  17.802  0.00  0.00    +0.000 C 
ENDROOT
BRANCH   1   2
ATOM      2  C   UNL     1       4.235   5.578  18.542  0.00  0.00    +0.000 C 
ATOM      3  O   UNL     1       4.604   5.940  19.655  0.00  0.00    +0.000 OA
BRANCH   2   4
ATOM      4  O   UNL     1       3.226   6.195  17.807  0.00  0.00    +0.000 OA
BRANCH   4   8
ATOM      5  C   UNL     1       1.175   9.391  19.572  0.00  0.00    +0.000 A 
ATOM      6  C   UNL     1       1.620   9.470  18.246  0.00  0.00    +0.000 A 
ATOM      7  C   UNL     1       2.342   8.411  17.684  0.00  0.00    +0.000 A 
ATOM      8  C   UNL     1       2.609   7.277  18.446  0.00  0.00    +0.000 A 
ATOM      9  C   UNL     1       2.134   7.170  19.755  0.00  0.00    +0.000 A 
ATOM     10  C   UNL     1       1.425   8.228  20.316  0.00  0.00    +0.000 A 
BRANCH   5  12
ATOM     11  C   UNL     1       1.048  11.846  20.354  0.00  0.00    +0.000 C 
ATOM     12  C   UNL     1       0.411  10.484  20.238  0.00  0.00    +0.000 C 
ATOM     13  O   UNL     1      -0.715  10.274  20.683  0.00  0.00    +0.000 OA
ENDBRANCH   5  12
ENDBRANCH   4   8
ENDBRANCH   2   4
ENDBRANCH   1   2
BRANCH   1  14
ATOM     14  N   UNL     1       6.136   3.953  18.286  0.00  0.00    +0.000 NA
ATOM     15  H   UNL     1       6.265   2.939  18.234  0.00  0.00    +0.000 HD
BRANCH  14  16
ATOM     16  S   UNL     1       7.433   4.816  17.654  0.00  0.00    +0.000 S 
ATOM     17  C   UNL     1       6.893   5.068  15.978  0.00  0.00    +0.000 C 
ATOM     18  O   UNL     1       7.463   6.095  18.316  0.00  0.00    +0.000 OA
ATOM     19  O   UNL     1       8.580   3.938  17.652  0.00  0.00    +0.000 OA
ENDBRANCH  14  16
ENDBRANCH   1  14
BRANCH   1  20
ATOM     20  C   UNL     1       3.765   3.191  17.834  0.00  0.00    +0.000 C 
BRANCH  20  21
ATOM     21  C   UNL     1       2.908   3.106  19.080  0.00  0.00    +0.000 A 
ATOM     22  C   UNL     1       3.439   2.679  20.303  0.00  0.00    +0.000 A 
ATOM     23  C   UNL     1       2.622   2.568  21.429  0.00  0.00    +0.000 A 
ATOM     24  C   UNL     1       1.270   2.897  21.351  0.00  0.00    +0.000 A 
ATOM     25  C   UNL     1       0.737   3.356  20.151  0.00  0.00    +0.000 A 
ATOM     26  C   UNL     1       1.552   3.467  19.026  0.00  0.00    +0.000 A 
ENDBRANCH  20  21
ENDBRANCH   1  20
TORSDOF 8
ENDMDL
MODEL 6
REMARK VINA RESULT:      -7.4      2.877      6.764
REMARK  Name = 
REMARK  10 active torsions:
REMARK  status: ('A' for Active; 'I' for Inactive)
REMARK    1  A    between atoms: C_1  and  C_2
REMARK    2  A    between atoms: C_2  and  C_4
REMARK    3  A    between atoms: C_7  and  O_8
REMARK    4  A    between atoms: O_8  and  C_9
REMARK    5  A    between atoms: C_9  and  C_11
REMARK    6  A    between atoms: C_11  and  C_12
REMARK    7  A    between atoms: C_11  and  N_19
REMARK    8  A    between atoms: C_12  and  C_13
REMARK    9  A    between atoms: N_19  and  S_20
REMARK   10  A    between atoms: S_20  and  C_21
REMARK                            x       y       z     vdW  Elec       q    Type
REMARK                         _______ _______ _______ _____ _____    ______ ____
ROOT
ATOM      1  C   UNL     1       4.633   4.372  17.757  0.00  0.00    +0.000 C 
ENDROOT
BRANCH   1   2
ATOM      2  C   UNL     1       4.103   5.553  18.564  0.00  0.00    +0.000 C 
ATOM      3  O   UNL     1       4.510   5.880  19.675  0.00  0.00    +0.000 OA
BRANCH   2   4
ATOM      4  O   UNL     1       3.054   6.177  17.894  0.00  0.00    +0.000 OA
BRANCH   4   8
ATOM      5  C   UNL     1       1.129   9.378  19.788  0.00  0.00    +0.000 A 
ATOM      6  C   UNL     1       1.519   9.469  18.445  0.00  0.00    +0.000 A 
ATOM      7  C   UNL     1       2.200   8.408  17.839  0.00  0.00    +0.000 A 
ATOM      8  C   UNL     1       2.481   7.259  18.573  0.00  0.00    +0.000 A 
ATOM      9  C   UNL     1       2.061   7.141  19.900  0.00  0.00    +0.000 A 
ATOM     10  C   UNL     1       1.393   8.202  20.505  0.00  0.00    +0.000 A 
BRANCH   5  12
ATOM     11  C   UNL     1      -0.377  10.136  21.741  0.00  0.00    +0.000 C 
ATOM     12  C   UNL     1       0.411  10.473  20.500  0.00  0.00    +0.000 C 
ATOM     13  O   UNL     1       0.462  11.627  20.079  0.00  0.00    +0.000 OA
ENDBRANCH   5  12
ENDBRANCH   4   8
ENDBRANCH   2   4
ENDBRANCH   1   2
BRANCH   1  14
ATOM     14  N   UNL     1       6.039   4.006  18.141  0.00  0.00    +0.000 NA
ATOM     15  H   UNL     1       6.215   3.008  18.003  0.00  0.00    +0.000 HD
BRANCH  14  16
ATOM     16  S   UNL     1       7.257   4.983  17.516  0.00  0.00    +0.000 S 
ATOM     17  C   UNL     1       7.798   5.835  18.981  0.00  0.00    +0.000 C 
ATOM     18  O   UNL     1       8.322   4.115  17.079  0.00  0.00    +0.000 OA
ATOM     19  O   UNL     1       6.637   5.930  16.621  0.00  0.00    +0.000 OA
ENDBRANCH  14  16
ENDBRANCH   1  14
BRANCH   1  20
ATOM     20  C   UNL     1       3.671   3.171  17.820  0.00  0.00    +0.000 C 
BRANCH  20  21
ATOM     21  C   UNL     1       2.860   3.053  19.093  0.00  0.00    +0.000 A 
ATOM     22  C   UNL     1       3.449   2.653  20.299  0.00  0.00    +0.000 A 
ATOM     23  C   UNL     1       2.674   2.510  21.452  0.00  0.00    +0.000 A 
ATOM     24  C   UNL     1       1.308   2.781  21.417  0.00  0.00    +0.000 A 
ATOM     25  C   UNL     1       0.716   3.212  20.235  0.00  0.00    +0.000 A 
ATOM     26  C   UNL     1       1.489   3.354  19.083  0.00  0.00    +0.000 A 
ENDBRANCH  20  21
ENDBRANCH   1  20
TORSDOF 8
ENDMDL
MODEL 7
REMARK VINA RESULT:      -7.4      2.831      6.778
REMARK  Name = 
REMARK  10 active torsions:
REMARK  status: ('A' for Active; 'I' for Inactive)
REMARK    1  A    between atoms: C_1  and  C_2
REMARK    2  A    between atoms: C_2  and  C_4
REMARK    3  A    between atoms: C_7  and  O_8
REMARK    4  A    between atoms: O_8  and  C_9
REMARK    5  A    between atoms: C_9  and  C_11
REMARK    6  A    between atoms: C_11  and  C_12
REMARK    7  A    between atoms: C_11  and  N_19
REMARK    8  A    between atoms: C_12  and  C_13
REMARK    9  A    between atoms: N_19  and  S_20
REMARK   10  A    between atoms: S_20  and  C_21
REMARK                            x       y       z     vdW  Elec       q    Type
REMARK                         _______ _______ _______ _____ _____    ______ ____
ROOT
ATOM      1  C   UNL     1       4.751   4.425  17.776  0.00  0.00    +0.000 C 
ENDROOT
BRANCH   1   2
ATOM      2  C   UNL     1       4.220   5.612  18.574  0.00  0.00    +0.000 C 
ATOM      3  O   UNL     1       4.544   5.882  19.726  0.00  0.00    +0.000 OA
BRANCH   2   4
ATOM      4  O   UNL     1       3.271   6.317  17.837  0.00  0.00    +0.000 OA
BRANCH   4   8
ATOM      5  C   UNL     1       1.017   9.234  19.824  0.00  0.00    +0.000 A 
ATOM      6  C   UNL     1       1.467   9.444  18.514  0.00  0.00    +0.000 A 
ATOM      7  C   UNL     1       2.255   8.479  17.879  0.00  0.00    +0.000 A 
ATOM      8  C   UNL     1       2.585   7.306  18.552  0.00  0.00    +0.000 A 
ATOM      9  C   UNL     1       2.108   7.067  19.842  0.00  0.00    +0.000 A 
ATOM     10  C   UNL     1       1.331   8.032  20.477  0.00  0.00    +0.000 A 
BRANCH   5  12
ATOM     11  C   UNL     1       0.155  10.163  22.071  0.00  0.00    +0.000 C 
ATOM     12  C   UNL     1       0.183  10.222  20.564  0.00  0.00    +0.000 C 
ATOM     13  O   UNL     1      -0.469  11.067  19.954  0.00  0.00    +0.000 OA
ENDBRANCH   5  12
ENDBRANCH   4   8
ENDBRANCH   2   4
ENDBRANCH   1   2
BRANCH   1  14
ATOM     14  N   UNL     1       6.106   3.982  18.250  0.00  0.00    +0.000 NA
ATOM     15  H   UNL     1       6.245   2.980  18.097  0.00  0.00    +0.000 HD
BRANCH  14  16
ATOM     16  S   UNL     1       7.411   4.914  17.743  0.00  0.00    +0.000 S 
ATOM     17  C   UNL     1       6.710   5.748  16.337  0.00  0.00    +0.000 C 
ATOM     18  O   UNL     1       7.665   5.894  18.769  0.00  0.00    +0.000 OA
ATOM     19  O   UNL     1       8.441   4.009  17.289  0.00  0.00    +0.000 OA
ENDBRANCH  14  16
ENDBRANCH   1  14
BRANCH   1  20
ATOM     20  C   UNL     1       3.731   3.271  17.738  0.00  0.00    +0.000 C 
BRANCH  20  21
ATOM     21  C   UNL     1       2.850   3.141  18.963  0.00  0.00    +0.000 A 
ATOM     22  C   UNL     1       1.495   3.493  18.928  0.00  0.00    +0.000 A 
ATOM     23  C   UNL     1       0.711   3.405  20.080  0.00  0.00    +0.000 A 
ATOM     24  C   UNL     1       1.267   2.950  21.274  0.00  0.00    +0.000 A 
ATOM     25  C   UNL     1       2.602   2.564  21.315  0.00  0.00    +0.000 A 
ATOM     26  C   UNL     1       3.386   2.652  20.165  0.00  0.00    +0.000 A 
ENDBRANCH  20  21
ENDBRANCH   1  20
TORSDOF 8
ENDMDL
MODEL 8
REMARK VINA RESULT:      -7.4      1.358      1.976
REMARK  Name = 
REMARK  10 active torsions:
REMARK  status: ('A' for Active; 'I' for Inactive)
REMARK    1  A    between atoms: C_1  and  C_2
REMARK    2  A    between atoms: C_2  and  C_4
REMARK    3  A    between atoms: C_7  and  O_8
REMARK    4  A    between atoms: O_8  and  C_9
REMARK    5  A    between atoms: C_9  and  C_11
REMARK    6  A    between atoms: C_11  and  C_12
REMARK    7  A    between atoms: C_11  and  N_19
REMARK    8  A    between atoms: C_12  and  C_13
REMARK    9  A    between atoms: N_19  and  S_20
REMARK   10  A    between atoms: S_20  and  C_21
REMARK                            x       y       z     vdW  Elec       q    Type
REMARK                         _______ _______ _______ _____ _____    ______ ____
ROOT
ATOM      1  C   UNL     1       3.817   5.013  18.971  0.00  0.00    +0.000 C 
ENDROOT
BRANCH   1   2
ATOM      2  C   UNL     1       5.312   5.283  19.112  0.00  0.00    +0.000 C 
ATOM      3  O   UNL     1       6.040   4.767  19.955  0.00  0.00    +0.000 OA
BRANCH   2   4
ATOM      4  O   UNL     1       5.728   6.241  18.191  0.00  0.00    +0.000 OA
BRANCH   4   8
ATOM      5  C   UNL     1       6.273   4.571  14.389  0.00  0.00    +0.000 A 
ATOM      6  C   UNL     1       7.049   4.147  15.476  0.00  0.00    +0.000 A 
ATOM      7  C   UNL     1       6.885   4.745  16.731  0.00  0.00    +0.000 A 
ATOM      8  C   UNL     1       5.944   5.757  16.895  0.00  0.00    +0.000 A 
ATOM      9  C   UNL     1       5.136   6.159  15.829  0.00  0.00    +0.000 A 
ATOM     10  C   UNL     1       5.306   5.570  14.579  0.00  0.00    +0.000 A 
BRANCH   5  12
ATOM     11  C   UNL     1       7.439   4.553  12.088  0.00  0.00    +0.000 C 
ATOM     12  C   UNL     1       6.401   3.986  13.025  0.00  0.00    +0.000 C 
ATOM     13  O   UNL     1       5.672   3.061  12.673  0.00  0.00    +0.000 OA
ENDBRANCH   5  12
ENDBRANCH   4   8
ENDBRANCH   2   4
ENDBRANCH   1   2
BRANCH   1  14
ATOM     14  N   UNL     1       3.502   3.543  18.982  0.00  0.00    +0.000 NA
ATOM     15  H   UNL     1       3.522   3.165  19.932  0.00  0.00    +0.000 HD
BRANCH  14  16
ATOM     16  S   UNL     1       2.142   3.069  18.114  0.00  0.00    +0.000 S 
ATOM     17  C   UNL     1       0.969   2.814  19.426  0.00  0.00    +0.000 C 
ATOM     18  O   UNL     1       1.711   4.204  17.336  0.00  0.00    +0.000 OA
ATOM     19  O   UNL     1       2.441   1.799  17.496  0.00  0.00    +0.000 OA
ENDBRANCH  14  16
ENDBRANCH   1  14
BRANCH   1  20
ATOM     20  C   UNL     1       3.001   5.800  20.013  0.00  0.00    +0.000 C 
BRANCH  20  21
ATOM     21  C   UNL     1       2.373   7.085  19.514  0.00  0.00    +0.000 A 
ATOM     22  C   UNL     1       2.485   7.478  18.174  0.00  0.00    +0.000 A 
ATOM     23  C   UNL     1       1.935   8.687  17.744  0.00  0.00    +0.000 A 
ATOM     24  C   UNL     1       1.254   9.507  18.641  0.00  0.00    +0.000 A 
ATOM     25  C   UNL     1       1.106   9.113  19.966  0.00  0.00    +0.000 A 
ATOM     26  C   UNL     1       1.656   7.905  20.397  0.00  0.00    +0.000 A 
ENDBRANCH  20  21
ENDBRANCH   1  20
TORSDOF 8
ENDMDL
MODEL 9
REMARK VINA RESULT:      -7.4      1.031      1.409
REMARK  Name = 
REMARK  10 active torsions:
REMARK  status: ('A' for Active; 'I' for Inactive)
REMARK    1  A    between atoms: C_1  and  C_2
REMARK    2  A    between atoms: C_2  and  C_4
REMARK    3  A    between atoms: C_7  and  O_8
REMARK    4  A    between atoms: O_8  and  C_9
REMARK    5  A    between atoms: C_9  and  C_11
REMARK    6  A    between atoms: C_11  and  C_12
REMARK    7  A    between atoms: C_11  and  N_19
REMARK    8  A    between atoms: C_12  and  C_13
REMARK    9  A    between atoms: N_19  and  S_20
REMARK   10  A    between atoms: S_20  and  C_21
REMARK                            x       y       z     vdW  Elec       q    Type
REMARK                         _______ _______ _______ _____ _____    ______ ____
ROOT
ATOM      1  C   UNL     1       3.095   4.751  19.422  0.00  0.00    +0.000 C 
ENDROOT
BRANCH   1   2
ATOM      2  C   UNL     1       4.601   4.513  19.371  0.00  0.00    +0.000 C 
ATOM      3  O   UNL     1       5.168   3.516  19.810  0.00  0.00    +0.000 OA
BRANCH   2   4
ATOM      4  O   UNL     1       5.254   5.608  18.811  0.00  0.00    +0.000 OA
BRANCH   4   8
ATOM      5  C   UNL     1       6.498   4.805  14.894  0.00  0.00    +0.000 A 
ATOM      6  C   UNL     1       7.178   4.256  15.989  0.00  0.00    +0.000 A 
ATOM      7  C   UNL     1       6.777   4.568  17.292  0.00  0.00    +0.000 A 
ATOM      8  C   UNL     1       5.696   5.421  17.496  0.00  0.00    +0.000 A 
ATOM      9  C   UNL     1       4.986   5.942  16.413  0.00  0.00    +0.000 A 
ATOM     10  C   UNL     1       5.392   5.639  15.116  0.00  0.00    +0.000 A 
BRANCH   5  12
ATOM     11  C   UNL     1       7.951   5.366  12.837  0.00  0.00    +0.000 C 
ATOM     12  C   UNL     1       6.877   4.525  13.480  0.00  0.00    +0.000 C 
ATOM     13  O   UNL     1       6.320   3.626  12.853  0.00  0.00    +0.000 OA
ENDBRANCH   5  12
ENDBRANCH   4   8
ENDBRANCH   2   4
ENDBRANCH   1   2
BRANCH   1  14
ATOM     14  N   UNL     1       2.332   3.493  19.730  0.00  0.00    +0.000 NA
ATOM     15  H   UNL     1       1.508   3.689  20.304  0.00  0.00    +0.000 HD
BRANCH  14  16
ATOM     16  S   UNL     1       2.000   2.488  18.424  0.00  0.00    +0.000 S 
ATOM     17  C   UNL     1       2.334   3.578  17.059  0.00  0.00    +0.000 C 
ATOM     18  O   UNL     1       2.994   1.444  18.422  0.00  0.00    +0.000 OA
ATOM     19  O   UNL     1       0.588   2.188  18.453  0.00  0.00    +0.000 OA
ENDBRANCH  14  16
ENDBRANCH   1  14
BRANCH   1  20
ATOM     20  C   UNL     1       2.740   5.907  20.376  0.00  0.00    +0.000 C 
BRANCH  20  21
ATOM     21  C   UNL     1       2.219   7.163  19.710  0.00  0.00    +0.000 A 
ATOM     22  C   UNL     1       1.544   8.150  20.441  0.00  0.00    +0.000 A 
ATOM     23  C   UNL     1       1.036   9.281  19.799  0.00  0.00    +0.000 A 
ATOM     24  C   UNL     1       1.209   9.447  18.427  0.00  0.00    +0.000 A 
ATOM     25  C   UNL     1       1.908   8.492  17.695  0.00  0.00    +0.000 A 
ATOM     26  C   UNL     1       2.416   7.362  18.335  0.00  0.00    +0.000 A 
ENDBRANCH  20  21
ENDBRANCH   1  20
TORSDOF 8
ENDMDL
