MODEL 1
REMARK VINA RESULT:      -8.5      0.000      0.000
REMARK  Name = 
REMARK  6 active torsions:
REMARK  status: ('A' for Active; 'I' for Inactive)
REMARK    1  A    between atoms: C_1  and  O_2
REMARK    2  A    between atoms: O_2  and  C_3
REMARK    3  A    between atoms: C_6  and  C_7
REMARK    4  A    between atoms: N_17  and  C_18
REMARK    5  A    between atoms: C_22  and  C_23
REMARK    6  A    between atoms: N_30  and  C_31
REMARK                            x       y       z     vdW  Elec       q    Type
REMARK                         _______ _______ _______ _____ _____    ______ ____
ROOT
ATOM      1  C   UNL     1       2.147   5.560  19.355  0.00  0.00    +0.000 A 
ATOM      2  C   UNL     1       2.024   5.786  17.994  0.00  0.00    +0.000 A 
ATOM      3  C   UNL     1       2.138   7.076  17.571  0.00  0.00    +0.000 A 
ATOM      4  C   UNL     1       2.110   8.097  18.456  0.00  0.00    +0.000 A 
ATOM      5  N   UNL     1       2.262   9.222  17.760  0.00  0.00    +0.000 NA
ATOM      6  C   UNL     1       1.635  10.322  18.139  0.00  0.00    +0.000 A 
ATOM      7  C   UNL     1       0.874  10.356  19.320  0.00  0.00    +0.000 A 
ATOM      8  C   UNL     1       1.172   8.998  20.341  0.00  0.00    +0.000 A 
ATOM      9  C   UNL     1       1.758   7.832  19.802  0.00  0.00    +0.000 A 
ATOM     10  N   UNL     1       1.907   6.539  20.286  0.00  0.00    +0.000 NA
ATOM     11  N   UNL     1       0.508   9.090  21.760  0.00  0.00    +0.000 N 
ATOM     12  C   UNL     1      -0.164  10.064  22.796  0.00  0.00    +0.000 C 
ATOM     13  O   UNL     1      -0.323   9.835  23.992  0.00  0.00    +0.000 OA
ATOM     14  N   UNL     1      -0.701  11.464  22.102  0.00  0.00    +0.000 N 
ATOM     15  C   UNL     1      -0.967  12.583  22.979  0.00  0.00    +0.000 C 
ATOM     16  C   UNL     1      -0.473  11.711  20.300  0.00  0.00    +0.000 C 
ENDROOT
BRANCH   1  20
ATOM     17  C   UNL     1       4.605   2.250  20.224  0.00  0.00    +0.000 A 
ATOM     18  C   UNL     1       3.363   2.290  20.849  0.00  0.00    +0.000 A 
ATOM     19  C   UNL     1       2.506   3.370  20.595  0.00  0.00    +0.000 A 
ATOM     20  C   UNL     1       2.913   4.362  19.714  0.00  0.00    +0.000 A 
ATOM     21  C   UNL     1       4.174   4.183  19.111  0.00  0.00    +0.000 A 
ATOM     22  N   UNL     1       5.015   3.159  19.327  0.00  0.00    +0.000 NA
BRANCH  17  24
ATOM     23  C   UNL     1       5.397   0.947  21.963  0.00  0.00    +0.000 C 
ATOM     24  O   UNL     1       5.473   1.237  20.564  0.00  0.00    +0.000 OA
ENDBRANCH  17  24
ENDBRANCH   1  20
BRANCH  11  25
ATOM     25  C   UNL     1       0.104  10.040  21.000  0.00  0.00    +0.000 A 
ATOM     26  C   UNL     1       1.458  11.356  20.842  0.00  0.00    +0.000 A 
ATOM     27  C   UNL     1       1.379  12.383  19.391  0.00  0.00    +0.000 A 
ATOM     28  C   UNL     1       0.022  12.146  18.229  0.00  0.00    +0.000 A 
ATOM     29  C   UNL     1      -1.182  10.837  18.387  0.00  0.00    +0.000 A 
ATOM     30  C   UNL     1      -1.219   9.791  19.794  0.00  0.00    +0.000 A 
BRANCH  29  31
ATOM     31  C   UNL     1      -1.972  10.335  17.189  0.00  0.00    +0.000 C 
ATOM     32  F   UNL     1      -3.202   9.859  17.519  0.00  0.00    +0.000 F 
ATOM     33  F   UNL     1      -2.189  11.325  16.278  0.00  0.00    +0.000 F 
ATOM     34  F   UNL     1      -1.333   9.343  16.519  0.00  0.00    +0.000 F 
ENDBRANCH  29  31
ENDBRANCH  11  25
TORSDOF 4
ENDMDL
MODEL 2
REMARK VINA RESULT:      -8.4      0.575      1.101
REMARK  Name = 
REMARK  6 active torsions:
REMARK  status: ('A' for Active; 'I' for Inactive)
REMARK    1  A    between atoms: C_1  and  O_2
REMARK    2  A    between atoms: O_2  and  C_3
REMARK    3  A    between atoms: C_6  and  C_7
REMARK    4  A    between atoms: N_17  and  C_18
REMARK    5  A    between atoms: C_22  and  C_23
REMARK    6  A    between atoms: N_30  and  C_31
REMARK                            x       y       z     vdW  Elec       q    Type
REMARK                         _______ _______ _______ _____ _____    ______ ____
ROOT
ATOM      1  C   UNL     1       2.364   5.975  19.118  0.00  0.00    +0.000 A 
ATOM      2  C   UNL     1       2.196   6.245  17.770  0.00  0.00    +0.000 A 
ATOM      3  C   UNL     1       2.200   7.556  17.400  0.00  0.00    +0.000 A 
ATOM      4  C   UNL     1       2.110   8.535  18.328  0.00  0.00    +0.000 A 
ATOM      5  N   UNL     1       2.159   9.696  17.678  0.00  0.00    +0.000 NA
ATOM      6  C   UNL     1       1.456  10.727  18.113  0.00  0.00    +0.000 A 
ATOM      7  C   UNL     1       0.719  10.651  19.307  0.00  0.00    +0.000 A 
ATOM      8  C   UNL     1       1.142   9.281  20.264  0.00  0.00    +0.000 A 
ATOM      9  C   UNL     1       1.807   8.188  19.668  0.00  0.00    +0.000 A 
ATOM     10  N   UNL     1       2.067   6.893  20.094  0.00  0.00    +0.000 NA
ATOM     11  N   UNL     1       0.502   9.263  21.698  0.00  0.00    +0.000 N 
ATOM     12  C   UNL     1      -0.222  10.137  22.785  0.00  0.00    +0.000 C 
ATOM     13  O   UNL     1      -0.339   9.848  23.973  0.00  0.00    +0.000 OA
ATOM     14  N   UNL     1      -0.882  11.517  22.160  0.00  0.00    +0.000 N 
ATOM     15  C   UNL     1      -1.217  12.575  23.087  0.00  0.00    +0.000 C 
ATOM     16  C   UNL     1      -0.711  11.855  20.366  0.00  0.00    +0.000 C 
ENDROOT
BRANCH   1  20
ATOM     17  C   UNL     1       4.583   2.527  20.094  0.00  0.00    +0.000 A 
ATOM     18  C   UNL     1       5.231   3.497  19.338  0.00  0.00    +0.000 A 
ATOM     19  C   UNL     1       4.538   4.664  18.985  0.00  0.00    +0.000 A 
ATOM     20  C   UNL     1       3.229   4.827  19.413  0.00  0.00    +0.000 A 
ATOM     21  C   UNL     1       2.700   3.793  20.212  0.00  0.00    +0.000 A 
ATOM     22  N   UNL     1       3.338   2.668  20.572  0.00  0.00    +0.000 NA
BRANCH  17  24
ATOM     23  C   UNL     1       5.254   1.052  21.743  0.00  0.00    +0.000 C 
ATOM     24  O   UNL     1       5.243   1.345  20.343  0.00  0.00    +0.000 OA
ENDBRANCH  17  24
ENDBRANCH   1  20
BRANCH  11  25
ATOM     25  C   UNL     1       0.010  10.208  20.985  0.00  0.00    +0.000 A 
ATOM     26  C   UNL     1       1.241  11.645  20.884  0.00  0.00    +0.000 A 
ATOM     27  C   UNL     1       1.060  12.728  19.485  0.00  0.00    +0.000 A 
ATOM     28  C   UNL     1      -0.280  12.427  18.318  0.00  0.00    +0.000 A 
ATOM     29  C   UNL     1      -1.362  11.009  18.418  0.00  0.00    +0.000 A 
ATOM     30  C   UNL     1      -1.295   9.900  19.774  0.00  0.00    +0.000 A 
BRANCH  29  31
ATOM     31  C   UNL     1      -2.114  10.496  17.201  0.00  0.00    +0.000 C 
ATOM     32  F   UNL     1      -1.505   9.440  16.599  0.00  0.00    +0.000 F 
ATOM     33  F   UNL     1      -3.367  10.066  17.527  0.00  0.00    +0.000 F 
ATOM     34  F   UNL     1      -2.282  11.448  16.249  0.00  0.00    +0.000 F 
ENDBRANCH  29  31
ENDBRANCH  11  25
TORSDOF 4
ENDMDL
MODEL 3
REMARK VINA RESULT:      -7.9      3.362      8.565
REMARK  Name = 
REMARK  6 active torsions:
REMARK  status: ('A' for Active; 'I' for Inactive)
REMARK    1  A    between atoms: C_1  and  O_2
REMARK    2  A    between atoms: O_2  and  C_3
REMARK    3  A    between atoms: C_6  and  C_7
REMARK    4  A    between atoms: N_17  and  C_18
REMARK    5  A    between atoms: C_22  and  C_23
REMARK    6  A    between atoms: N_30  and  C_31
REMARK                            x       y       z     vdW  Elec       q    Type
REMARK                         _______ _______ _______ _____ _____    ______ ____
ROOT
ATOM      1  C   UNL     1       1.013   9.167  19.747  0.00  0.00    +0.000 A 
ATOM      2  C   UNL     1       0.264   8.350  20.577  0.00  0.00    +0.000 A 
ATOM      3  C   UNL     1       0.874   7.226  21.048  0.00  0.00    +0.000 A 
ATOM      4  C   UNL     1       2.047   6.806  20.522  0.00  0.00    +0.000 A 
ATOM      5  N   UNL     1       2.405   5.710  21.189  0.00  0.00    +0.000 NA
ATOM      6  C   UNL     1       3.031   4.731  20.562  0.00  0.00    +0.000 A 
ATOM      7  C   UNL     1       3.412   4.857  19.215  0.00  0.00    +0.000 A 
ATOM      8  C   UNL     1       3.321   6.483  18.647  0.00  0.00    +0.000 A 
ATOM      9  C   UNL     1       2.535   7.426  19.346  0.00  0.00    +0.000 A 
ATOM     10  N   UNL     1       2.086   8.701  19.030  0.00  0.00    +0.000 NA
ATOM     11  N   UNL     1       3.930   6.712  17.219  0.00  0.00    +0.000 N 
ATOM     12  C   UNL     1       4.859   6.093  16.112  0.00  0.00    +0.000 C 
ATOM     13  O   UNL     1       5.370   6.709  15.181  0.00  0.00    +0.000 OA
ATOM     14  N   UNL     1       5.062   4.462  16.286  0.00  0.00    +0.000 N 
ATOM     15  C   UNL     1       6.177   3.852  15.598  0.00  0.00    +0.000 C 
ATOM     16  C   UNL     1       4.224   3.602  17.672  0.00  0.00    +0.000 C 
ENDROOT
BRANCH   1  20
ATOM     17  C   UNL     1       0.589  13.345  20.098  0.00  0.00    +0.000 A 
ATOM     18  C   UNL     1       0.230  12.584  21.204  0.00  0.00    +0.000 A 
ATOM     19  C   UNL     1       0.350  11.188  21.140  0.00  0.00    +0.000 A 
ATOM     20  C   UNL     1       0.841  10.605  19.981  0.00  0.00    +0.000 A 
ATOM     21  C   UNL     1       1.213  11.488  18.947  0.00  0.00    +0.000 A 
ATOM     22  N   UNL     1       1.116  12.827  18.979  0.00  0.00    +0.000 NA
BRANCH  17  24
ATOM     23  C   UNL     1      -0.072  15.189  18.870  0.00  0.00    +0.000 C 
ATOM     24  O   UNL     1       0.367  14.703  20.141  0.00  0.00    +0.000 OA
ENDBRANCH  17  24
ENDBRANCH   1  20
BRANCH  11  25
ATOM     25  C   UNL     1       3.873   5.463  17.501  0.00  0.00    +0.000 A 
ATOM     26  C   UNL     1       5.339   4.984  18.602  0.00  0.00    +0.000 A 
ATOM     27  C   UNL     1       5.117   3.531  19.604  0.00  0.00    +0.000 A 
ATOM     28  C   UNL     1       3.577   2.606  19.469  0.00  0.00    +0.000 A 
ATOM     29  C   UNL     1       2.196   3.148  18.474  0.00  0.00    +0.000 A 
ATOM     30  C   UNL     1       2.319   4.544  17.420  0.00  0.00    +0.000 A 
BRANCH  29  31
ATOM     31  C   UNL     1       0.779   2.675  18.755  0.00  0.00    +0.000 C 
ATOM     32  F   UNL     1       0.349   2.981  20.007  0.00  0.00    +0.000 F 
ATOM     33  F   UNL     1      -0.121   3.245  17.903  0.00  0.00    +0.000 F 
ATOM     34  F   UNL     1       0.636   1.334  18.606  0.00  0.00    +0.000 F 
ENDBRANCH  29  31
ENDBRANCH  11  25
TORSDOF 4
ENDMDL
MODEL 4
REMARK VINA RESULT:      -7.9      3.266      8.607
REMARK  Name = 
REMARK  6 active torsions:
REMARK  status: ('A' for Active; 'I' for Inactive)
REMARK    1  A    between atoms: C_1  and  O_2
REMARK    2  A    between atoms: O_2  and  C_3
REMARK    3  A    between atoms: C_6  and  C_7
REMARK    4  A    between atoms: N_17  and  C_18
REMARK    5  A    between atoms: C_22  and  C_23
REMARK    6  A    between atoms: N_30  and  C_31
REMARK                            x       y       z     vdW  Elec       q    Type
REMARK                         _______ _______ _______ _____ _____    ______ ____
ROOT
ATOM      1  C   UNL     1       1.062   9.188  19.687  0.00  0.00    +0.000 A 
ATOM      2  C   UNL     1       0.292   8.388  20.515  0.00  0.00    +0.000 A 
ATOM      3  C   UNL     1       0.880   7.261  21.003  0.00  0.00    +0.000 A 
ATOM      4  C   UNL     1       2.054   6.821  20.497  0.00  0.00    +0.000 A 
ATOM      5  N   UNL     1       2.388   5.726  21.177  0.00  0.00    +0.000 NA
ATOM      6  C   UNL     1       3.010   4.733  20.567  0.00  0.00    +0.000 A 
ATOM      7  C   UNL     1       3.410   4.842  19.224  0.00  0.00    +0.000 A 
ATOM      8  C   UNL     1       3.348   6.464  18.641  0.00  0.00    +0.000 A 
ATOM      9  C   UNL     1       2.566   7.423  19.321  0.00  0.00    +0.000 A 
ATOM     10  N   UNL     1       2.138   8.701  18.988  0.00  0.00    +0.000 NA
ATOM     11  N   UNL     1       3.979   6.672  17.219  0.00  0.00    +0.000 N 
ATOM     12  C   UNL     1       4.913   6.030  16.129  0.00  0.00    +0.000 C 
ATOM     13  O   UNL     1       5.444   6.631  15.200  0.00  0.00    +0.000 OA
ATOM     14  N   UNL     1       5.092   4.399  16.321  0.00  0.00    +0.000 N 
ATOM     15  C   UNL     1       6.208   3.767  15.653  0.00  0.00    +0.000 C 
ATOM     16  C   UNL     1       4.225   3.562  17.704  0.00  0.00    +0.000 C 
ENDROOT
BRANCH   1  20
ATOM     17  C   UNL     1       0.593  13.266  20.639  0.00  0.00    +0.000 A 
ATOM     18  C   UNL     1       0.909  12.963  19.320  0.00  0.00    +0.000 A 
ATOM     19  C   UNL     1       1.077  11.621  18.949  0.00  0.00    +0.000 A 
ATOM     20  C   UNL     1       0.907  10.630  19.906  0.00  0.00    +0.000 A 
ATOM     21  C   UNL     1       0.542  11.064  21.197  0.00  0.00    +0.000 A 
ATOM     22  N   UNL     1       0.368  12.338  21.581  0.00  0.00    +0.000 NA
BRANCH  17  24
ATOM     23  C   UNL     1      -0.820  15.055  21.029  0.00  0.00    +0.000 C 
ATOM     24  O   UNL     1       0.533  14.591  21.007  0.00  0.00    +0.000 OA
ENDBRANCH  17  24
ENDBRANCH   1  20
BRANCH  11  25
ATOM     25  C   UNL     1       3.901   5.426  17.511  0.00  0.00    +0.000 A 
ATOM     26  C   UNL     1       5.339   4.940  18.645  0.00  0.00    +0.000 A 
ATOM     27  C   UNL     1       5.081   3.499  19.656  0.00  0.00    +0.000 A 
ATOM     28  C   UNL     1       3.533   2.591  19.499  0.00  0.00    +0.000 A 
ATOM     29  C   UNL     1       2.178   3.141  18.473  0.00  0.00    +0.000 A 
ATOM     30  C   UNL     1       2.338   4.525  17.408  0.00  0.00    +0.000 A 
BRANCH  29  31
ATOM     31  C   UNL     1       0.750   2.687  18.730  0.00  0.00    +0.000 C 
ATOM     32  F   UNL     1      -0.153   3.250  17.885  0.00  0.00    +0.000 F 
ATOM     33  F   UNL     1       0.614   1.338  18.575  0.00  0.00    +0.000 F 
ATOM     34  F   UNL     1       0.333   2.961  19.992  0.00  0.00    +0.000 F 
ENDBRANCH  29  31
ENDBRANCH  11  25
TORSDOF 4
ENDMDL
MODEL 5
REMARK VINA RESULT:      -7.9      3.168      8.295
REMARK  Name = 
REMARK  6 active torsions:
REMARK  status: ('A' for Active; 'I' for Inactive)
REMARK    1  A    between atoms: C_1  and  O_2
REMARK    2  A    between atoms: O_2  and  C_3
REMARK    3  A    between atoms: C_6  and  C_7
REMARK    4  A    between atoms: N_17  and  C_18
REMARK    5  A    between atoms: C_22  and  C_23
REMARK    6  A    between atoms: N_30  and  C_31
REMARK                            x       y       z     vdW  Elec       q    Type
REMARK                         _______ _______ _______ _____ _____    ______ ____
ROOT
ATOM      1  C   UNL     1       1.426   9.188  20.553  0.00  0.00    +0.000 A 
ATOM      2  C   UNL     1       2.087   9.887  19.557  0.00  0.00    +0.000 A 
ATOM      3  C   UNL     1       2.392   9.199  18.421  0.00  0.00    +0.000 A 
ATOM      4  C   UNL     1       2.289   7.852  18.382  0.00  0.00    +0.000 A 
ATOM      5  N   UNL     1       2.629   7.469  17.152  0.00  0.00    +0.000 NA
ATOM      6  C   UNL     1       3.273   6.330  16.970  0.00  0.00    +0.000 A 
ATOM      7  C   UNL     1       3.532   5.462  18.044  0.00  0.00    +0.000 A 
ATOM      8  C   UNL     1       2.618   5.855  19.452  0.00  0.00    +0.000 A 
ATOM      9  C   UNL     1       2.058   7.144  19.586  0.00  0.00    +0.000 A 
ATOM     10  N   UNL     1       1.490   7.821  20.657  0.00  0.00    +0.000 NA
ATOM     11  N   UNL     1       2.713   4.798  20.609  0.00  0.00    +0.000 N 
ATOM     12  C   UNL     1       3.129   3.323  20.961  0.00  0.00    +0.000 C 
ATOM     13  O   UNL     1       2.785   2.704  21.965  0.00  0.00    +0.000 OA
ATOM     14  N   UNL     1       4.148   2.661  19.841  0.00  0.00    +0.000 N 
ATOM     15  C   UNL     1       4.283   1.222  19.832  0.00  0.00    +0.000 C 
ATOM     16  C   UNL     1       4.657   3.666  18.395  0.00  0.00    +0.000 C 
ENDROOT
BRANCH   1  20
ATOM     17  C   UNL     1      -1.514  11.219  22.787  0.00  0.00    +0.000 A 
ATOM     18  C   UNL     1      -1.430  11.528  21.434  0.00  0.00    +0.000 A 
ATOM     19  C   UNL     1      -0.468  10.882  20.645  0.00  0.00    +0.000 A 
ATOM     20  C   UNL     1       0.363   9.938  21.231  0.00  0.00    +0.000 A 
ATOM     21  C   UNL     1       0.147   9.680  22.600  0.00  0.00    +0.000 A 
ATOM     22  N   UNL     1      -0.768  10.276  23.381  0.00  0.00    +0.000 NA
BRANCH  17  24
ATOM     23  C   UNL     1      -3.365  12.605  22.756  0.00  0.00    +0.000 C 
ATOM     24  O   UNL     1      -2.393  11.936  23.566  0.00  0.00    +0.000 OA
ENDBRANCH  17  24
ENDBRANCH   1  20
BRANCH  11  25
ATOM     25  C   UNL     1       3.547   4.532  19.672  0.00  0.00    +0.000 A 
ATOM     26  C   UNL     1       2.641   3.733  18.213  0.00  0.00    +0.000 A 
ATOM     27  C   UNL     1       3.439   3.877  16.629  0.00  0.00    +0.000 A 
ATOM     28  C   UNL     1       5.037   4.703  16.531  0.00  0.00    +0.000 A 
ATOM     29  C   UNL     1       5.808   5.509  17.926  0.00  0.00    +0.000 A 
ATOM     30  C   UNL     1       5.128   5.398  19.538  0.00  0.00    +0.000 A 
BRANCH  29  31
ATOM     31  C   UNL     1       6.847   6.602  17.738  0.00  0.00    +0.000 C 
ATOM     32  F   UNL     1       7.634   6.413  16.646  0.00  0.00    +0.000 F 
ATOM     33  F   UNL     1       6.267   7.825  17.570  0.00  0.00    +0.000 F 
ATOM     34  F   UNL     1       7.676   6.726  18.805  0.00  0.00    +0.000 F 
ENDBRANCH  29  31
ENDBRANCH  11  25
TORSDOF 4
ENDMDL
MODEL 6
REMARK VINA RESULT:      -7.7      3.146      8.289
REMARK  Name = 
REMARK  6 active torsions:
REMARK  status: ('A' for Active; 'I' for Inactive)
REMARK    1  A    between atoms: C_1  and  O_2
REMARK    2  A    between atoms: O_2  and  C_3
REMARK    3  A    between atoms: C_6  and  C_7
REMARK    4  A    between atoms: N_17  and  C_18
REMARK    5  A    between atoms: C_22  and  C_23
REMARK    6  A    between atoms: N_30  and  C_31
REMARK                            x       y       z     vdW  Elec       q    Type
REMARK                         _______ _______ _______ _____ _____    ______ ____
ROOT
ATOM      1  C   UNL     1       1.401   9.155  20.738  0.00  0.00    +0.000 A 
ATOM      2  C   UNL     1       2.022   9.861  19.721  0.00  0.00    +0.000 A 
ATOM      3  C   UNL     1       2.276   9.183  18.568  0.00  0.00    +0.000 A 
ATOM      4  C   UNL     1       2.166   7.836  18.520  0.00  0.00    +0.000 A 
ATOM      5  N   UNL     1       2.452   7.464  17.274  0.00  0.00    +0.000 NA
ATOM      6  C   UNL     1       3.082   6.324  17.054  0.00  0.00    +0.000 A 
ATOM      7  C   UNL     1       3.383   5.445  18.109  0.00  0.00    +0.000 A 
ATOM      8  C   UNL     1       2.531   5.828  19.558  0.00  0.00    +0.000 A 
ATOM      9  C   UNL     1       1.982   7.118  19.727  0.00  0.00    +0.000 A 
ATOM     10  N   UNL     1       1.463   7.787  20.827  0.00  0.00    +0.000 NA
ATOM     11  N   UNL     1       2.669   4.760  20.700  0.00  0.00    +0.000 N 
ATOM     12  C   UNL     1       3.093   3.280  21.021  0.00  0.00    +0.000 C 
ATOM     13  O   UNL     1       2.789   2.653  22.032  0.00  0.00    +0.000 OA
ATOM     14  N   UNL     1       4.061   2.625  19.853  0.00  0.00    +0.000 N 
ATOM     15  C   UNL     1       4.190   1.185  19.824  0.00  0.00    +0.000 C 
ATOM     16  C   UNL     1       4.514   3.641  18.396  0.00  0.00    +0.000 C 
ENDROOT
BRANCH   1  20
ATOM     17  C   UNL     1      -1.600  11.488  22.560  0.00  0.00    +0.000 A 
ATOM     18  C   UNL     1      -1.154  10.376  23.267  0.00  0.00    +0.000 A 
ATOM     19  C   UNL     1      -0.157   9.565  22.705  0.00  0.00    +0.000 A 
ATOM     20  C   UNL     1       0.371   9.903  21.467  0.00  0.00    +0.000 A 
ATOM     21  C   UNL     1      -0.132  11.079  20.874  0.00  0.00    +0.000 A 
ATOM     22  N   UNL     1      -1.080  11.879  21.387  0.00  0.00    +0.000 NA
BRANCH  17  24
ATOM     23  C   UNL     1      -3.534  12.643  22.040  0.00  0.00    +0.000 C 
ATOM     24  O   UNL     1      -2.649  12.212  23.078  0.00  0.00    +0.000 OA
ENDBRANCH  17  24
ENDBRANCH   1  20
BRANCH  11  25
ATOM     25  C   UNL     1       3.462   4.500  19.727  0.00  0.00    +0.000 A 
ATOM     26  C   UNL     1       2.490   3.729  18.294  0.00  0.00    +0.000 A 
ATOM     27  C   UNL     1       3.225   3.888  16.681  0.00  0.00    +0.000 A 
ATOM     28  C   UNL     1       4.825   4.700  16.529  0.00  0.00    +0.000 A 
ATOM     29  C   UNL     1       5.660   5.480  17.903  0.00  0.00    +0.000 A 
ATOM     30  C   UNL     1       5.044   5.352  19.540  0.00  0.00    +0.000 A 
BRANCH  29  31
ATOM     31  C   UNL     1       6.701   6.566  17.688  0.00  0.00    +0.000 C 
ATOM     32  F   UNL     1       7.567   6.693  18.727  0.00  0.00    +0.000 F 
ATOM     33  F   UNL     1       7.471   6.316  16.591  0.00  0.00    +0.000 F 
ATOM     34  F   UNL     1       6.148   7.788  17.485  0.00  0.00    +0.000 F 
ENDBRANCH  29  31
ENDBRANCH  11  25
TORSDOF 4
ENDMDL
MODEL 7
REMARK VINA RESULT:      -7.6      3.393      8.709
REMARK  Name = 
REMARK  6 active torsions:
REMARK  status: ('A' for Active; 'I' for Inactive)
REMARK    1  A    between atoms: C_1  and  O_2
REMARK    2  A    between atoms: O_2  and  C_3
REMARK    3  A    between atoms: C_6  and  C_7
REMARK    4  A    between atoms: N_17  and  C_18
REMARK    5  A    between atoms: C_22  and  C_23
REMARK    6  A    between atoms: N_30  and  C_31
REMARK                            x       y       z     vdW  Elec       q    Type
REMARK                         _______ _______ _______ _____ _____    ______ ____
ROOT
ATOM      1  C   UNL     1       0.898   9.631  18.863  0.00  0.00    +0.000 A 
ATOM      2  C   UNL     1       0.182   8.963  19.843  0.00  0.00    +0.000 A 
ATOM      3  C   UNL     1       0.838   7.980  20.522  0.00  0.00    +0.000 A 
ATOM      4  C   UNL     1       2.028   7.514  20.083  0.00  0.00    +0.000 A 
ATOM      5  N   UNL     1       2.430   6.587  20.950  0.00  0.00    +0.000 NA
ATOM      6  C   UNL     1       3.098   5.530  20.524  0.00  0.00    +0.000 A 
ATOM      7  C   UNL     1       3.476   5.404  19.176  0.00  0.00    +0.000 A 
ATOM      8  C   UNL     1       3.318   6.881  18.300  0.00  0.00    +0.000 A 
ATOM      9  C   UNL     1       2.492   7.909  18.804  0.00  0.00    +0.000 A 
ATOM     10  N   UNL     1       1.991   9.077  18.246  0.00  0.00    +0.000 NA
ATOM     11  N   UNL     1       3.921   6.849  16.851  0.00  0.00    +0.000 N 
ATOM     12  C   UNL     1       4.877   6.062  15.882  0.00  0.00    +0.000 C 
ATOM     13  O   UNL     1       5.363   6.503  14.844  0.00  0.00    +0.000 OA
ATOM     14  N   UNL     1       5.147   4.508  16.373  0.00  0.00    +0.000 N 
ATOM     15  C   UNL     1       6.289   3.820  15.812  0.00  0.00    +0.000 C 
ATOM     16  C   UNL     1       4.343   3.904  17.907  0.00  0.00    +0.000 C 
ENDROOT
BRANCH   1  20
ATOM     17  C   UNL     1      -0.084  13.729  18.791  0.00  0.00    +0.000 A 
ATOM     18  C   UNL     1       1.262  13.404  18.664  0.00  0.00    +0.000 A 
ATOM     19  C   UNL     1       1.643  12.055  18.682  0.00  0.00    +0.000 A 
ATOM     20  C   UNL     1       0.666  11.079  18.810  0.00  0.00    +0.000 A 
ATOM     21  C   UNL     1      -0.666  11.534  18.885  0.00  0.00    +0.000 A 
ATOM     22  N   UNL     1      -1.064  12.816  18.863  0.00  0.00    +0.000 NA
BRANCH  17  24
ATOM     23  C   UNL     1       0.737  15.886  18.921  0.00  0.00    +0.000 C 
ATOM     24  O   UNL     1      -0.429  15.059  18.874  0.00  0.00    +0.000 OA
ENDBRANCH  17  24
ENDBRANCH   1  20
BRANCH  11  25
ATOM     25  C   UNL     1       3.915   5.679  17.374  0.00  0.00    +0.000 A 
ATOM     26  C   UNL     1       5.431   5.465  18.490  0.00  0.00    +0.000 A 
ATOM     27  C   UNL     1       5.291   4.232  19.766  0.00  0.00    +0.000 A 
ATOM     28  C   UNL     1       3.780   3.258  19.873  0.00  0.00    +0.000 A 
ATOM     29  C   UNL     1       2.350   3.556  18.845  0.00  0.00    +0.000 A 
ATOM     30  C   UNL     1       2.391   4.720  17.534  0.00  0.00    +0.000 A 
BRANCH  29  31
ATOM     31  C   UNL     1       0.960   3.109  19.267  0.00  0.00    +0.000 C 
ATOM     32  F   UNL     1       0.204   2.656  18.232  0.00  0.00    +0.000 F 
ATOM     33  F   UNL     1       1.011   2.084  20.165  0.00  0.00    +0.000 F 
ATOM     34  F   UNL     1       0.252   4.098  19.868  0.00  0.00    +0.000 F 
ENDBRANCH  29  31
ENDBRANCH  11  25
TORSDOF 4
ENDMDL
MODEL 8
REMARK VINA RESULT:      -6.6      3.611      5.116
REMARK  Name = 
REMARK  6 active torsions:
REMARK  status: ('A' for Active; 'I' for Inactive)
REMARK    1  A    between atoms: C_1  and  O_2
REMARK    2  A    between atoms: O_2  and  C_3
REMARK    3  A    between atoms: C_6  and  C_7
REMARK    4  A    between atoms: N_17  and  C_18
REMARK    5  A    between atoms: C_22  and  C_23
REMARK    6  A    between atoms: N_30  and  C_31
REMARK                            x       y       z     vdW  Elec       q    Type
REMARK                         _______ _______ _______ _____ _____    ______ ____
ROOT
ATOM      1  C   UNL     1       1.568   8.555  20.259  0.00  0.00    +0.000 A 
ATOM      2  C   UNL     1       0.654   8.493  21.298  0.00  0.00    +0.000 A 
ATOM      3  C   UNL     1      -0.315   9.450  21.323  0.00  0.00    +0.000 A 
ATOM      4  C   UNL     1      -0.227  10.542  20.530  0.00  0.00    +0.000 A 
ATOM      5  N   UNL     1      -1.313  11.278  20.756  0.00  0.00    +0.000 NA
ATOM      6  C   UNL     1      -1.237  12.596  20.718  0.00  0.00    +0.000 A 
ATOM      7  C   UNL     1      -0.044  13.246  20.356  0.00  0.00    +0.000 A 
ATOM      8  C   UNL     1       1.100  12.178  19.632  0.00  0.00    +0.000 A 
ATOM      9  C   UNL     1       0.977  10.785  19.824  0.00  0.00    +0.000 A 
ATOM     10  N   UNL     1       1.832   9.718  19.580  0.00  0.00    +0.000 NA
ATOM     11  N   UNL     1       2.360  12.887  19.022  0.00  0.00    +0.000 N 
ATOM     12  C   UNL     1       2.948  14.268  18.554  0.00  0.00    +0.000 C 
ATOM     13  O   UNL     1       3.923  14.420  17.824  0.00  0.00    +0.000 OA
ATOM     14  N   UNL     1       2.135  15.558  19.192  0.00  0.00    +0.000 N 
ATOM     15  C   UNL     1       2.310  16.841  18.548  0.00  0.00    +0.000 C 
ATOM     16  C   UNL     1       0.720  15.252  20.317  0.00  0.00    +0.000 C 
ENDROOT
BRANCH   1  20
ATOM     17  C   UNL     1       2.454   4.682  18.852  0.00  0.00    +0.000 A 
ATOM     18  C   UNL     1       2.787   5.744  18.017  0.00  0.00    +0.000 A 
ATOM     19  C   UNL     1       2.512   7.053  18.437  0.00  0.00    +0.000 A 
ATOM     20  C   UNL     1       1.932   7.256  19.681  0.00  0.00    +0.000 A 
ATOM     21  C   UNL     1       1.686   6.101  20.451  0.00  0.00    +0.000 A 
ATOM     22  N   UNL     1       1.942   4.837  20.081  0.00  0.00    +0.000 NA
BRANCH  17  24
ATOM     23  C   UNL     1       1.623   2.525  18.883  0.00  0.00    +0.000 C 
ATOM     24  O   UNL     1       2.635   3.402  18.381  0.00  0.00    +0.000 OA
ENDBRANCH  17  24
ENDBRANCH   1  20
BRANCH  11  25
ATOM     25  C   UNL     1       1.645  13.714  19.691  0.00  0.00    +0.000 A 
ATOM     26  C   UNL     1       2.597  14.293  21.223  0.00  0.00    +0.000 A 
ATOM     27  C   UNL     1       2.093  15.857  21.908  0.00  0.00    +0.000 A 
ATOM     28  C   UNL     1       0.713  16.734  21.151  0.00  0.00    +0.000 A 
ATOM     29  C   UNL     1      -0.097  16.180  19.658  0.00  0.00    +0.000 A 
ATOM     30  C   UNL     1       0.295  14.637  18.923  0.00  0.00    +0.000 A 
BRANCH  29  31
ATOM     31  C   UNL     1      -0.870  17.140  18.770  0.00  0.00    +0.000 C 
ATOM     32  F   UNL     1      -2.209  17.130  19.005  0.00  0.00    +0.000 F 
ATOM     33  F   UNL     1      -0.470  18.431  18.955  0.00  0.00    +0.000 F 
ATOM     34  F   UNL     1      -0.701  16.883  17.449  0.00  0.00    +0.000 F 
ENDBRANCH  29  31
ENDBRANCH  11  25
TORSDOF 4
ENDMDL
MODEL 9
REMARK VINA RESULT:      -6.6      3.609      5.084
REMARK  Name = 
REMARK  6 active torsions:
REMARK  status: ('A' for Active; 'I' for Inactive)
REMARK    1  A    between atoms: C_1  and  O_2
REMARK    2  A    between atoms: O_2  and  C_3
REMARK    3  A    between atoms: C_6  and  C_7
REMARK    4  A    between atoms: N_17  and  C_18
REMARK    5  A    between atoms: C_22  and  C_23
REMARK    6  A    between atoms: N_30  and  C_31
REMARK                            x       y       z     vdW  Elec       q    Type
REMARK                         _______ _______ _______ _____ _____    ______ ____
ROOT
ATOM      1  C   UNL     1       1.503   8.515  20.470  0.00  0.00    +0.000 A 
ATOM      2  C   UNL     1       0.605   8.501  21.525  0.00  0.00    +0.000 A 
ATOM      3  C   UNL     1      -0.345   9.478  21.536  0.00  0.00    +0.000 A 
ATOM      4  C   UNL     1      -0.250  10.543  20.710  0.00  0.00    +0.000 A 
ATOM      5  N   UNL     1      -1.318  11.306  20.931  0.00  0.00    +0.000 NA
ATOM      6  C   UNL     1      -1.218  12.621  20.853  0.00  0.00    +0.000 A 
ATOM      7  C   UNL     1      -0.020  13.236  20.453  0.00  0.00    +0.000 A 
ATOM      8  C   UNL     1       1.093  12.126  19.743  0.00  0.00    +0.000 A 
ATOM      9  C   UNL     1       0.947  10.742  19.978  0.00  0.00    +0.000 A 
ATOM     10  N   UNL     1       1.777   9.652  19.753  0.00  0.00    +0.000 NA
ATOM     11  N   UNL     1       2.356  12.793  19.092  0.00  0.00    +0.000 N 
ATOM     12  C   UNL     1       2.962  14.148  18.574  0.00  0.00    +0.000 C 
ATOM     13  O   UNL     1       3.928  14.259  17.825  0.00  0.00    +0.000 OA
ATOM     14  N   UNL     1       2.184  15.471  19.186  0.00  0.00    +0.000 N 
ATOM     15  C   UNL     1       2.372  16.731  18.502  0.00  0.00    +0.000 C 
ATOM     16  C   UNL     1       0.781  15.226  20.342  0.00  0.00    +0.000 C 
ENDROOT
BRANCH   1  20
ATOM     17  C   UNL     1       2.652   4.871  18.691  0.00  0.00    +0.000 A 
ATOM     18  C   UNL     1       1.880   4.790  19.845  0.00  0.00    +0.000 A 
ATOM     19  C   UNL     1       1.471   5.972  20.477  0.00  0.00    +0.000 A 
ATOM     20  C   UNL     1       1.833   7.193  19.926  0.00  0.00    +0.000 A 
ATOM     21  C   UNL     1       2.578   7.142  18.730  0.00  0.00    +0.000 A 
ATOM     22  N   UNL     1       2.979   6.028  18.097  0.00  0.00    +0.000 NA
BRANCH  17  24
ATOM     23  C   UNL     1       2.191   2.638  18.312  0.00  0.00    +0.000 C 
ATOM     24  O   UNL     1       3.130   3.703  18.142  0.00  0.00    +0.000 OA
ENDBRANCH  17  24
ENDBRANCH   1  20
BRANCH  11  25
ATOM     25  C   UNL     1       1.668  13.652  19.748  0.00  0.00    +0.000 A 
ATOM     26  C   UNL     1       2.653  14.255  21.249  0.00  0.00    +0.000 A 
ATOM     27  C   UNL     1       2.190  15.847  21.896  0.00  0.00    +0.000 A 
ATOM     28  C   UNL     1       0.817  16.731  21.134  0.00  0.00    +0.000 A 
ATOM     29  C   UNL     1      -0.025  16.152  19.669  0.00  0.00    +0.000 A 
ATOM     30  C   UNL     1       0.325  14.581  18.972  0.00  0.00    +0.000 A 
BRANCH  29  31
ATOM     31  C   UNL     1      -0.792  17.102  18.764  0.00  0.00    +0.000 C 
ATOM     32  F   UNL     1      -0.727  16.762  17.450  0.00  0.00    +0.000 F 
ATOM     33  F   UNL     1      -2.119  17.133  19.075  0.00  0.00    +0.000 F 
ATOM     34  F   UNL     1      -0.356  18.383  18.862  0.00  0.00    +0.000 F 
ENDBRANCH  29  31
ENDBRANCH  11  25
TORSDOF 4
ENDMDL
