MODEL 1
REMARK VINA RESULT:      -9.9      0.000      0.000
REMARK  Name = 
REMARK  5 active torsions:
REMARK  status: ('A' for Active; 'I' for Inactive)
REMARK    1  A    between atoms: C_6  and  N_7
REMARK    2  A    between atoms: C_9  and  C_10
REMARK    3  A    between atoms: C_16  and  C_17
REMARK    4  A    between atoms: C_24  and  C_25
REMARK    5  A    between atoms: N_27  and  C_28
REMARK                            x       y       z     vdW  Elec       q    Type
REMARK                         _______ _______ _______ _____ _____    ______ ____
ROOT
ATOM      1  N   UNL     1       2.817   6.242  19.205  0.00  0.00    +0.000 N 
ATOM      2  N   UNL     1       1.908   7.149  19.634  0.00  0.00    +0.000 NA
ATOM      3  C   UNL     1       2.082   8.220  18.824  0.00  0.00    +0.000 A 
ATOM      4  C   UNL     1       3.193   8.024  17.970  0.00  0.00    +0.000 A 
ATOM      5  C   UNL     1       3.528   6.694  18.129  0.00  0.00    +0.000 A 
ENDROOT
BRANCH   3   6
ATOM      6  C   UNL     1       1.121   9.330  18.849  0.00  0.00    +0.000 A 
ATOM      7  C   UNL     1       1.022  10.074  20.024  0.00  0.00    +0.000 A 
ATOM      8  N   UNL     1       0.071  10.980  20.316  0.00  0.00    +0.000 NA
ATOM      9  C   UNL     1      -0.889  11.041  19.383  0.00  0.00    +0.000 A 
ATOM     10  N   UNL     1      -2.036  11.745  19.579  0.00  0.00    +0.000 N 
ATOM     11  C   UNL     1      -2.882  11.546  18.533  0.00  0.00    +0.000 A 
ATOM     12  C   UNL     1      -2.225  10.784  17.566  0.00  0.00    +0.000 A 
ATOM     13  C   UNL     1      -0.944  10.413  18.138  0.00  0.00    +0.000 A 
ATOM     14  C   UNL     1       0.168   9.576  17.824  0.00  0.00    +0.000 A 
ATOM     15  H   UNL     1      -2.223  12.258  20.427  0.00  0.00    +0.000 HD
BRANCH  12  16
ATOM     16  C   UNL     1      -2.866  10.417  16.264  0.00  0.00    +0.000 C 
ATOM     17  F   UNL     1      -2.481  11.259  15.268  0.00  0.00    +0.000 F 
ATOM     18  F   UNL     1      -2.515   9.168  15.860  0.00  0.00    +0.000 F 
ATOM     19  F   UNL     1      -4.224  10.459  16.299  0.00  0.00    +0.000 F 
ENDBRANCH  12  16
ENDBRANCH   3   6
BRANCH   1  25
ATOM     20  F   UNL     1       1.618   1.631  19.525  0.00  0.00    +0.000 F 
ATOM     21  C   UNL     1       1.540   2.937  19.846  0.00  0.00    +0.000 C 
ATOM     22  F   UNL     1       0.241   3.301  19.762  0.00  0.00    +0.000 F 
ATOM     23  C   UNL     1       2.062   3.202  21.240  0.00  0.00    +0.000 C 
ATOM     24  C   UNL     1       2.312   4.707  21.199  0.00  0.00    +0.000 C 
ATOM     25  C   UNL     1       2.926   4.922  19.804  0.00  0.00    +0.000 C 
ATOM     26  C   UNL     1       2.381   3.788  18.919  0.00  0.00    +0.000 C 
ENDBRANCH   1  25
BRANCH   5  27
ATOM     27  C   UNL     1       4.389   5.845  17.214  0.00  0.00    +0.000 C 
ATOM     28  C   UNL     1       4.820   6.535  15.904  0.00  0.00    +0.000 C 
ATOM     29  N   UNL     1       6.177   5.963  16.046  0.00  0.00    +0.000 NA
ATOM     30  C   UNL     1       5.904   5.808  17.507  0.00  0.00    +0.000 C 
BRANCH  29  31
ATOM     31  C   UNL     1       6.346   4.653  15.390  0.00  0.00    +0.000 C 
ATOM     32  C   UNL     1       5.419   4.432  14.179  0.00  0.00    +0.000 C 
ATOM     33  O   UNL     1       6.566   4.076  13.354  0.00  0.00    +0.000 OA
ATOM     34  C   UNL     1       7.419   4.805  14.290  0.00  0.00    +0.000 C 
ENDBRANCH  29  31
ENDBRANCH   5  27
TORSDOF 5
ENDMDL
MODEL 2
REMARK VINA RESULT:      -9.4      4.520      8.306
REMARK  Name = 
REMARK  5 active torsions:
REMARK  status: ('A' for Active; 'I' for Inactive)
REMARK    1  A    between atoms: C_6  and  N_7
REMARK    2  A    between atoms: C_9  and  C_10
REMARK    3  A    between atoms: C_16  and  C_17
REMARK    4  A    between atoms: C_24  and  C_25
REMARK    5  A    between atoms: N_27  and  C_28
REMARK                            x       y       z     vdW  Elec       q    Type
REMARK                         _______ _______ _______ _____ _____    ______ ____
ROOT
ATOM      1  N   UNL     1       2.564   5.489  18.880  0.00  0.00    +0.000 N 
ATOM      2  N   UNL     1       3.345   4.806  18.010  0.00  0.00    +0.000 NA
ATOM      3  C   UNL     1       4.034   5.761  17.343  0.00  0.00    +0.000 A 
ATOM      4  C   UNL     1       3.585   7.050  17.713  0.00  0.00    +0.000 A 
ATOM      5  C   UNL     1       2.770   6.839  18.808  0.00  0.00    +0.000 A 
ENDROOT
BRANCH   3   6
ATOM      6  C   UNL     1       5.146   5.390  16.459  0.00  0.00    +0.000 A 
ATOM      7  C   UNL     1       6.365   6.042  16.645  0.00  0.00    +0.000 A 
ATOM      8  N   UNL     1       7.426   5.999  15.817  0.00  0.00    +0.000 NA
ATOM      9  C   UNL     1       7.171   5.330  14.684  0.00  0.00    +0.000 A 
ATOM     10  N   UNL     1       8.039   5.338  13.637  0.00  0.00    +0.000 N 
ATOM     11  C   UNL     1       7.488   4.683  12.579  0.00  0.00    +0.000 A 
ATOM     12  C   UNL     1       6.274   4.127  12.981  0.00  0.00    +0.000 A 
ATOM     13  C   UNL     1       6.042   4.588  14.338  0.00  0.00    +0.000 A 
ATOM     14  C   UNL     1       5.008   4.551  15.321  0.00  0.00    +0.000 A 
ATOM     15  H   UNL     1       8.914   5.839  13.657  0.00  0.00    +0.000 HD
BRANCH  12  16
ATOM     16  C   UNL     1       5.426   3.304  12.062  0.00  0.00    +0.000 C 
ATOM     17  F   UNL     1       5.276   3.908  10.853  0.00  0.00    +0.000 F 
ATOM     18  F   UNL     1       5.982   2.089  11.811  0.00  0.00    +0.000 F 
ATOM     19  F   UNL     1       4.173   3.079  12.538  0.00  0.00    +0.000 F 
ENDBRANCH  12  16
ENDBRANCH   3   6
BRANCH   1  25
ATOM     20  F   UNL     1       1.774   2.714  22.684  0.00  0.00    +0.000 F 
ATOM     21  C   UNL     1       1.926   2.968  21.370  0.00  0.00    +0.000 C 
ATOM     22  F   UNL     1       2.847   2.102  20.892  0.00  0.00    +0.000 F 
ATOM     23  C   UNL     1       0.626   2.810  20.616  0.00  0.00    +0.000 C 
ATOM     24  C   UNL     1       0.918   3.571  19.327  0.00  0.00    +0.000 C 
ATOM     25  C   UNL     1       1.685   4.811  19.819  0.00  0.00    +0.000 C 
ATOM     26  C   UNL     1       2.376   4.394  21.129  0.00  0.00    +0.000 C 
ENDBRANCH   1  25
BRANCH   5  27
ATOM     27  C   UNL     1       2.311   7.863  19.828  0.00  0.00    +0.000 C 
ATOM     28  C   UNL     1       1.429   8.994  19.260  0.00  0.00    +0.000 C 
ATOM     29  N   UNL     1       0.550   8.906  20.447  0.00  0.00    +0.000 NA
ATOM     30  C   UNL     1       1.058   7.516  20.658  0.00  0.00    +0.000 C 
BRANCH  29  31
ATOM     31  C   UNL     1       0.948   9.796  21.553  0.00  0.00    +0.000 C 
ATOM     32  C   UNL     1       0.188  11.137  21.587  0.00  0.00    +0.000 C 
ATOM     33  O   UNL     1      -0.168  10.911  22.981  0.00  0.00    +0.000 OA
ATOM     34  C   UNL     1       0.046   9.482  22.766  0.00  0.00    +0.000 C 
ENDBRANCH  29  31
ENDBRANCH   5  27
TORSDOF 5
ENDMDL
MODEL 3
REMARK VINA RESULT:      -9.4      2.957      3.378
REMARK  Name = 
REMARK  5 active torsions:
REMARK  status: ('A' for Active; 'I' for Inactive)
REMARK    1  A    between atoms: C_6  and  N_7
REMARK    2  A    between atoms: C_9  and  C_10
REMARK    3  A    between atoms: C_16  and  C_17
REMARK    4  A    between atoms: C_24  and  C_25
REMARK    5  A    between atoms: N_27  and  C_28
REMARK                            x       y       z     vdW  Elec       q    Type
REMARK                         _______ _______ _______ _____ _____    ______ ____
ROOT
ATOM      1  N   UNL     1       3.072   5.124  17.978  0.00  0.00    +0.000 N 
ATOM      2  N   UNL     1       2.206   5.967  18.588  0.00  0.00    +0.000 NA
ATOM      3  C   UNL     1       2.743   7.198  18.413  0.00  0.00    +0.000 A 
ATOM      4  C   UNL     1       4.014   7.104  17.801  0.00  0.00    +0.000 A 
ATOM      5  C   UNL     1       4.113   5.789  17.392  0.00  0.00    +0.000 A 
ENDROOT
BRANCH   3   6
ATOM      6  C   UNL     1       1.970   8.398  18.757  0.00  0.00    +0.000 A 
ATOM      7  C   UNL     1       2.177   9.543  17.988  0.00  0.00    +0.000 A 
ATOM      8  N   UNL     1       1.733  10.782  18.268  0.00  0.00    +0.000 NA
ATOM      9  C   UNL     1       1.132  10.858  19.463  0.00  0.00    +0.000 A 
ATOM     10  N   UNL     1       0.789  12.052  20.018  0.00  0.00    +0.000 N 
ATOM     11  C   UNL     1       0.306  11.852  21.274  0.00  0.00    +0.000 A 
ATOM     12  C   UNL     1       0.217  10.480  21.506  0.00  0.00    +0.000 A 
ATOM     13  C   UNL     1       0.800   9.830  20.347  0.00  0.00    +0.000 A 
ATOM     14  C   UNL     1       1.169   8.518  19.924  0.00  0.00    +0.000 A 
ATOM     15  H   UNL     1       0.963  12.935  19.563  0.00  0.00    +0.000 HD
BRANCH  12  16
ATOM     16  C   UNL     1      -0.316   9.916  22.786  0.00  0.00    +0.000 C 
ATOM     17  F   UNL     1      -0.997   8.759  22.570  0.00  0.00    +0.000 F 
ATOM     18  F   UNL     1       0.678   9.612  23.660  0.00  0.00    +0.000 F 
ATOM     19  F   UNL     1      -1.174  10.752  23.429  0.00  0.00    +0.000 F 
ENDBRANCH  12  16
ENDBRANCH   3   6
BRANCH   1  25
ATOM     20  F   UNL     1       0.390   1.247  18.733  0.00  0.00    +0.000 F 
ATOM     21  C   UNL     1       1.344   2.148  19.037  0.00  0.00    +0.000 C 
ATOM     22  F   UNL     1       1.095   2.601  20.285  0.00  0.00    +0.000 F 
ATOM     23  C   UNL     1       2.727   1.541  18.972  0.00  0.00    +0.000 C 
ATOM     24  C   UNL     1       3.609   2.781  18.879  0.00  0.00    +0.000 C 
ATOM     25  C   UNL     1       2.832   3.692  17.912  0.00  0.00    +0.000 C 
ATOM     26  C   UNL     1       1.351   3.301  18.054  0.00  0.00    +0.000 C 
ENDBRANCH   1  25
BRANCH   5  27
ATOM     27  C   UNL     1       5.079   5.209  16.378  0.00  0.00    +0.000 C 
ATOM     28  C   UNL     1       5.185   5.999  15.057  0.00  0.00    +0.000 C 
ATOM     29  N   UNL     1       6.652   5.810  15.060  0.00  0.00    +0.000 NA
ATOM     30  C   UNL     1       6.570   5.578  16.534  0.00  0.00    +0.000 C 
BRANCH  29  31
ATOM     31  C   UNL     1       7.102   4.598  14.351  0.00  0.00    +0.000 C 
ATOM     32  C   UNL     1       6.059   4.018  13.375  0.00  0.00    +0.000 C 
ATOM     33  O   UNL     1       7.046   4.021  12.304  0.00  0.00    +0.000 OA
ATOM     34  C   UNL     1       7.789   5.040  13.041  0.00  0.00    +0.000 C 
ENDBRANCH  29  31
ENDBRANCH   5  27
TORSDOF 5
ENDMDL
MODEL 4
REMARK VINA RESULT:      -9.0      2.891      3.381
REMARK  Name = 
REMARK  5 active torsions:
REMARK  status: ('A' for Active; 'I' for Inactive)
REMARK    1  A    between atoms: C_6  and  N_7
REMARK    2  A    between atoms: C_9  and  C_10
REMARK    3  A    between atoms: C_16  and  C_17
REMARK    4  A    between atoms: C_24  and  C_25
REMARK    5  A    between atoms: N_27  and  C_28
REMARK                            x       y       z     vdW  Elec       q    Type
REMARK                         _______ _______ _______ _____ _____    ______ ____
ROOT
ATOM      1  N   UNL     1       3.958   5.391  18.691  0.00  0.00    +0.000 N 
ATOM      2  N   UNL     1       3.065   6.185  19.326  0.00  0.00    +0.000 NA
ATOM      3  C   UNL     1       3.044   7.328  18.601  0.00  0.00    +0.000 A 
ATOM      4  C   UNL     1       4.024   7.290  17.582  0.00  0.00    +0.000 A 
ATOM      5  C   UNL     1       4.468   5.982  17.569  0.00  0.00    +0.000 A 
ENDROOT
BRANCH   3   6
ATOM      6  C   UNL     1       2.026   8.353  18.865  0.00  0.00    +0.000 A 
ATOM      7  C   UNL     1       1.953   9.433  17.985  0.00  0.00    +0.000 A 
ATOM      8  N   UNL     1       1.245  10.563  18.167  0.00  0.00    +0.000 NA
ATOM      9  C   UNL     1       0.667  10.621  19.375  0.00  0.00    +0.000 A 
ATOM     10  N   UNL     1       0.074  11.757  19.831  0.00  0.00    +0.000 N 
ATOM     11  C   UNL     1      -0.326  11.581  21.119  0.00  0.00    +0.000 A 
ATOM     12  C   UNL     1      -0.096  10.254  21.481  0.00  0.00    +0.000 A 
ATOM     13  C   UNL     1       0.595   9.639  20.363  0.00  0.00    +0.000 A 
ATOM     14  C   UNL     1       1.243   8.407  20.049  0.00  0.00    +0.000 A 
ATOM     15  H   UNL     1       0.033  12.607  19.289  0.00  0.00    +0.000 HD
BRANCH  12  16
ATOM     16  C   UNL     1      -0.462   9.716  22.829  0.00  0.00    +0.000 C 
ATOM     17  F   UNL     1       0.636   9.574  23.619  0.00  0.00    +0.000 F 
ATOM     18  F   UNL     1      -1.303  10.548  23.497  0.00  0.00    +0.000 F 
ATOM     19  F   UNL     1      -1.061   8.497  22.781  0.00  0.00    +0.000 F 
ENDBRANCH  12  16
ENDBRANCH   3   6
BRANCH   1  25
ATOM     20  F   UNL     1       3.781   0.643  18.214  0.00  0.00    +0.000 F 
ATOM     21  C   UNL     1       3.354   1.841  18.657  0.00  0.00    +0.000 C 
ATOM     22  F   UNL     1       2.047   1.953  18.332  0.00  0.00    +0.000 F 
ATOM     23  C   UNL     1       3.530   1.980  20.151  0.00  0.00    +0.000 C 
ATOM     24  C   UNL     1       3.440   3.491  20.338  0.00  0.00    +0.000 C 
ATOM     25  C   UNL     1       4.244   4.039  19.145  0.00  0.00    +0.000 C 
ATOM     26  C   UNL     1       4.145   2.976  18.038  0.00  0.00    +0.000 C 
ENDBRANCH   1  25
BRANCH   5  27
ATOM     27  C   UNL     1       5.237   5.281  16.466  0.00  0.00    +0.000 C 
ATOM     28  C   UNL     1       5.151   5.959  15.083  0.00  0.00    +0.000 C 
ATOM     29  N   UNL     1       6.593   5.705  14.867  0.00  0.00    +0.000 NA
ATOM     30  C   UNL     1       6.744   5.593  16.350  0.00  0.00    +0.000 C 
BRANCH  29  31
ATOM     31  C   UNL     1       6.881   4.422  14.200  0.00  0.00    +0.000 C 
ATOM     32  C   UNL     1       5.767   3.943  13.249  0.00  0.00    +0.000 C 
ATOM     33  O   UNL     1       6.738   3.784  12.176  0.00  0.00    +0.000 OA
ATOM     34  C   UNL     1       7.609   4.727  12.874  0.00  0.00    +0.000 C 
ENDBRANCH  29  31
ENDBRANCH   5  27
TORSDOF 5
ENDMDL
MODEL 5
REMARK VINA RESULT:      -8.9      2.854      3.343
REMARK  Name = 
REMARK  5 active torsions:
REMARK  status: ('A' for Active; 'I' for Inactive)
REMARK    1  A    between atoms: C_6  and  N_7
REMARK    2  A    between atoms: C_9  and  C_10
REMARK    3  A    between atoms: C_16  and  C_17
REMARK    4  A    between atoms: C_24  and  C_25
REMARK    5  A    between atoms: N_27  and  C_28
REMARK                            x       y       z     vdW  Elec       q    Type
REMARK                         _______ _______ _______ _____ _____    ______ ____
ROOT
ATOM      1  N   UNL     1       3.460   5.286  18.508  0.00  0.00    +0.000 N 
ATOM      2  N   UNL     1       2.622   6.145  19.133  0.00  0.00    +0.000 NA
ATOM      3  C   UNL     1       2.870   7.346  18.559  0.00  0.00    +0.000 A 
ATOM      4  C   UNL     1       3.959   7.254  17.661  0.00  0.00    +0.000 A 
ATOM      5  C   UNL     1       4.197   5.900  17.534  0.00  0.00    +0.000 A 
ENDROOT
BRANCH   3   6
ATOM      6  C   UNL     1       1.993   8.492  18.833  0.00  0.00    +0.000 A 
ATOM      7  C   UNL     1       2.107   9.606  18.001  0.00  0.00    +0.000 A 
ATOM      8  N   UNL     1       1.555  10.816  18.209  0.00  0.00    +0.000 NA
ATOM      9  C   UNL     1       0.940  10.906  19.397  0.00  0.00    +0.000 A 
ATOM     10  N   UNL     1       0.492  12.094  19.883  0.00  0.00    +0.000 N 
ATOM     11  C   UNL     1       0.017  11.924  21.146  0.00  0.00    +0.000 A 
ATOM     12  C   UNL     1       0.046  10.564  21.455  0.00  0.00    +0.000 A 
ATOM     13  C   UNL     1       0.692   9.904  20.336  0.00  0.00    +0.000 A 
ATOM     14  C   UNL     1       1.176   8.607  19.989  0.00  0.00    +0.000 A 
ATOM     15  H   UNL     1       0.592  12.962  19.380  0.00  0.00    +0.000 HD
BRANCH  12  16
ATOM     16  C   UNL     1      -0.447  10.029  22.763  0.00  0.00    +0.000 C 
ATOM     17  F   UNL     1       0.585   9.764  23.609  0.00  0.00    +0.000 F 
ATOM     18  F   UNL     1      -1.244  10.920  23.408  0.00  0.00    +0.000 F 
ATOM     19  F   UNL     1      -1.152   8.873  22.644  0.00  0.00    +0.000 F 
ENDBRANCH  12  16
ENDBRANCH   3   6
BRANCH   1  25
ATOM     20  F   UNL     1       1.842   1.450  20.846  0.00  0.00    +0.000 F 
ATOM     21  C   UNL     1       2.662   2.499  20.644  0.00  0.00    +0.000 C 
ATOM     22  F   UNL     1       2.689   3.221  21.785  0.00  0.00    +0.000 F 
ATOM     23  C   UNL     1       4.060   2.053  20.280  0.00  0.00    +0.000 C 
ATOM     24  C   UNL     1       4.642   3.321  19.662  0.00  0.00    +0.000 C 
ATOM     25  C   UNL     1       3.475   3.865  18.817  0.00  0.00    +0.000 C 
ATOM     26  C   UNL     1       2.188   3.360  19.492  0.00  0.00    +0.000 C 
ENDBRANCH   1  25
BRANCH   5  27
ATOM     27  C   UNL     1       4.989   5.202  16.445  0.00  0.00    +0.000 C 
ATOM     28  C   UNL     1       5.110   5.989  15.124  0.00  0.00    +0.000 C 
ATOM     29  N   UNL     1       6.530   5.589  15.014  0.00  0.00    +0.000 NA
ATOM     30  C   UNL     1       6.525   5.347  16.489  0.00  0.00    +0.000 C 
BRANCH  29  31
ATOM     31  C   UNL     1       6.743   4.336  14.266  0.00  0.00    +0.000 C 
ATOM     32  C   UNL     1       5.637   4.021  13.240  0.00  0.00    +0.000 C 
ATOM     33  O   UNL     1       6.640   3.856  12.196  0.00  0.00    +0.000 OA
ATOM     34  C   UNL     1       7.552   4.671  12.995  0.00  0.00    +0.000 C 
ENDBRANCH  29  31
ENDBRANCH   5  27
TORSDOF 5
ENDMDL
MODEL 6
REMARK VINA RESULT:      -8.8      1.580      1.945
REMARK  Name = 
REMARK  5 active torsions:
REMARK  status: ('A' for Active; 'I' for Inactive)
REMARK    1  A    between atoms: C_6  and  N_7
REMARK    2  A    between atoms: C_9  and  C_10
REMARK    3  A    between atoms: C_16  and  C_17
REMARK    4  A    between atoms: C_24  and  C_25
REMARK    5  A    between atoms: N_27  and  C_28
REMARK                            x       y       z     vdW  Elec       q    Type
REMARK                         _______ _______ _______ _____ _____    ______ ____
ROOT
ATOM      1  N   UNL     1       1.683   6.194  20.281  0.00  0.00    +0.000 N 
ATOM      2  N   UNL     1       0.895   7.205  20.716  0.00  0.00    +0.000 NA
ATOM      3  C   UNL     1       1.417   8.317  20.148  0.00  0.00    +0.000 A 
ATOM      4  C   UNL     1       2.612   8.009  19.457  0.00  0.00    +0.000 A 
ATOM      5  C   UNL     1       2.657   6.630  19.426  0.00  0.00    +0.000 A 
ENDROOT
BRANCH   3   6
ATOM      6  C   UNL     1       0.694   9.593  20.219  0.00  0.00    +0.000 A 
ATOM      7  C   UNL     1       0.844  10.357  21.376  0.00  0.00    +0.000 A 
ATOM      8  N   UNL     1       0.114  11.435  21.720  0.00  0.00    +0.000 NA
ATOM      9  C   UNL     1      -0.894  11.669  20.868  0.00  0.00    +0.000 A 
ATOM     10  N   UNL     1      -1.861  12.586  21.139  0.00  0.00    +0.000 N 
ATOM     11  C   UNL     1      -2.818  12.541  20.173  0.00  0.00    +0.000 A 
ATOM     12  C   UNL     1      -2.409  11.654  19.178  0.00  0.00    +0.000 A 
ATOM     13  C   UNL     1      -1.178  11.048  19.651  0.00  0.00    +0.000 A 
ATOM     14  C   UNL     1      -0.280  10.007  19.271  0.00  0.00    +0.000 A 
ATOM     15  H   UNL     1      -1.871  13.136  21.983  0.00  0.00    +0.000 HD
BRANCH  12  16
ATOM     16  C   UNL     1      -3.220  11.402  17.945  0.00  0.00    +0.000 C 
ATOM     17  F   UNL     1      -4.350  12.160  17.933  0.00  0.00    +0.000 F 
ATOM     18  F   UNL     1      -2.538  11.722  16.814  0.00  0.00    +0.000 F 
ATOM     19  F   UNL     1      -3.623  10.110  17.818  0.00  0.00    +0.000 F 
ENDBRANCH  12  16
ENDBRANCH   3   6
BRANCH   1  25
ATOM     20  F   UNL     1       3.073   1.918  21.890  0.00  0.00    +0.000 F 
ATOM     21  C   UNL     1       2.794   2.833  20.941  0.00  0.00    +0.000 C 
ATOM     22  F   UNL     1       3.863   2.905  20.118  0.00  0.00    +0.000 F 
ATOM     23  C   UNL     1       1.558   2.463  20.154  0.00  0.00    +0.000 C 
ATOM     24  C   UNL     1       1.186   3.796  19.512  0.00  0.00    +0.000 C 
ATOM     25  C   UNL     1       1.427   4.809  20.645  0.00  0.00    +0.000 C 
ATOM     26  C   UNL     1       2.509   4.192  21.547  0.00  0.00    +0.000 C 
ENDBRANCH   1  25
BRANCH   5  27
ATOM     27  C   UNL     1       3.501   5.754  18.521  0.00  0.00    +0.000 C 
ATOM     28  C   UNL     1       4.079   6.469  17.282  0.00  0.00    +0.000 C 
ATOM     29  N   UNL     1       5.368   5.769  17.477  0.00  0.00    +0.000 NA
ATOM     30  C   UNL     1       4.983   5.565  18.907  0.00  0.00    +0.000 C 
BRANCH  29  31
ATOM     31  C   UNL     1       5.466   4.485  16.760  0.00  0.00    +0.000 C 
ATOM     32  C   UNL     1       5.294   4.603  15.233  0.00  0.00    +0.000 C 
ATOM     33  O   UNL     1       6.542   3.879  15.027  0.00  0.00    +0.000 OA
ATOM     34  C   UNL     1       6.946   4.265  16.377  0.00  0.00    +0.000 C 
ENDBRANCH  29  31
ENDBRANCH   5  27
TORSDOF 5
ENDMDL
MODEL 7
REMARK VINA RESULT:      -8.8      2.589      3.011
REMARK  Name = 
REMARK  5 active torsions:
REMARK  status: ('A' for Active; 'I' for Inactive)
REMARK    1  A    between atoms: C_6  and  N_7
REMARK    2  A    between atoms: C_9  and  C_10
REMARK    3  A    between atoms: C_16  and  C_17
REMARK    4  A    between atoms: C_24  and  C_25
REMARK    5  A    between atoms: N_27  and  C_28
REMARK                            x       y       z     vdW  Elec       q    Type
REMARK                         _______ _______ _______ _____ _____    ______ ____
ROOT
ATOM      1  N   UNL     1       2.665   6.106  19.552  0.00  0.00    +0.000 N 
ATOM      2  N   UNL     1       1.731   6.972  20.013  0.00  0.00    +0.000 NA
ATOM      3  C   UNL     1       1.840   8.056  19.210  0.00  0.00    +0.000 A 
ATOM      4  C   UNL     1       2.934   7.912  18.325  0.00  0.00    +0.000 A 
ATOM      5  C   UNL     1       3.327   6.596  18.461  0.00  0.00    +0.000 A 
ENDROOT
BRANCH   3   6
ATOM      6  C   UNL     1       0.837   9.126  19.272  0.00  0.00    +0.000 A 
ATOM      7  C   UNL     1       0.659   9.911  18.133  0.00  0.00    +0.000 A 
ATOM      8  N   UNL     1      -0.047  11.055  18.056  0.00  0.00    +0.000 NA
ATOM      9  C   UNL     1      -0.503  11.462  19.249  0.00  0.00    +0.000 A 
ATOM     10  N   UNL     1      -1.066  12.688  19.419  0.00  0.00    +0.000 N 
ATOM     11  C   UNL     1      -1.333  12.891  20.738  0.00  0.00    +0.000 A 
ATOM     12  C   UNL     1      -1.047  11.719  21.437  0.00  0.00    +0.000 A 
ATOM     13  C   UNL     1      -0.460  10.803  20.477  0.00  0.00    +0.000 A 
ATOM     14  C   UNL     1       0.174   9.524  20.464  0.00  0.00    +0.000 A 
ATOM     15  H   UNL     1      -1.174  13.349  18.666  0.00  0.00    +0.000 HD
BRANCH  12  16
ATOM     16  C   UNL     1      -1.268  11.591  22.912  0.00  0.00    +0.000 C 
ATOM     17  F   UNL     1      -0.853  12.706  23.573  0.00  0.00    +0.000 F 
ATOM     18  F   UNL     1      -2.584  11.440  23.217  0.00  0.00    +0.000 F 
ATOM     19  F   UNL     1      -0.605  10.545  23.470  0.00  0.00    +0.000 F 
ENDBRANCH  12  16
ENDBRANCH   3   6
BRANCH   1  25
ATOM     20  F   UNL     1       1.843   1.405  19.706  0.00  0.00    +0.000 F 
ATOM     21  C   UNL     1       1.631   2.692  20.043  0.00  0.00    +0.000 C 
ATOM     22  F   UNL     1       0.315   2.947  19.871  0.00  0.00    +0.000 F 
ATOM     23  C   UNL     1       2.030   2.968  21.474  0.00  0.00    +0.000 C 
ATOM     24  C   UNL     1       2.153   4.488  21.478  0.00  0.00    +0.000 C 
ATOM     25  C   UNL     1       2.843   4.786  20.135  0.00  0.00    +0.000 C 
ATOM     26  C   UNL     1       2.461   3.632  19.193  0.00  0.00    +0.000 C 
ENDBRANCH   1  25
BRANCH   5  27
ATOM     27  C   UNL     1       4.197   5.790  17.515  0.00  0.00    +0.000 C 
ATOM     28  C   UNL     1       4.717   6.570  16.290  0.00  0.00    +0.000 C 
ATOM     29  N   UNL     1       6.042   5.928  16.442  0.00  0.00    +0.000 NA
ATOM     30  C   UNL     1       5.693   5.662  17.871  0.00  0.00    +0.000 C 
BRANCH  29  31
ATOM     31  C   UNL     1       6.189   4.673  15.683  0.00  0.00    +0.000 C 
ATOM     32  C   UNL     1       5.422   4.652  14.346  0.00  0.00    +0.000 C 
ATOM     33  O   UNL     1       6.638   4.264  13.644  0.00  0.00    +0.000 OA
ATOM     34  C   UNL     1       7.411   4.819  14.752  0.00  0.00    +0.000 C 
ENDBRANCH  29  31
ENDBRANCH   5  27
TORSDOF 5
ENDMDL
MODEL 8
REMARK VINA RESULT:      -8.7      3.824      9.540
REMARK  Name = 
REMARK  5 active torsions:
REMARK  status: ('A' for Active; 'I' for Inactive)
REMARK    1  A    between atoms: C_6  and  N_7
REMARK    2  A    between atoms: C_9  and  C_10
REMARK    3  A    between atoms: C_16  and  C_17
REMARK    4  A    between atoms: C_24  and  C_25
REMARK    5  A    between atoms: N_27  and  C_28
REMARK                            x       y       z     vdW  Elec       q    Type
REMARK                         _______ _______ _______ _____ _____    ______ ____
ROOT
ATOM      1  N   UNL     1      -0.548  10.592  18.439  0.00  0.00    +0.000 N 
ATOM      2  N   UNL     1       0.286   9.643  17.954  0.00  0.00    +0.000 NA
ATOM      3  C   UNL     1       1.138   9.381  18.973  0.00  0.00    +0.000 A 
ATOM      4  C   UNL     1       0.909  10.264  20.054  0.00  0.00    +0.000 A 
ATOM      5  C   UNL     1      -0.273  10.905  19.741  0.00  0.00    +0.000 A 
ENDROOT
BRANCH   3   6
ATOM      6  C   UNL     1       2.060   8.241  18.892  0.00  0.00    +0.000 A 
ATOM      7  C   UNL     1       2.951   8.205  17.820  0.00  0.00    +0.000 A 
ATOM      8  N   UNL     1       3.718   7.160  17.456  0.00  0.00    +0.000 NA
ATOM      9  C   UNL     1       3.468   6.059  18.177  0.00  0.00    +0.000 A 
ATOM     10  N   UNL     1       3.990   4.849  17.842  0.00  0.00    +0.000 N 
ATOM     11  C   UNL     1       3.489   3.889  18.665  0.00  0.00    +0.000 A 
ATOM     12  C   UNL     1       2.707   4.502  19.643  0.00  0.00    +0.000 A 
ATOM     13  C   UNL     1       2.652   5.911  19.300  0.00  0.00    +0.000 A 
ATOM     14  C   UNL     1       1.977   7.094  19.726  0.00  0.00    +0.000 A 
ATOM     15  H   UNL     1       4.591   4.716  17.043  0.00  0.00    +0.000 HD
BRANCH  12  16
ATOM     16  C   UNL     1       2.037   3.728  20.735  0.00  0.00    +0.000 C 
ATOM     17  F   UNL     1       2.384   4.201  21.962  0.00  0.00    +0.000 F 
ATOM     18  F   UNL     1       0.683   3.820  20.665  0.00  0.00    +0.000 F 
ATOM     19  F   UNL     1       2.349   2.405  20.731  0.00  0.00    +0.000 F 
ENDBRANCH  12  16
ENDBRANCH   3   6
BRANCH   1  25
ATOM     20  F   UNL     1      -5.151  11.691  17.800  0.00  0.00    +0.000 F 
ATOM     21  C   UNL     1      -4.059  10.908  17.702  0.00  0.00    +0.000 C 
ATOM     22  F   UNL     1      -4.385   9.690  18.187  0.00  0.00    +0.000 F 
ATOM     23  C   UNL     1      -3.584  10.787  16.273  0.00  0.00    +0.000 C 
ATOM     24  C   UNL     1      -2.153  10.292  16.459  0.00  0.00    +0.000 C 
ATOM     25  C   UNL     1      -1.648  11.125  17.651  0.00  0.00    +0.000 C 
ATOM     26  C   UNL     1      -2.893  11.484  18.479  0.00  0.00    +0.000 C 
ENDBRANCH   1  25
BRANCH   5  27
ATOM     27  C   UNL     1      -1.179  11.677  20.681  0.00  0.00    +0.000 C 
ATOM     28  C   UNL     1      -1.105  11.241  22.158  0.00  0.00    +0.000 C 
ATOM     29  N   UNL     1      -1.142  12.658  22.580  0.00  0.00    +0.000 NA
ATOM     30  C   UNL     1      -0.653  13.025  21.216  0.00  0.00    +0.000 C 
BRANCH  29  31
ATOM     31  C   UNL     1      -2.502  13.177  22.820  0.00  0.00    +0.000 C 
ATOM     32  C   UNL     1      -3.297  12.389  23.879  0.00  0.00    +0.000 C 
ATOM     33  O   UNL     1      -3.583  13.624  24.597  0.00  0.00    +0.000 OA
ATOM     34  C   UNL     1      -2.419  14.226  23.950  0.00  0.00    +0.000 C 
ENDBRANCH  29  31
ENDBRANCH   5  27
TORSDOF 5
ENDMDL
MODEL 9
REMARK VINA RESULT:      -8.7      1.400      1.689
REMARK  Name = 
REMARK  5 active torsions:
REMARK  status: ('A' for Active; 'I' for Inactive)
REMARK    1  A    between atoms: C_6  and  N_7
REMARK    2  A    between atoms: C_9  and  C_10
REMARK    3  A    between atoms: C_16  and  C_17
REMARK    4  A    between atoms: C_24  and  C_25
REMARK    5  A    between atoms: N_27  and  C_28
REMARK                            x       y       z     vdW  Elec       q    Type
REMARK                         _______ _______ _______ _____ _____    ______ ____
ROOT
ATOM      1  N   UNL     1       2.662   6.396  18.674  0.00  0.00    +0.000 N 
ATOM      2  N   UNL     1       1.744   7.334  19.005  0.00  0.00    +0.000 NA
ATOM      3  C   UNL     1       2.100   8.430  18.295  0.00  0.00    +0.000 A 
ATOM      4  C   UNL     1       3.321   8.209  17.617  0.00  0.00    +0.000 A 
ATOM      5  C   UNL     1       3.559   6.855  17.750  0.00  0.00    +0.000 A 
ENDROOT
BRANCH   3   6
ATOM      6  C   UNL     1       1.206   9.594  18.231  0.00  0.00    +0.000 A 
ATOM      7  C   UNL     1       1.647  10.780  18.817  0.00  0.00    +0.000 A 
ATOM      8  N   UNL     1       0.904  11.879  19.046  0.00  0.00    +0.000 NA
ATOM      9  C   UNL     1      -0.390  11.699  18.751  0.00  0.00    +0.000 A 
ATOM     10  N   UNL     1      -1.337  12.614  19.093  0.00  0.00    +0.000 N 
ATOM     11  C   UNL     1      -2.571  12.135  18.782  0.00  0.00    +0.000 A 
ATOM     12  C   UNL     1      -2.424  10.922  18.109  0.00  0.00    +0.000 A 
ATOM     13  C   UNL     1      -1.007  10.612  18.130  0.00  0.00    +0.000 A 
ATOM     14  C   UNL     1      -0.139   9.536  17.777  0.00  0.00    +0.000 A 
ATOM     15  H   UNL     1      -1.118  13.470  19.579  0.00  0.00    +0.000 HD
BRANCH  12  16
ATOM     16  C   UNL     1      -3.594  10.146  17.590  0.00  0.00    +0.000 C 
ATOM     17  F   UNL     1      -4.771  10.715  17.967  0.00  0.00    +0.000 F 
ATOM     18  F   UNL     1      -3.614  10.104  16.232  0.00  0.00    +0.000 F 
ATOM     19  F   UNL     1      -3.630   8.861  18.031  0.00  0.00    +0.000 F 
ENDBRANCH  12  16
ENDBRANCH   3   6
BRANCH   1  25
ATOM     20  F   UNL     1       4.681   2.245  19.897  0.00  0.00    +0.000 F 
ATOM     21  C   UNL     1       4.026   3.088  19.075  0.00  0.00    +0.000 C 
ATOM     22  F   UNL     1       4.678   3.092  17.891  0.00  0.00    +0.000 F 
ATOM     23  C   UNL     1       2.589   2.668  18.873  0.00  0.00    +0.000 C 
ATOM     24  C   UNL     1       1.959   3.950  18.339  0.00  0.00    +0.000 C 
ATOM     25  C   UNL     1       2.606   5.045  19.207  0.00  0.00    +0.000 C 
ATOM     26  C   UNL     1       3.972   4.490  19.646  0.00  0.00    +0.000 C 
ENDBRANCH   1  25
BRANCH   5  27
ATOM     27  C   UNL     1       4.510   6.001  16.935  0.00  0.00    +0.000 C 
ATOM     28  C   UNL     1       4.875   6.577  15.551  0.00  0.00    +0.000 C 
ATOM     29  N   UNL     1       6.284   6.170  15.752  0.00  0.00    +0.000 NA
ATOM     30  C   UNL     1       6.019   6.158  17.223  0.00  0.00    +0.000 C 
BRANCH  29  31
ATOM     31  C   UNL     1       6.594   4.818  15.251  0.00  0.00    +0.000 C 
ATOM     32  C   UNL     1       5.575   4.277  14.229  0.00  0.00    +0.000 C 
ATOM     33  O   UNL     1       6.654   3.982  13.296  0.00  0.00    +0.000 OA
ATOM     34  C   UNL     1       7.478   4.966  13.995  0.00  0.00    +0.000 C 
ENDBRANCH  29  31
ENDBRANCH   5  27
TORSDOF 5
ENDMDL
