MODEL 1
REMARK VINA RESULT:      -8.0      0.000      0.000
REMARK  Name = 
REMARK  12 active torsions:
REMARK  status: ('A' for Active; 'I' for Inactive)
REMARK    1  A    between atoms: C_1  and  S_2
REMARK    2  A    between atoms: S_2  and  C_3
REMARK    3  A    between atoms: C_6  and  C_7
REMARK    4  A    between atoms: C_9  and  C_10
REMARK    5  A    between atoms: C_11  and  C_12
REMARK    6  A    between atoms: C_12  and  C_13
REMARK    7  A    between atoms: C_13  and  O_15
REMARK    8  A    between atoms: O_15  and  C_16
REMARK    9  A    between atoms: C_16  and  C_17
REMARK   10  A    between atoms: C_17  and  C_18
REMARK   11  A    between atoms: C_18  and  C_19
REMARK   12  A    between atoms: C_19  and  O_20
REMARK                            x       y       z     vdW  Elec       q    Type
REMARK                         _______ _______ _______ _____ _____    ______ ____
ROOT
ATOM      1  C   UNL     1       1.748   9.804  18.081  0.00  0.00    +0.000 C 
ATOM      2  C   UNL     1       1.920   8.454  18.062  0.00  0.00    +0.000 C 
ATOM      3  C   UNL     1       3.250   7.863  17.624  0.00  0.00    +0.000 C 
ATOM      4  C   UNL     1       1.920   8.454  18.062  0.00  0.00    +0.000 C 
ATOM      5  C   UNL     1       3.421   6.515  17.605  0.00  0.00    +0.000 C 
ATOM      6  C   UNL     1       4.751   5.924  17.167  0.00  0.00    +0.000 A 
ATOM      7  C   UNL     1       4.752   4.853  16.286  0.00  0.00    +0.000 A 
ATOM      8  C   UNL     1       6.005   4.207  16.172  0.00  0.00    +0.000 A 
ATOM      9  F   UNL     1       6.024   2.983  15.651  0.00  0.00    +0.000 F 
ATOM     10  C   UNL     1       7.157   4.733  16.547  0.00  0.00    +0.000 A 
ATOM     11  C   UNL     1       7.088   5.829  17.360  0.00  0.00    +0.000 A 
ATOM     12  C   UNL     1       5.886   6.439  17.625  0.00  0.00    +0.000 A 
ENDROOT
BRANCH   1  16
ATOM     13  C   UNL     1      -1.956  11.637  19.159  0.00  0.00    +0.000 A 
ATOM     14  C   UNL     1      -1.926  10.794  18.060  0.00  0.00    +0.000 A 
ATOM     15  C   UNL     1      -0.717  10.074  17.922  0.00  0.00    +0.000 A 
ATOM     16  C   UNL     1       0.417  10.394  18.520  0.00  0.00    +0.000 A 
ATOM     17  C   UNL     1       0.330  11.284  19.554  0.00  0.00    +0.000 A 
ATOM     18  C   UNL     1      -0.850  11.929  19.833  0.00  0.00    +0.000 A 
BRANCH  13  20
ATOM     19  C   UNL     1      -3.326  13.200  21.261  0.00  0.00    +0.000 C 
ATOM     20  S   UNL     1      -3.537  12.353  19.675  0.00  0.00    +0.000 S 
ENDBRANCH  13  20
ENDBRANCH   1  16
BRANCH   5  21
ATOM     21  C   UNL     1       2.282   5.597  18.021  0.00  0.00    +0.000 C 
BRANCH  21  22
ATOM     22  C   UNL     1       2.514   5.117  19.444  0.00  0.00    +0.000 C 
ATOM     23  O   UNL     1       3.075   5.883  20.290  0.00  0.00    +0.000 OA
BRANCH  22  24
ATOM     24  O   UNL     1       2.104   3.813  19.830  0.00  0.00    +0.000 OA
BRANCH  24  25
ATOM     25  C   UNL     1       1.258   3.053  18.981  0.00  0.00    +0.000 C 
BRANCH  25  26
ATOM     26  C   UNL     1       1.903   1.706  18.697  0.00  0.00    +0.000 C 
BRANCH  26  27
ATOM     27  C   UNL     1       3.305   1.921  18.147  0.00  0.00    +0.000 C 
BRANCH  27  28
ATOM     28  C   UNL     1       4.320   1.738  19.263  0.00  0.00    +0.000 C 
BRANCH  28  29
ATOM     29  O   UNL     1       5.108   2.913  19.384  0.00  0.00    +0.000 OA
ATOM     30  H   UNL     1       5.988   2.679  19.720  0.00  0.00    +0.000 HD
ENDBRANCH  28  29
ENDBRANCH  27  28
ENDBRANCH  26  27
ENDBRANCH  25  26
ENDBRANCH  24  25
ENDBRANCH  22  24
ENDBRANCH  21  22
ENDBRANCH   5  21
TORSDOF 10
ENDMDL
MODEL 2
REMARK VINA RESULT:      -7.9      0.873      1.051
REMARK  Name = 
REMARK  12 active torsions:
REMARK  status: ('A' for Active; 'I' for Inactive)
REMARK    1  A    between atoms: C_1  and  S_2
REMARK    2  A    between atoms: S_2  and  C_3
REMARK    3  A    between atoms: C_6  and  C_7
REMARK    4  A    between atoms: C_9  and  C_10
REMARK    5  A    between atoms: C_11  and  C_12
REMARK    6  A    between atoms: C_12  and  C_13
REMARK    7  A    between atoms: C_13  and  O_15
REMARK    8  A    between atoms: O_15  and  C_16
REMARK    9  A    between atoms: C_16  and  C_17
REMARK   10  A    between atoms: C_17  and  C_18
REMARK   11  A    between atoms: C_18  and  C_19
REMARK   12  A    between atoms: C_19  and  O_20
REMARK                            x       y       z     vdW  Elec       q    Type
REMARK                         _______ _______ _______ _____ _____    ______ ____
ROOT
ATOM      1  C   UNL     1       1.754   9.944  18.021  0.00  0.00    +0.000 C 
ATOM      2  C   UNL     1       1.970   8.600  18.064  0.00  0.00    +0.000 C 
ATOM      3  C   UNL     1       3.273   8.023  17.535  0.00  0.00    +0.000 C 
ATOM      4  C   UNL     1       1.970   8.600  18.064  0.00  0.00    +0.000 C 
ATOM      5  C   UNL     1       3.488   6.681  17.579  0.00  0.00    +0.000 C 
ATOM      6  C   UNL     1       4.791   6.103  17.050  0.00  0.00    +0.000 A 
ATOM      7  C   UNL     1       4.747   4.981  16.238  0.00  0.00    +0.000 A 
ATOM      8  C   UNL     1       6.005   4.366  16.042  0.00  0.00    +0.000 A 
ATOM      9  F   UNL     1       6.018   3.113  15.594  0.00  0.00    +0.000 F 
ATOM     10  C   UNL     1       7.168   4.948  16.273  0.00  0.00    +0.000 A 
ATOM     11  C   UNL     1       7.138   6.089  17.025  0.00  0.00    +0.000 A 
ATOM     12  C   UNL     1       5.945   6.678  17.367  0.00  0.00    +0.000 A 
ENDROOT
BRANCH   1  16
ATOM     13  C   UNL     1      -1.880  11.745  19.358  0.00  0.00    +0.000 A 
ATOM     14  C   UNL     1      -1.911  10.950  18.225  0.00  0.00    +0.000 A 
ATOM     15  C   UNL     1      -0.714  10.231  17.997  0.00  0.00    +0.000 A 
ATOM     16  C   UNL     1       0.451  10.520  18.549  0.00  0.00    +0.000 A 
ATOM     17  C   UNL     1       0.421  11.366  19.623  0.00  0.00    +0.000 A 
ATOM     18  C   UNL     1      -0.740  12.004  19.987  0.00  0.00    +0.000 A 
BRANCH  13  20
ATOM     19  C   UNL     1      -4.788  11.981  18.879  0.00  0.00    +0.000 C 
ATOM     20  S   UNL     1      -3.428  12.446  19.982  0.00  0.00    +0.000 S 
ENDBRANCH  13  20
ENDBRANCH   1  16
BRANCH   5  21
ATOM     21  C   UNL     1       2.426   5.758  18.155  0.00  0.00    +0.000 C 
BRANCH  21  22
ATOM     22  C   UNL     1       2.826   5.342  19.561  0.00  0.00    +0.000 C 
ATOM     23  O   UNL     1       4.037   5.442  19.933  0.00  0.00    +0.000 OA
BRANCH  22  24
ATOM     24  O   UNL     1       1.847   4.841  20.460  0.00  0.00    +0.000 OA
BRANCH  24  25
ATOM     25  C   UNL     1       1.673   3.441  20.612  0.00  0.00    +0.000 C 
BRANCH  25  26
ATOM     26  C   UNL     1       0.900   2.894  19.423  0.00  0.00    +0.000 C 
BRANCH  26  27
ATOM     27  C   UNL     1       1.628   1.685  18.858  0.00  0.00    +0.000 C 
BRANCH  27  28
ATOM     28  C   UNL     1       2.756   2.150  17.952  0.00  0.00    +0.000 C 
BRANCH  28  29
ATOM     29  O   UNL     1       3.924   1.389  18.220  0.00  0.00    +0.000 OA
ATOM     30  H   UNL     1       4.475   1.858  18.866  0.00  0.00    +0.000 HD
ENDBRANCH  28  29
ENDBRANCH  27  28
ENDBRANCH  26  27
ENDBRANCH  25  26
ENDBRANCH  24  25
ENDBRANCH  22  24
ENDBRANCH  21  22
ENDBRANCH   5  21
TORSDOF 10
ENDMDL
MODEL 3
REMARK VINA RESULT:      -7.9      0.683      1.197
REMARK  Name = 
REMARK  12 active torsions:
REMARK  status: ('A' for Active; 'I' for Inactive)
REMARK    1  A    between atoms: C_1  and  S_2
REMARK    2  A    between atoms: S_2  and  C_3
REMARK    3  A    between atoms: C_6  and  C_7
REMARK    4  A    between atoms: C_9  and  C_10
REMARK    5  A    between atoms: C_11  and  C_12
REMARK    6  A    between atoms: C_12  and  C_13
REMARK    7  A    between atoms: C_13  and  O_15
REMARK    8  A    between atoms: O_15  and  C_16
REMARK    9  A    between atoms: C_16  and  C_17
REMARK   10  A    between atoms: C_17  and  C_18
REMARK   11  A    between atoms: C_18  and  C_19
REMARK   12  A    between atoms: C_19  and  O_20
REMARK                            x       y       z     vdW  Elec       q    Type
REMARK                         _______ _______ _______ _____ _____    ______ ____
ROOT
ATOM      1  C   UNL     1       1.866   9.998  17.944  0.00  0.00    +0.000 C 
ATOM      2  C   UNL     1       2.038   8.650  18.028  0.00  0.00    +0.000 C 
ATOM      3  C   UNL     1       3.318   8.014  17.512  0.00  0.00    +0.000 C 
ATOM      4  C   UNL     1       2.038   8.650  18.028  0.00  0.00    +0.000 C 
ATOM      5  C   UNL     1       3.490   6.668  17.596  0.00  0.00    +0.000 C 
ATOM      6  C   UNL     1       4.770   6.032  17.080  0.00  0.00    +0.000 A 
ATOM      7  C   UNL     1       4.685   4.887  16.303  0.00  0.00    +0.000 A 
ATOM      8  C   UNL     1       5.921   4.225  16.120  0.00  0.00    +0.000 A 
ATOM      9  F   UNL     1       5.890   2.960  15.711  0.00  0.00    +0.000 F 
ATOM     10  C   UNL     1       7.104   4.775  16.328  0.00  0.00    +0.000 A 
ATOM     11  C   UNL     1       7.115   5.940  17.044  0.00  0.00    +0.000 A 
ATOM     12  C   UNL     1       5.944   6.578  17.373  0.00  0.00    +0.000 A 
ENDROOT
BRANCH   1  16
ATOM     13  C   UNL     1      -1.738  11.620  19.565  0.00  0.00    +0.000 A 
ATOM     14  C   UNL     1      -0.528  12.008  20.115  0.00  0.00    +0.000 A 
ATOM     15  C   UNL     1       0.601  11.590  19.372  0.00  0.00    +0.000 A 
ATOM     16  C   UNL     1       0.585  10.634  18.461  0.00  0.00    +0.000 A 
ATOM     17  C   UNL     1      -0.645  10.247  18.006  0.00  0.00    +0.000 A 
ATOM     18  C   UNL     1      -1.795  10.713  18.597  0.00  0.00    +0.000 A 
BRANCH  13  20
ATOM     19  C   UNL     1      -2.904  14.001  20.871  0.00  0.00    +0.000 C 
ATOM     20  S   UNL     1      -3.266  12.364  20.188  0.00  0.00    +0.000 S 
ENDBRANCH  13  20
ENDBRANCH   1  16
BRANCH   5  21
ATOM     21  C   UNL     1       2.402   5.799  18.205  0.00  0.00    +0.000 C 
BRANCH  21  22
ATOM     22  C   UNL     1       2.815   5.378  19.606  0.00  0.00    +0.000 C 
ATOM     23  O   UNL     1       4.045   5.350  19.924  0.00  0.00    +0.000 OA
BRANCH  22  24
ATOM     24  O   UNL     1       1.827   5.015  20.560  0.00  0.00    +0.000 OA
BRANCH  24  25
ATOM     25  C   UNL     1       1.049   3.844  20.367  0.00  0.00    +0.000 C 
BRANCH  25  26
ATOM     26  C   UNL     1       1.955   2.623  20.395  0.00  0.00    +0.000 C 
BRANCH  26  27
ATOM     27  C   UNL     1       1.825   1.866  19.083  0.00  0.00    +0.000 C 
BRANCH  27  28
ATOM     28  C   UNL     1       3.056   2.118  18.228  0.00  0.00    +0.000 C 
BRANCH  28  29
ATOM     29  O   UNL     1       4.198   2.231  19.064  0.00  0.00    +0.000 OA
ATOM     30  H   UNL     1       4.809   1.501  18.878  0.00  0.00    +0.000 HD
ENDBRANCH  28  29
ENDBRANCH  27  28
ENDBRANCH  26  27
ENDBRANCH  25  26
ENDBRANCH  24  25
ENDBRANCH  22  24
ENDBRANCH  21  22
ENDBRANCH   5  21
TORSDOF 10
ENDMDL
MODEL 4
REMARK VINA RESULT:      -7.9      0.749      1.349
REMARK  Name = 
REMARK  12 active torsions:
REMARK  status: ('A' for Active; 'I' for Inactive)
REMARK    1  A    between atoms: C_1  and  S_2
REMARK    2  A    between atoms: S_2  and  C_3
REMARK    3  A    between atoms: C_6  and  C_7
REMARK    4  A    between atoms: C_9  and  C_10
REMARK    5  A    between atoms: C_11  and  C_12
REMARK    6  A    between atoms: C_12  and  C_13
REMARK    7  A    between atoms: C_13  and  O_15
REMARK    8  A    between atoms: O_15  and  C_16
REMARK    9  A    between atoms: C_16  and  C_17
REMARK   10  A    between atoms: C_17  and  C_18
REMARK   11  A    between atoms: C_18  and  C_19
REMARK   12  A    between atoms: C_19  and  O_20
REMARK                            x       y       z     vdW  Elec       q    Type
REMARK                         _______ _______ _______ _____ _____    ______ ____
ROOT
ATOM      1  C   UNL     1       1.740   9.998  18.126  0.00  0.00    +0.000 C 
ATOM      2  C   UNL     1       1.958   8.654  18.149  0.00  0.00    +0.000 C 
ATOM      3  C   UNL     1       3.255   8.085  17.600  0.00  0.00    +0.000 C 
ATOM      4  C   UNL     1       1.958   8.654  18.149  0.00  0.00    +0.000 C 
ATOM      5  C   UNL     1       3.473   6.743  17.623  0.00  0.00    +0.000 C 
ATOM      6  C   UNL     1       4.771   6.174  17.074  0.00  0.00    +0.000 A 
ATOM      7  C   UNL     1       4.719   5.062  16.248  0.00  0.00    +0.000 A 
ATOM      8  C   UNL     1       5.976   4.451  16.031  0.00  0.00    +0.000 A 
ATOM      9  F   UNL     1       5.985   3.204  15.566  0.00  0.00    +0.000 F 
ATOM     10  C   UNL     1       7.140   5.031  16.258  0.00  0.00    +0.000 A 
ATOM     11  C   UNL     1       7.117   6.162  17.025  0.00  0.00    +0.000 A 
ATOM     12  C   UNL     1       5.927   6.746  17.387  0.00  0.00    +0.000 A 
ENDROOT
BRANCH   1  16
ATOM     13  C   UNL     1      -1.856  11.799  19.563  0.00  0.00    +0.000 A 
ATOM     14  C   UNL     1      -1.850  11.249  18.292  0.00  0.00    +0.000 A 
ATOM     15  C   UNL     1      -0.692  10.491  18.000  0.00  0.00    +0.000 A 
ATOM     16  C   UNL     1       0.442  10.567  18.675  0.00  0.00    +0.000 A 
ATOM     17  C   UNL     1       0.384  11.182  19.894  0.00  0.00    +0.000 A 
ATOM     18  C   UNL     1      -0.755  11.831  20.305  0.00  0.00    +0.000 A 
BRANCH  13  20
ATOM     19  C   UNL     1      -3.079  14.139  20.893  0.00  0.00    +0.000 C 
ATOM     20  S   UNL     1      -3.397  12.490  20.214  0.00  0.00    +0.000 S 
ENDBRANCH  13  20
ENDBRANCH   1  16
BRANCH   5  21
ATOM     21  C   UNL     1       2.417   5.811  18.198  0.00  0.00    +0.000 C 
BRANCH  21  22
ATOM     22  C   UNL     1       2.888   5.281  19.542  0.00  0.00    +0.000 C 
ATOM     23  O   UNL     1       2.263   5.594  20.603  0.00  0.00    +0.000 OA
BRANCH  22  24
ATOM     24  O   UNL     1       4.028   4.437  19.614  0.00  0.00    +0.000 OA
BRANCH  24  25
ATOM     25  C   UNL     1       3.869   3.047  19.855  0.00  0.00    +0.000 C 
BRANCH  25  26
ATOM     26  C   UNL     1       3.481   2.350  18.561  0.00  0.00    +0.000 C 
BRANCH  26  27
ATOM     27  C   UNL     1       1.982   2.091  18.555  0.00  0.00    +0.000 C 
BRANCH  27  28
ATOM     28  C   UNL     1       1.453   2.144  19.978  0.00  0.00    +0.000 C 
BRANCH  28  29
ATOM     29  O   UNL     1       0.401   3.095  20.057  0.00  0.00    +0.000 OA
ATOM     30  H   UNL     1      -0.177   3.002  19.283  0.00  0.00    +0.000 HD
ENDBRANCH  28  29
ENDBRANCH  27  28
ENDBRANCH  26  27
ENDBRANCH  25  26
ENDBRANCH  24  25
ENDBRANCH  22  24
ENDBRANCH  21  22
ENDBRANCH   5  21
TORSDOF 10
ENDMDL
MODEL 5
REMARK VINA RESULT:      -7.8      0.743      1.175
REMARK  Name = 
REMARK  12 active torsions:
REMARK  status: ('A' for Active; 'I' for Inactive)
REMARK    1  A    between atoms: C_1  and  S_2
REMARK    2  A    between atoms: S_2  and  C_3
REMARK    3  A    between atoms: C_6  and  C_7
REMARK    4  A    between atoms: C_9  and  C_10
REMARK    5  A    between atoms: C_11  and  C_12
REMARK    6  A    between atoms: C_12  and  C_13
REMARK    7  A    between atoms: C_13  and  O_15
REMARK    8  A    between atoms: O_15  and  C_16
REMARK    9  A    between atoms: C_16  and  C_17
REMARK   10  A    between atoms: C_17  and  C_18
REMARK   11  A    between atoms: C_18  and  C_19
REMARK   12  A    between atoms: C_19  and  O_20
REMARK                            x       y       z     vdW  Elec       q    Type
REMARK                         _______ _______ _______ _____ _____    ______ ____
ROOT
ATOM      1  C   UNL     1       1.808   9.866  18.150  0.00  0.00    +0.000 C 
ATOM      2  C   UNL     1       1.900   8.513  18.032  0.00  0.00    +0.000 C 
ATOM      3  C   UNL     1       3.247   7.864  17.758  0.00  0.00    +0.000 C 
ATOM      4  C   UNL     1       1.900   8.513  18.032  0.00  0.00    +0.000 C 
ATOM      5  C   UNL     1       3.339   6.513  17.641  0.00  0.00    +0.000 C 
ATOM      6  C   UNL     1       4.686   5.864  17.367  0.00  0.00    +0.000 A 
ATOM      7  C   UNL     1       4.768   4.872  16.402  0.00  0.00    +0.000 A 
ATOM      8  C   UNL     1       5.983   4.147  16.429  0.00  0.00    +0.000 A 
ATOM      9  F   UNL     1       6.015   2.972  15.806  0.00  0.00    +0.000 F 
ATOM     10  C   UNL     1       7.086   4.555  17.030  0.00  0.00    +0.000 A 
ATOM     11  C   UNL     1       6.948   5.582  17.921  0.00  0.00    +0.000 A 
ATOM     12  C   UNL     1       5.758   6.254  18.046  0.00  0.00    +0.000 A 
ENDROOT
BRANCH   1  16
ATOM     13  C   UNL     1      -1.976  11.587  19.132  0.00  0.00    +0.000 A 
ATOM     14  C   UNL     1      -0.823  12.238  19.541  0.00  0.00    +0.000 A 
ATOM     15  C   UNL     1       0.363  11.709  18.981  0.00  0.00    +0.000 A 
ATOM     16  C   UNL     1       0.461  10.515  18.424  0.00  0.00    +0.000 A 
ATOM     17  C   UNL     1      -0.715   9.894  18.106  0.00  0.00    +0.000 A 
ATOM     18  C   UNL     1      -1.921  10.418  18.505  0.00  0.00    +0.000 A 
BRANCH  13  20
ATOM     19  C   UNL     1      -4.733  11.949  18.131  0.00  0.00    +0.000 C 
ATOM     20  S   UNL     1      -3.582  12.349  19.470  0.00  0.00    +0.000 S 
ENDBRANCH  13  20
ENDBRANCH   1  16
BRANCH   5  21
ATOM     21  C   UNL     1       2.095   5.650  17.783  0.00  0.00    +0.000 C 
BRANCH  21  22
ATOM     22  C   UNL     1       2.095   4.984  19.148  0.00  0.00    +0.000 C 
ATOM     23  O   UNL     1       2.958   5.318  20.019  0.00  0.00    +0.000 OA
BRANCH  22  24
ATOM     24  O   UNL     1       1.131   3.985  19.453  0.00  0.00    +0.000 OA
BRANCH  24  25
ATOM     25  C   UNL     1       1.508   2.617  19.474  0.00  0.00    +0.000 C 
BRANCH  25  26
ATOM     26  C   UNL     1       2.076   2.227  18.119  0.00  0.00    +0.000 C 
BRANCH  26  27
ATOM     27  C   UNL     1       3.549   1.878  18.269  0.00  0.00    +0.000 C 
BRANCH  27  28
ATOM     28  C   UNL     1       3.924   1.886  19.741  0.00  0.00    +0.000 C 
BRANCH  28  29
ATOM     29  O   UNL     1       5.338   1.923  19.870  0.00  0.00    +0.000 OA
ATOM     30  H   UNL     1       5.724   2.324  19.075  0.00  0.00    +0.000 HD
ENDBRANCH  28  29
ENDBRANCH  27  28
ENDBRANCH  26  27
ENDBRANCH  25  26
ENDBRANCH  24  25
ENDBRANCH  22  24
ENDBRANCH  21  22
ENDBRANCH   5  21
TORSDOF 10
ENDMDL
MODEL 6
REMARK VINA RESULT:      -7.8      1.574      3.250
REMARK  Name = 
REMARK  12 active torsions:
REMARK  status: ('A' for Active; 'I' for Inactive)
REMARK    1  A    between atoms: C_1  and  S_2
REMARK    2  A    between atoms: S_2  and  C_3
REMARK    3  A    between atoms: C_6  and  C_7
REMARK    4  A    between atoms: C_9  and  C_10
REMARK    5  A    between atoms: C_11  and  C_12
REMARK    6  A    between atoms: C_12  and  C_13
REMARK    7  A    between atoms: C_13  and  O_15
REMARK    8  A    between atoms: O_15  and  C_16
REMARK    9  A    between atoms: C_16  and  C_17
REMARK   10  A    between atoms: C_17  and  C_18
REMARK   11  A    between atoms: C_18  and  C_19
REMARK   12  A    between atoms: C_19  and  O_20
REMARK                            x       y       z     vdW  Elec       q    Type
REMARK                         _______ _______ _______ _____ _____    ______ ____
ROOT
ATOM      1  C   UNL     1       1.800   9.846  17.940  0.00  0.00    +0.000 C 
ATOM      2  C   UNL     1       1.989   8.498  17.938  0.00  0.00    +0.000 C 
ATOM      3  C   UNL     1       3.320   7.918  17.488  0.00  0.00    +0.000 C 
ATOM      4  C   UNL     1       1.989   8.498  17.938  0.00  0.00    +0.000 C 
ATOM      5  C   UNL     1       3.509   6.571  17.486  0.00  0.00    +0.000 C 
ATOM      6  C   UNL     1       4.840   5.991  17.036  0.00  0.00    +0.000 A 
ATOM      7  C   UNL     1       4.841   4.907  16.172  0.00  0.00    +0.000 A 
ATOM      8  C   UNL     1       6.101   4.275  16.048  0.00  0.00    +0.000 A 
ATOM      9  F   UNL     1       6.128   3.044  15.545  0.00  0.00    +0.000 F 
ATOM     10  C   UNL     1       7.251   4.822  16.397  0.00  0.00    +0.000 A 
ATOM     11  C   UNL     1       7.180   5.929  17.196  0.00  0.00    +0.000 A 
ATOM     12  C   UNL     1       5.974   6.527  17.470  0.00  0.00    +0.000 A 
ENDROOT
BRANCH   1  16
ATOM     13  C   UNL     1      -1.929  11.623  19.022  0.00  0.00    +0.000 A 
ATOM     14  C   UNL     1      -1.924  10.617  18.070  0.00  0.00    +0.000 A 
ATOM     15  C   UNL     1      -0.682   9.952  17.946  0.00  0.00    +0.000 A 
ATOM     16  C   UNL     1       0.469  10.425  18.390  0.00  0.00    +0.000 A 
ATOM     17  C   UNL     1       0.399  11.464  19.276  0.00  0.00    +0.000 A 
ATOM     18  C   UNL     1      -0.799  12.081  19.548  0.00  0.00    +0.000 A 
BRANCH  13  20
ATOM     19  C   UNL     1      -3.320  13.087  21.181  0.00  0.00    +0.000 C 
ATOM     20  S   UNL     1      -3.512  12.326  19.549  0.00  0.00    +0.000 S 
ENDBRANCH  13  20
ENDBRANCH   1  16
BRANCH   5  21
ATOM     21  C   UNL     1       2.388   5.645  17.933  0.00  0.00    +0.000 C 
BRANCH  21  22
ATOM     22  C   UNL     1       2.676   5.144  19.338  0.00  0.00    +0.000 C 
ATOM     23  O   UNL     1       3.028   3.937  19.523  0.00  0.00    +0.000 OA
BRANCH  22  24
ATOM     24  O   UNL     1       2.552   6.024  20.447  0.00  0.00    +0.000 OA
BRANCH  24  25
ATOM     25  C   UNL     1       1.266   6.395  20.918  0.00  0.00    +0.000 C 
BRANCH  25  26
ATOM     26  C   UNL     1       1.289   7.849  21.361  0.00  0.00    +0.000 C 
BRANCH  26  27
ATOM     27  C   UNL     1      -0.132   8.391  21.392  0.00  0.00    +0.000 C 
BRANCH  27  28
ATOM     28  C   UNL     1      -0.252   9.432  22.493  0.00  0.00    +0.000 C 
BRANCH  28  29
ATOM     29  O   UNL     1       0.926  10.225  22.525  0.00  0.00    +0.000 OA
ATOM     30  H   UNL     1       1.350  10.210  21.653  0.00  0.00    +0.000 HD
ENDBRANCH  28  29
ENDBRANCH  27  28
ENDBRANCH  26  27
ENDBRANCH  25  26
ENDBRANCH  24  25
ENDBRANCH  22  24
ENDBRANCH  21  22
ENDBRANCH   5  21
TORSDOF 10
ENDMDL
MODEL 7
REMARK VINA RESULT:      -7.6      1.139      1.454
REMARK  Name = 
REMARK  12 active torsions:
REMARK  status: ('A' for Active; 'I' for Inactive)
REMARK    1  A    between atoms: C_1  and  S_2
REMARK    2  A    between atoms: S_2  and  C_3
REMARK    3  A    between atoms: C_6  and  C_7
REMARK    4  A    between atoms: C_9  and  C_10
REMARK    5  A    between atoms: C_11  and  C_12
REMARK    6  A    between atoms: C_12  and  C_13
REMARK    7  A    between atoms: C_13  and  O_15
REMARK    8  A    between atoms: O_15  and  C_16
REMARK    9  A    between atoms: C_16  and  C_17
REMARK   10  A    between atoms: C_17  and  C_18
REMARK   11  A    between atoms: C_18  and  C_19
REMARK   12  A    between atoms: C_19  and  O_20
REMARK                            x       y       z     vdW  Elec       q    Type
REMARK                         _______ _______ _______ _____ _____    ______ ____
ROOT
ATOM      1  C   UNL     1       2.071  10.106  18.104  0.00  0.00    +0.000 C 
ATOM      2  C   UNL     1       2.210   8.753  18.038  0.00  0.00    +0.000 C 
ATOM      3  C   UNL     1       3.499   8.147  17.509  0.00  0.00    +0.000 C 
ATOM      4  C   UNL     1       2.210   8.753  18.038  0.00  0.00    +0.000 C 
ATOM      5  C   UNL     1       3.638   6.796  17.444  0.00  0.00    +0.000 C 
ATOM      6  C   UNL     1       4.927   6.189  16.915  0.00  0.00    +0.000 A 
ATOM      7  C   UNL     1       4.854   5.144  16.007  0.00  0.00    +0.000 A 
ATOM      8  C   UNL     1       6.083   4.475  15.804  0.00  0.00    +0.000 A 
ATOM      9  F   UNL     1       6.045   3.266  15.249  0.00  0.00    +0.000 F 
ATOM     10  C   UNL     1       7.266   4.965  16.127  0.00  0.00    +0.000 A 
ATOM     11  C   UNL     1       7.268   6.039  16.973  0.00  0.00    +0.000 A 
ATOM     12  C   UNL     1       6.097   6.666  17.322  0.00  0.00    +0.000 A 
ENDROOT
BRANCH   1  16
ATOM     13  C   UNL     1      -1.622  11.840  19.369  0.00  0.00    +0.000 A 
ATOM     14  C   UNL     1      -1.592  10.490  19.062  0.00  0.00    +0.000 A 
ATOM     15  C   UNL     1      -0.290   9.974  18.869  0.00  0.00    +0.000 A 
ATOM     16  C   UNL     1       0.781  10.712  18.634  0.00  0.00    +0.000 A 
ATOM     17  C   UNL     1       0.667  12.049  18.893  0.00  0.00    +0.000 A 
ATOM     18  C   UNL     1      -0.548  12.605  19.215  0.00  0.00    +0.000 A 
BRANCH  13  20
ATOM     19  C   UNL     1      -4.536  12.058  18.925  0.00  0.00    +0.000 C 
ATOM     20  S   UNL     1      -3.160  12.568  19.986  0.00  0.00    +0.000 S 
ENDBRANCH  13  20
ENDBRANCH   1  16
BRANCH   5  21
ATOM     21  C   UNL     1       2.503   5.891  17.899  0.00  0.00    +0.000 C 
BRANCH  21  22
ATOM     22  C   UNL     1       3.040   4.859  18.876  0.00  0.00    +0.000 C 
ATOM     23  O   UNL     1       3.424   5.219  20.034  0.00  0.00    +0.000 OA
BRANCH  22  24
ATOM     24  O   UNL     1       3.115   3.492  18.498  0.00  0.00    +0.000 OA
BRANCH  24  25
ATOM     25  C   UNL     1       1.948   2.811  18.064  0.00  0.00    +0.000 C 
BRANCH  25  26
ATOM     26  C   UNL     1       0.919   2.804  19.183  0.00  0.00    +0.000 C 
BRANCH  26  27
ATOM     27  C   UNL     1       1.439   1.971  20.344  0.00  0.00    +0.000 C 
BRANCH  27  28
ATOM     28  C   UNL     1       1.332   2.773  21.630  0.00  0.00    +0.000 C 
BRANCH  28  29
ATOM     29  O   UNL     1       2.633   3.039  22.132  0.00  0.00    +0.000 OA
ATOM     30  H   UNL     1       2.571   3.646  22.886  0.00  0.00    +0.000 HD
ENDBRANCH  28  29
ENDBRANCH  27  28
ENDBRANCH  26  27
ENDBRANCH  25  26
ENDBRANCH  24  25
ENDBRANCH  22  24
ENDBRANCH  21  22
ENDBRANCH   5  21
TORSDOF 10
ENDMDL
MODEL 8
REMARK VINA RESULT:      -7.5      1.172      1.786
REMARK  Name = 
REMARK  12 active torsions:
REMARK  status: ('A' for Active; 'I' for Inactive)
REMARK    1  A    between atoms: C_1  and  S_2
REMARK    2  A    between atoms: S_2  and  C_3
REMARK    3  A    between atoms: C_6  and  C_7
REMARK    4  A    between atoms: C_9  and  C_10
REMARK    5  A    between atoms: C_11  and  C_12
REMARK    6  A    between atoms: C_12  and  C_13
REMARK    7  A    between atoms: C_13  and  O_15
REMARK    8  A    between atoms: O_15  and  C_16
REMARK    9  A    between atoms: C_16  and  C_17
REMARK   10  A    between atoms: C_17  and  C_18
REMARK   11  A    between atoms: C_18  and  C_19
REMARK   12  A    between atoms: C_19  and  O_20
REMARK                            x       y       z     vdW  Elec       q    Type
REMARK                         _______ _______ _______ _____ _____    ______ ____
ROOT
ATOM      1  C   UNL     1       1.938  10.180  17.969  0.00  0.00    +0.000 C 
ATOM      2  C   UNL     1       2.097   8.830  18.037  0.00  0.00    +0.000 C 
ATOM      3  C   UNL     1       3.378   8.188  17.530  0.00  0.00    +0.000 C 
ATOM      4  C   UNL     1       2.097   8.830  18.037  0.00  0.00    +0.000 C 
ATOM      5  C   UNL     1       3.536   6.840  17.598  0.00  0.00    +0.000 C 
ATOM      6  C   UNL     1       4.817   6.198  17.091  0.00  0.00    +0.000 A 
ATOM      7  C   UNL     1       4.730   5.064  16.298  0.00  0.00    +0.000 A 
ATOM      8  C   UNL     1       5.963   4.392  16.123  0.00  0.00    +0.000 A 
ATOM      9  F   UNL     1       5.926   3.132  15.697  0.00  0.00    +0.000 F 
ATOM     10  C   UNL     1       7.148   4.929  16.353  0.00  0.00    +0.000 A 
ATOM     11  C   UNL     1       7.161   6.083  17.084  0.00  0.00    +0.000 A 
ATOM     12  C   UNL     1       5.992   6.729  17.406  0.00  0.00    +0.000 A 
ENDROOT
BRANCH   1  16
ATOM     13  C   UNL     1      -1.580  11.955  19.616  0.00  0.00    +0.000 A 
ATOM     14  C   UNL     1      -0.469  12.755  19.404  0.00  0.00    +0.000 A 
ATOM     15  C   UNL     1       0.556  12.126  18.659  0.00  0.00    +0.000 A 
ATOM     16  C   UNL     1       0.657  10.821  18.477  0.00  0.00    +0.000 A 
ATOM     17  C   UNL     1      -0.452  10.079  18.769  0.00  0.00    +0.000 A 
ATOM     18  C   UNL     1      -1.544  10.650  19.378  0.00  0.00    +0.000 A 
BRANCH  13  20
ATOM     19  C   UNL     1      -4.502  12.168  19.223  0.00  0.00    +0.000 C 
ATOM     20  S   UNL     1      -3.103  12.713  20.234  0.00  0.00    +0.000 S 
ENDBRANCH  13  20
ENDBRANCH   1  16
BRANCH   5  21
ATOM     21  C   UNL     1       2.431   5.973  18.182  0.00  0.00    +0.000 C 
BRANCH  21  22
ATOM     22  C   UNL     1       2.724   5.700  19.648  0.00  0.00    +0.000 C 
ATOM     23  O   UNL     1       2.048   6.287  20.551  0.00  0.00    +0.000 OA
BRANCH  22  24
ATOM     24  O   UNL     1       3.753   4.791  20.011  0.00  0.00    +0.000 OA
BRANCH  24  25
ATOM     25  C   UNL     1       3.515   3.393  19.963  0.00  0.00    +0.000 C 
BRANCH  25  26
ATOM     26  C   UNL     1       2.547   3.005  21.069  0.00  0.00    +0.000 C 
BRANCH  26  27
ATOM     27  C   UNL     1       1.257   2.486  20.453  0.00  0.00    +0.000 C 
BRANCH  27  28
ATOM     28  C   UNL     1       1.396   2.449  18.941  0.00  0.00    +0.000 C 
BRANCH  28  29
ATOM     29  O   UNL     1       0.292   1.753  18.381  0.00  0.00    +0.000 OA
ATOM     30  H   UNL     1      -0.444   2.371  18.245  0.00  0.00    +0.000 HD
ENDBRANCH  28  29
ENDBRANCH  27  28
ENDBRANCH  26  27
ENDBRANCH  25  26
ENDBRANCH  24  25
ENDBRANCH  22  24
ENDBRANCH  21  22
ENDBRANCH   5  21
TORSDOF 10
ENDMDL
MODEL 9
REMARK VINA RESULT:      -7.3      1.739      3.494
REMARK  Name = 
REMARK  12 active torsions:
REMARK  status: ('A' for Active; 'I' for Inactive)
REMARK    1  A    between atoms: C_1  and  S_2
REMARK    2  A    between atoms: S_2  and  C_3
REMARK    3  A    between atoms: C_6  and  C_7
REMARK    4  A    between atoms: C_9  and  C_10
REMARK    5  A    between atoms: C_11  and  C_12
REMARK    6  A    between atoms: C_12  and  C_13
REMARK    7  A    between atoms: C_13  and  O_15
REMARK    8  A    between atoms: O_15  and  C_16
REMARK    9  A    between atoms: C_16  and  C_17
REMARK   10  A    between atoms: C_17  and  C_18
REMARK   11  A    between atoms: C_18  and  C_19
REMARK   12  A    between atoms: C_19  and  O_20
REMARK                            x       y       z     vdW  Elec       q    Type
REMARK                         _______ _______ _______ _____ _____    ______ ____
ROOT
ATOM      1  C   UNL     1       1.901  10.091  17.907  0.00  0.00    +0.000 C 
ATOM      2  C   UNL     1       2.059   8.742  17.990  0.00  0.00    +0.000 C 
ATOM      3  C   UNL     1       3.344   8.095  17.499  0.00  0.00    +0.000 C 
ATOM      4  C   UNL     1       2.059   8.742  17.990  0.00  0.00    +0.000 C 
ATOM      5  C   UNL     1       3.501   6.747  17.583  0.00  0.00    +0.000 C 
ATOM      6  C   UNL     1       4.786   6.100  17.092  0.00  0.00    +0.000 A 
ATOM      7  C   UNL     1       4.706   4.959  16.310  0.00  0.00    +0.000 A 
ATOM      8  C   UNL     1       5.940   4.285  16.152  0.00  0.00    +0.000 A 
ATOM      9  F   UNL     1       5.906   3.021  15.739  0.00  0.00    +0.000 F 
ATOM     10  C   UNL     1       7.123   4.824  16.386  0.00  0.00    +0.000 A 
ATOM     11  C   UNL     1       7.130   5.986  17.105  0.00  0.00    +0.000 A 
ATOM     12  C   UNL     1       5.959   6.635  17.411  0.00  0.00    +0.000 A 
ENDROOT
BRANCH   1  16
ATOM     13  C   UNL     1      -1.700  11.768  19.477  0.00  0.00    +0.000 A 
ATOM     14  C   UNL     1      -0.486  12.279  19.906  0.00  0.00    +0.000 A 
ATOM     15  C   UNL     1       0.627  11.811  19.169  0.00  0.00    +0.000 A 
ATOM     16  C   UNL     1       0.616  10.737  18.398  0.00  0.00    +0.000 A 
ATOM     17  C   UNL     1      -0.613  10.240  18.065  0.00  0.00    +0.000 A 
ATOM     18  C   UNL     1      -1.756  10.735  18.645  0.00  0.00    +0.000 A 
BRANCH  13  20
ATOM     19  C   UNL     1      -2.836  13.992  21.058  0.00  0.00    +0.000 C 
ATOM     20  S   UNL     1      -3.232  12.526  20.072  0.00  0.00    +0.000 S 
ENDBRANCH  13  20
ENDBRANCH   1  16
BRANCH   5  21
ATOM     21  C   UNL     1       2.392   5.886  18.167  0.00  0.00    +0.000 C 
BRANCH  21  22
ATOM     22  C   UNL     1       2.630   5.697  19.656  0.00  0.00    +0.000 C 
ATOM     23  O   UNL     1       3.744   5.244  20.069  0.00  0.00    +0.000 OA
BRANCH  22  24
ATOM     24  O   UNL     1       1.609   6.024  20.587  0.00  0.00    +0.000 OA
BRANCH  24  25
ATOM     25  C   UNL     1       1.572   7.315  21.176  0.00  0.00    +0.000 C 
BRANCH  25  26
ATOM     26  C   UNL     1       0.254   7.992  20.832  0.00  0.00    +0.000 C 
BRANCH  26  27
ATOM     27  C   UNL     1      -0.431   8.446  22.112  0.00  0.00    +0.000 C 
BRANCH  27  28
ATOM     28  C   UNL     1       0.168   9.766  22.566  0.00  0.00    +0.000 C 
BRANCH  28  29
ATOM     29  O   UNL     1       0.494   9.689  23.945  0.00  0.00    +0.000 OA
ATOM     30  H   UNL     1      -0.135   9.102  24.394  0.00  0.00    +0.000 HD
ENDBRANCH  28  29
ENDBRANCH  27  28
ENDBRANCH  26  27
ENDBRANCH  25  26
ENDBRANCH  24  25
ENDBRANCH  22  24
ENDBRANCH  21  22
ENDBRANCH   5  21
TORSDOF 10
ENDMDL
