MODEL 1
REMARK VINA RESULT:      -5.8      0.000      0.000
REMARK  Name = 
REMARK  9 active torsions:
REMARK  status: ('A' for Active; 'I' for Inactive)
REMARK    1  A    between atoms: C_1  and  C_2
REMARK    2  A    between atoms: C_2  and  C_3
REMARK    3  A    between atoms: C_2  and  C_4
REMARK    4  A    between atoms: C_2  and  N_5
REMARK    5  A    between atoms: C_6  and  S_7
REMARK    6  A    between atoms: N_8  and  C_9
REMARK    7  A    between atoms: C_9  and  C_10
REMARK    8  A    between atoms: C_10  and  C_11
REMARK    9  A    between atoms: C_11  and  N_12
REMARK                            x       y       z     vdW  Elec       q    Type
REMARK                         _______ _______ _______ _____ _____    ______ ____
ROOT
ATOM      1  N   UNL     1       3.427   4.237  19.880  0.00  0.00    +0.000 NA
ATOM      2  C   UNL     1       4.292   3.461  19.349  0.00  0.00    +0.000 C 
ATOM      3  N   UNL     1       5.563   3.863  19.064  0.00  0.00    +0.000 N 
ATOM      4  H   UNL     1       6.190   3.150  18.710  0.00  0.00    +0.000 HD
ENDROOT
BRANCH   1   6
ATOM      5  C   UNL     1       1.895   3.066  21.439  0.00  0.00    +0.000 C 
ATOM      6  C   UNL     1       2.032   4.028  20.254  0.00  0.00    +0.000 C 
ATOM      7  C   UNL     1       1.173   3.636  19.048  0.00  0.00    +0.000 C 
ATOM      8  C   UNL     1       1.525   5.407  20.737  0.00  0.00    +0.000 C 
ENDBRANCH   1   6
BRANCH   2   9
ATOM      9  S   UNL     1       4.089   1.791  18.870  0.00  0.00    +0.000 S 
ATOM     10  H   UNL     1       5.094   1.253  19.556  0.00  0.00    +0.000 HD
ENDBRANCH   2   9
BRANCH   3  11
ATOM     11  C   UNL     1       6.098   5.181  19.286  0.00  0.00    +0.000 C 
BRANCH  11  12
ATOM     12  C   UNL     1       7.421   5.360  18.549  0.00  0.00    +0.000 C 
BRANCH  12  13
ATOM     13  C   UNL     1       7.215   6.219  17.305  0.00  0.00    +0.000 C 
BRANCH  13  14
ATOM     14  N   UNL     1       6.642   5.475  16.204  0.00  0.00    +0.000 N 
ATOM     15  C   UNL     1       7.153   4.342  15.638  0.00  0.00    +0.000 A 
ATOM     16  C   UNL     1       6.240   3.988  14.672  0.00  0.00    +0.000 A 
ATOM     17  N   UNL     1       5.192   4.872  14.645  0.00  0.00    +0.000 NA
ATOM     18  C   UNL     1       5.459   5.755  15.580  0.00  0.00    +0.000 A 
ENDBRANCH  13  14
ENDBRANCH  12  13
ENDBRANCH  11  12
ENDBRANCH   3  11
TORSDOF 6
ENDMDL
MODEL 2
REMARK VINA RESULT:      -5.7      1.705      2.067
REMARK  Name = 
REMARK  9 active torsions:
REMARK  status: ('A' for Active; 'I' for Inactive)
REMARK    1  A    between atoms: C_1  and  C_2
REMARK    2  A    between atoms: C_2  and  C_3
REMARK    3  A    between atoms: C_2  and  C_4
REMARK    4  A    between atoms: C_2  and  N_5
REMARK    5  A    between atoms: C_6  and  S_7
REMARK    6  A    between atoms: N_8  and  C_9
REMARK    7  A    between atoms: C_9  and  C_10
REMARK    8  A    between atoms: C_10  and  C_11
REMARK    9  A    between atoms: C_11  and  N_12
REMARK                            x       y       z     vdW  Elec       q    Type
REMARK                         _______ _______ _______ _____ _____    ______ ____
ROOT
ATOM      1  N   UNL     1       4.002   5.056  18.661  0.00  0.00    +0.000 NA
ATOM      2  C   UNL     1       4.678   4.028  19.007  0.00  0.00    +0.000 C 
ATOM      3  N   UNL     1       6.024   3.935  18.810  0.00  0.00    +0.000 N 
ATOM      4  H   UNL     1       6.476   3.110  19.185  0.00  0.00    +0.000 HD
ENDROOT
BRANCH   1   6
ATOM      5  C   UNL     1       2.097   5.372  20.217  0.00  0.00    +0.000 C 
ATOM      6  C   UNL     1       2.579   5.363  18.762  0.00  0.00    +0.000 C 
ATOM      7  C   UNL     1       1.738   4.466  17.847  0.00  0.00    +0.000 C 
ATOM      8  C   UNL     1       2.431   6.809  18.234  0.00  0.00    +0.000 C 
ENDBRANCH   1   6
BRANCH   2   9
ATOM      9  S   UNL     1       4.098   2.564  19.766  0.00  0.00    +0.000 S 
ATOM     10  H   UNL     1       3.326   2.110  18.782  0.00  0.00    +0.000 HD
ENDBRANCH   2   9
BRANCH   3  11
ATOM     11  C   UNL     1       6.854   4.931  18.183  0.00  0.00    +0.000 C 
BRANCH  11  12
ATOM     12  C   UNL     1       7.340   4.451  16.820  0.00  0.00    +0.000 C 
BRANCH  12  13
ATOM     13  C   UNL     1       6.877   5.412  15.730  0.00  0.00    +0.000 C 
BRANCH  13  14
ATOM     14  N   UNL     1       6.809   4.786  14.427  0.00  0.00    +0.000 N 
ATOM     15  C   UNL     1       5.918   3.828  14.033  0.00  0.00    +0.000 A 
ATOM     16  C   UNL     1       6.219   3.587  12.713  0.00  0.00    +0.000 A 
ATOM     17  N   UNL     1       7.261   4.376  12.300  0.00  0.00    +0.000 NA
ATOM     18  C   UNL     1       7.594   5.090  13.352  0.00  0.00    +0.000 A 
ENDBRANCH  13  14
ENDBRANCH  12  13
ENDBRANCH  11  12
ENDBRANCH   3  11
TORSDOF 6
ENDMDL
MODEL 3
REMARK VINA RESULT:      -5.5      1.113      1.332
REMARK  Name = 
REMARK  9 active torsions:
REMARK  status: ('A' for Active; 'I' for Inactive)
REMARK    1  A    between atoms: C_1  and  C_2
REMARK    2  A    between atoms: C_2  and  C_3
REMARK    3  A    between atoms: C_2  and  C_4
REMARK    4  A    between atoms: C_2  and  N_5
REMARK    5  A    between atoms: C_6  and  S_7
REMARK    6  A    between atoms: N_8  and  C_9
REMARK    7  A    between atoms: C_9  and  C_10
REMARK    8  A    between atoms: C_10  and  C_11
REMARK    9  A    between atoms: C_11  and  N_12
REMARK                            x       y       z     vdW  Elec       q    Type
REMARK                         _______ _______ _______ _____ _____    ______ ____
ROOT
ATOM      1  N   UNL     1       3.856   5.116  19.332  0.00  0.00    +0.000 NA
ATOM      2  C   UNL     1       4.555   4.053  19.207  0.00  0.00    +0.000 C 
ATOM      3  N   UNL     1       5.918   4.064  19.225  0.00  0.00    +0.000 N 
ATOM      4  H   UNL     1       6.374   3.161  19.191  0.00  0.00    +0.000 HD
ENDROOT
BRANCH   1   6
ATOM      5  C   UNL     1       1.723   4.627  20.498  0.00  0.00    +0.000 C 
ATOM      6  C   UNL     1       2.414   5.338  19.329  0.00  0.00    +0.000 C 
ATOM      7  C   UNL     1       1.792   5.014  17.967  0.00  0.00    +0.000 C 
ATOM      8  C   UNL     1       2.230   6.856  19.557  0.00  0.00    +0.000 C 
ENDBRANCH   1   6
BRANCH   2   9
ATOM      9  S   UNL     1       3.989   2.413  18.987  0.00  0.00    +0.000 S 
ATOM     10  H   UNL     1       2.687   2.614  19.174  0.00  0.00    +0.000 HD
ENDBRANCH   2   9
BRANCH   3  11
ATOM     11  C   UNL     1       6.748   5.234  19.357  0.00  0.00    +0.000 C 
BRANCH  11  12
ATOM     12  C   UNL     1       7.623   5.419  18.123  0.00  0.00    +0.000 C 
BRANCH  12  13
ATOM     13  C   UNL     1       6.855   6.173  17.044  0.00  0.00    +0.000 C 
BRANCH  13  14
ATOM     14  N   UNL     1       6.485   5.327  15.929  0.00  0.00    +0.000 N 
ATOM     15  C   UNL     1       5.277   4.718  15.739  0.00  0.00    +0.000 A 
ATOM     16  C   UNL     1       5.394   4.071  14.531  0.00  0.00    +0.000 A 
ATOM     17  N   UNL     1       6.635   4.278  13.987  0.00  0.00    +0.000 NA
ATOM     18  C   UNL     1       7.269   5.041  14.848  0.00  0.00    +0.000 A 
ENDBRANCH  13  14
ENDBRANCH  12  13
ENDBRANCH  11  12
ENDBRANCH   3  11
TORSDOF 6
ENDMDL
MODEL 4
REMARK VINA RESULT:      -5.5      1.858      6.215
REMARK  Name = 
REMARK  9 active torsions:
REMARK  status: ('A' for Active; 'I' for Inactive)
REMARK    1  A    between atoms: C_1  and  C_2
REMARK    2  A    between atoms: C_2  and  C_3
REMARK    3  A    between atoms: C_2  and  C_4
REMARK    4  A    between atoms: C_2  and  N_5
REMARK    5  A    between atoms: C_6  and  S_7
REMARK    6  A    between atoms: N_8  and  C_9
REMARK    7  A    between atoms: C_9  and  C_10
REMARK    8  A    between atoms: C_10  and  C_11
REMARK    9  A    between atoms: C_11  and  N_12
REMARK                            x       y       z     vdW  Elec       q    Type
REMARK                         _______ _______ _______ _____ _____    ______ ____
ROOT
ATOM      1  N   UNL     1       5.178   3.845  16.469  0.00  0.00    +0.000 NA
ATOM      2  C   UNL     1       5.150   3.872  17.747  0.00  0.00    +0.000 C 
ATOM      3  N   UNL     1       4.434   2.976  18.484  0.00  0.00    +0.000 N 
ATOM      4  H   UNL     1       4.537   3.039  19.490  0.00  0.00    +0.000 HD
ENDROOT
BRANCH   1   6
ATOM      5  C   UNL     1       5.596   4.230  14.056  0.00  0.00    +0.000 C 
ATOM      6  C   UNL     1       5.852   4.695  15.493  0.00  0.00    +0.000 C 
ATOM      7  C   UNL     1       7.339   4.868  15.822  0.00  0.00    +0.000 C 
ATOM      8  C   UNL     1       5.195   6.087  15.636  0.00  0.00    +0.000 C 
ENDBRANCH   1   6
BRANCH   2   9
ATOM      9  S   UNL     1       5.959   4.992  18.817  0.00  0.00    +0.000 S 
ATOM     10  H   UNL     1       6.163   4.182  19.853  0.00  0.00    +0.000 HD
ENDBRANCH   2   9
BRANCH   3  11
ATOM     11  C   UNL     1       3.612   1.918  17.956  0.00  0.00    +0.000 C 
BRANCH  11  12
ATOM     12  C   UNL     1       2.223   2.437  17.603  0.00  0.00    +0.000 C 
BRANCH  12  13
ATOM     13  C   UNL     1       1.266   2.211  18.769  0.00  0.00    +0.000 C 
BRANCH  13  14
ATOM     14  N   UNL     1       1.627   2.978  19.942  0.00  0.00    +0.000 N 
ATOM     15  C   UNL     1       1.716   4.339  20.026  0.00  0.00    +0.000 A 
ATOM     16  C   UNL     1       2.040   4.591  21.338  0.00  0.00    +0.000 A 
ATOM     17  N   UNL     1       2.142   3.422  22.047  0.00  0.00    +0.000 NA
ATOM     18  C   UNL     1       1.885   2.468  21.182  0.00  0.00    +0.000 A 
ENDBRANCH  13  14
ENDBRANCH  12  13
ENDBRANCH  11  12
ENDBRANCH   3  11
TORSDOF 6
ENDMDL
MODEL 5
REMARK VINA RESULT:      -5.4      1.846      5.672
REMARK  Name = 
REMARK  9 active torsions:
REMARK  status: ('A' for Active; 'I' for Inactive)
REMARK    1  A    between atoms: C_1  and  C_2
REMARK    2  A    between atoms: C_2  and  C_3
REMARK    3  A    between atoms: C_2  and  C_4
REMARK    4  A    between atoms: C_2  and  N_5
REMARK    5  A    between atoms: C_6  and  S_7
REMARK    6  A    between atoms: N_8  and  C_9
REMARK    7  A    between atoms: C_9  and  C_10
REMARK    8  A    between atoms: C_10  and  C_11
REMARK    9  A    between atoms: C_11  and  N_12
REMARK                            x       y       z     vdW  Elec       q    Type
REMARK                         _______ _______ _______ _____ _____    ______ ____
ROOT
ATOM      1  N   UNL     1       5.159   3.992  16.778  0.00  0.00    +0.000 NA
ATOM      2  C   UNL     1       5.180   3.947  18.055  0.00  0.00    +0.000 C 
ATOM      3  N   UNL     1       4.502   3.002  18.768  0.00  0.00    +0.000 N 
ATOM      4  H   UNL     1       4.643   3.011  19.770  0.00  0.00    +0.000 HD
ENDROOT
BRANCH   1   6
ATOM      5  C   UNL     1       7.314   4.896  15.949  0.00  0.00    +0.000 C 
ATOM      6  C   UNL     1       5.786   4.903  15.826  0.00  0.00    +0.000 C 
ATOM      7  C   UNL     1       5.176   6.307  15.897  0.00  0.00    +0.000 C 
ATOM      8  C   UNL     1       5.447   4.336  14.428  0.00  0.00    +0.000 C 
ENDBRANCH   1   6
BRANCH   2   9
ATOM      9  S   UNL     1       6.020   5.014  19.155  0.00  0.00    +0.000 S 
ATOM     10  H   UNL     1       7.265   4.822  18.724  0.00  0.00    +0.000 HD
ENDBRANCH   2   9
BRANCH   3  11
ATOM     11  C   UNL     1       3.670   1.967  18.213  0.00  0.00    +0.000 C 
BRANCH  11  12
ATOM     12  C   UNL     1       2.252   2.056  18.767  0.00  0.00    +0.000 C 
BRANCH  12  13
ATOM     13  C   UNL     1       1.537   3.271  18.183  0.00  0.00    +0.000 C 
BRANCH  13  14
ATOM     14  N   UNL     1       1.719   4.462  18.984  0.00  0.00    +0.000 N 
ATOM     15  C   UNL     1       1.494   4.580  20.326  0.00  0.00    +0.000 A 
ATOM     16  C   UNL     1       1.850   5.873  20.632  0.00  0.00    +0.000 A 
ATOM     17  N   UNL     1       2.288   6.534  19.514  0.00  0.00    +0.000 NA
ATOM     18  C   UNL     1       2.202   5.659  18.537  0.00  0.00    +0.000 A 
ENDBRANCH  13  14
ENDBRANCH  12  13
ENDBRANCH  11  12
ENDBRANCH   3  11
TORSDOF 6
ENDMDL
MODEL 6
REMARK VINA RESULT:      -5.3      1.031      1.733
REMARK  Name = 
REMARK  9 active torsions:
REMARK  status: ('A' for Active; 'I' for Inactive)
REMARK    1  A    between atoms: C_1  and  C_2
REMARK    2  A    between atoms: C_2  and  C_3
REMARK    3  A    between atoms: C_2  and  C_4
REMARK    4  A    between atoms: C_2  and  N_5
REMARK    5  A    between atoms: C_6  and  S_7
REMARK    6  A    between atoms: N_8  and  C_9
REMARK    7  A    between atoms: C_9  and  C_10
REMARK    8  A    between atoms: C_10  and  C_11
REMARK    9  A    between atoms: C_11  and  N_12
REMARK                            x       y       z     vdW  Elec       q    Type
REMARK                         _______ _______ _______ _____ _____    ______ ____
ROOT
ATOM      1  N   UNL     1       3.137   3.837  19.900  0.00  0.00    +0.000 NA
ATOM      2  C   UNL     1       3.968   3.137  19.227  0.00  0.00    +0.000 C 
ATOM      3  N   UNL     1       5.211   3.590  18.899  0.00  0.00    +0.000 N 
ATOM      4  H   UNL     1       5.818   2.930  18.427  0.00  0.00    +0.000 HD
ENDROOT
BRANCH   1   6
ATOM      5  C   UNL     1       0.983   4.854  20.588  0.00  0.00    +0.000 C 
ATOM      6  C   UNL     1       1.774   3.565  20.347  0.00  0.00    +0.000 C 
ATOM      7  C   UNL     1       1.750   2.602  21.539  0.00  0.00    +0.000 C 
ATOM      8  C   UNL     1       1.092   2.835  19.167  0.00  0.00    +0.000 C 
ENDBRANCH   1   6
BRANCH   2   9
ATOM      9  S   UNL     1       3.747   1.525  18.587  0.00  0.00    +0.000 S 
ATOM     10  H   UNL     1       3.581   1.831  17.303  0.00  0.00    +0.000 HD
ENDBRANCH   2   9
BRANCH   3  11
ATOM     11  C   UNL     1       5.748   4.886  19.224  0.00  0.00    +0.000 C 
BRANCH  11  12
ATOM     12  C   UNL     1       5.557   5.857  18.064  0.00  0.00    +0.000 C 
BRANCH  12  13
ATOM     13  C   UNL     1       4.879   5.151  16.895  0.00  0.00    +0.000 C 
BRANCH  13  14
ATOM     14  N   UNL     1       5.770   4.949  15.773  0.00  0.00    +0.000 N 
ATOM     15  C   UNL     1       5.492   4.252  14.631  0.00  0.00    +0.000 A 
ATOM     16  C   UNL     1       6.620   4.381  13.855  0.00  0.00    +0.000 A 
ATOM     17  N   UNL     1       7.566   5.140  14.495  0.00  0.00    +0.000 NA
ATOM     18  C   UNL     1       7.026   5.471  15.646  0.00  0.00    +0.000 A 
ENDBRANCH  13  14
ENDBRANCH  12  13
ENDBRANCH  11  12
ENDBRANCH   3  11
TORSDOF 6
ENDMDL
MODEL 7
REMARK VINA RESULT:      -5.3      0.948      1.501
REMARK  Name = 
REMARK  9 active torsions:
REMARK  status: ('A' for Active; 'I' for Inactive)
REMARK    1  A    between atoms: C_1  and  C_2
REMARK    2  A    between atoms: C_2  and  C_3
REMARK    3  A    between atoms: C_2  and  C_4
REMARK    4  A    between atoms: C_2  and  N_5
REMARK    5  A    between atoms: C_6  and  S_7
REMARK    6  A    between atoms: N_8  and  C_9
REMARK    7  A    between atoms: C_9  and  C_10
REMARK    8  A    between atoms: C_10  and  C_11
REMARK    9  A    between atoms: C_11  and  N_12
REMARK                            x       y       z     vdW  Elec       q    Type
REMARK                         _______ _______ _______ _____ _____    ______ ____
ROOT
ATOM      1  N   UNL     1       3.636   4.842  19.836  0.00  0.00    +0.000 NA
ATOM      2  C   UNL     1       4.499   3.951  19.528  0.00  0.00    +0.000 C 
ATOM      3  N   UNL     1       5.804   4.250  19.272  0.00  0.00    +0.000 N 
ATOM      4  H   UNL     1       6.421   3.463  19.109  0.00  0.00    +0.000 HD
ENDROOT
BRANCH   1   6
ATOM      5  C   UNL     1       1.428   4.092  18.994  0.00  0.00    +0.000 C 
ATOM      6  C   UNL     1       2.210   4.753  20.133  0.00  0.00    +0.000 C 
ATOM      7  C   UNL     1       1.634   6.106  20.563  0.00  0.00    +0.000 C 
ATOM      8  C   UNL     1       2.102   3.811  21.355  0.00  0.00    +0.000 C 
ENDBRANCH   1   6
BRANCH   2   9
ATOM      9  S   UNL     1       4.253   2.228  19.359  0.00  0.00    +0.000 S 
ATOM     10  H   UNL     1       3.695   2.214  18.151  0.00  0.00    +0.000 HD
ENDBRANCH   2   9
BRANCH   3  11
ATOM     11  C   UNL     1       6.382   5.569  19.283  0.00  0.00    +0.000 C 
BRANCH  11  12
ATOM     12  C   UNL     1       7.469   5.692  18.221  0.00  0.00    +0.000 C 
BRANCH  12  13
ATOM     13  C   UNL     1       7.600   4.382  17.451  0.00  0.00    +0.000 C 
BRANCH  13  14
ATOM     14  N   UNL     1       7.024   4.454  16.126  0.00  0.00    +0.000 N 
ATOM     15  C   UNL     1       5.888   3.825  15.700  0.00  0.00    +0.000 A 
ATOM     16  C   UNL     1       5.726   4.234  14.397  0.00  0.00    +0.000 A 
ATOM     17  N   UNL     1       6.728   5.095  14.029  0.00  0.00    +0.000 NA
ATOM     18  C   UNL     1       7.492   5.212  15.090  0.00  0.00    +0.000 A 
ENDBRANCH  13  14
ENDBRANCH  12  13
ENDBRANCH  11  12
ENDBRANCH   3  11
TORSDOF 6
ENDMDL
MODEL 8
REMARK VINA RESULT:      -5.3      0.814      1.121
REMARK  Name = 
REMARK  9 active torsions:
REMARK  status: ('A' for Active; 'I' for Inactive)
REMARK    1  A    between atoms: C_1  and  C_2
REMARK    2  A    between atoms: C_2  and  C_3
REMARK    3  A    between atoms: C_2  and  C_4
REMARK    4  A    between atoms: C_2  and  N_5
REMARK    5  A    between atoms: C_6  and  S_7
REMARK    6  A    between atoms: N_8  and  C_9
REMARK    7  A    between atoms: C_9  and  C_10
REMARK    8  A    between atoms: C_10  and  C_11
REMARK    9  A    between atoms: C_11  and  N_12
REMARK                            x       y       z     vdW  Elec       q    Type
REMARK                         _______ _______ _______ _____ _____    ______ ____
ROOT
ATOM      1  N   UNL     1       3.242   3.747  19.894  0.00  0.00    +0.000 NA
ATOM      2  C   UNL     1       4.293   3.079  19.605  0.00  0.00    +0.000 C 
ATOM      3  N   UNL     1       5.480   3.674  19.297  0.00  0.00    +0.000 N 
ATOM      4  H   UNL     1       6.268   3.054  19.155  0.00  0.00    +0.000 HD
ENDROOT
BRANCH   1   6
ATOM      5  C   UNL     1       1.838   2.587  21.577  0.00  0.00    +0.000 C 
ATOM      6  C   UNL     1       1.887   3.328  20.237  0.00  0.00    +0.000 C 
ATOM      7  C   UNL     1       1.223   2.558  19.090  0.00  0.00    +0.000 C 
ATOM      8  C   UNL     1       1.086   4.638  20.422  0.00  0.00    +0.000 C 
ENDBRANCH   1   6
BRANCH   2   9
ATOM      9  S   UNL     1       4.475   1.341  19.526  0.00  0.00    +0.000 S 
ATOM     10  H   UNL     1       3.613   1.085  18.545  0.00  0.00    +0.000 HD
ENDBRANCH   2   9
BRANCH   3  11
ATOM     11  C   UNL     1       5.716   5.092  19.228  0.00  0.00    +0.000 C 
BRANCH  11  12
ATOM     12  C   UNL     1       7.179   5.383  18.909  0.00  0.00    +0.000 C 
BRANCH  12  13
ATOM     13  C   UNL     1       7.604   4.619  17.659  0.00  0.00    +0.000 C 
BRANCH  13  14
ATOM     14  N   UNL     1       6.694   4.814  16.551  0.00  0.00    +0.000 N 
ATOM     15  C   UNL     1       6.209   6.009  16.100  0.00  0.00    +0.000 A 
ATOM     16  C   UNL     1       5.431   5.687  15.013  0.00  0.00    +0.000 A 
ATOM     17  N   UNL     1       5.439   4.333  14.794  0.00  0.00    +0.000 NA
ATOM     18  C   UNL     1       6.210   3.834  15.732  0.00  0.00    +0.000 A 
ENDBRANCH  13  14
ENDBRANCH  12  13
ENDBRANCH  11  12
ENDBRANCH   3  11
TORSDOF 6
ENDMDL
MODEL 9
REMARK VINA RESULT:      -5.3      1.311      1.759
REMARK  Name = 
REMARK  9 active torsions:
REMARK  status: ('A' for Active; 'I' for Inactive)
REMARK    1  A    between atoms: C_1  and  C_2
REMARK    2  A    between atoms: C_2  and  C_3
REMARK    3  A    between atoms: C_2  and  C_4
REMARK    4  A    between atoms: C_2  and  N_5
REMARK    5  A    between atoms: C_6  and  S_7
REMARK    6  A    between atoms: N_8  and  C_9
REMARK    7  A    between atoms: C_9  and  C_10
REMARK    8  A    between atoms: C_10  and  C_11
REMARK    9  A    between atoms: C_11  and  N_12
REMARK                            x       y       z     vdW  Elec       q    Type
REMARK                         _______ _______ _______ _____ _____    ______ ____
ROOT
ATOM      1  N   UNL     1       4.086   5.575  19.288  0.00  0.00    +0.000 NA
ATOM      2  C   UNL     1       4.721   4.466  19.326  0.00  0.00    +0.000 C 
ATOM      3  N   UNL     1       6.075   4.400  19.470  0.00  0.00    +0.000 N 
ATOM      4  H   UNL     1       6.471   3.472  19.561  0.00  0.00    +0.000 HD
ENDROOT
BRANCH   1   6
ATOM      5  C   UNL     1       2.032   5.074  17.992  0.00  0.00    +0.000 C 
ATOM      6  C   UNL     1       2.667   5.878  19.131  0.00  0.00    +0.000 C 
ATOM      7  C   UNL     1       2.418   7.387  19.025  0.00  0.00    +0.000 C 
ATOM      8  C   UNL     1       1.998   5.403  20.441  0.00  0.00    +0.000 C 
ENDBRANCH   1   6
BRANCH   2   9
ATOM      9  S   UNL     1       4.068   2.848  19.206  0.00  0.00    +0.000 S 
ATOM     10  H   UNL     1       4.764   2.269  20.182  0.00  0.00    +0.000 HD
ENDBRANCH   2   9
BRANCH   3  11
ATOM     11  C   UNL     1       6.966   5.526  19.570  0.00  0.00    +0.000 C 
BRANCH  11  12
ATOM     12  C   UNL     1       7.573   5.859  18.212  0.00  0.00    +0.000 C 
BRANCH  12  13
ATOM     13  C   UNL     1       7.584   4.619  17.325  0.00  0.00    +0.000 C 
BRANCH  13  14
ATOM     14  N   UNL     1       6.716   4.749  16.174  0.00  0.00    +0.000 N 
ATOM     15  C   UNL     1       6.586   3.852  15.151  0.00  0.00    +0.000 A 
ATOM     16  C   UNL     1       5.621   4.390  14.332  0.00  0.00    +0.000 A 
ATOM     17  N   UNL     1       5.163   5.581  14.836  0.00  0.00    +0.000 NA
ATOM     18  C   UNL     1       5.838   5.769  15.947  0.00  0.00    +0.000 A 
ENDBRANCH  13  14
ENDBRANCH  12  13
ENDBRANCH  11  12
ENDBRANCH   3  11
TORSDOF 6
ENDMDL
