MODEL 1
REMARK VINA RESULT:      -7.8      0.000      0.000
REMARK  Name = 
REMARK  2 active torsions:
REMARK  status: ('A' for Active; 'I' for Inactive)
REMARK    1  A    between atoms: C_1  and  C_2
REMARK    2  A    between atoms: C_6  and  C_7
REMARK                            x       y       z     vdW  Elec       q    Type
REMARK                         _______ _______ _______ _____ _____    ______ ____
ROOT
ATOM      1  C   UNL     1       3.944   3.454  18.002  0.00  0.00    +0.000 A 
ATOM      2  C   UNL     1       4.004   2.085  17.773  0.00  0.00    +0.000 A 
ATOM      3  N   UNL     1       2.937   1.504  18.396  0.00  0.00    +0.000 N 
ATOM      4  C   UNL     1       2.202   2.454  19.035  0.00  0.00    +0.000 A 
ATOM      5  N   UNL     1       1.129   2.143  19.772  0.00  0.00    +0.000 NA
ATOM      6  C   UNL     1       0.595   3.233  20.329  0.00  0.00    +0.000 A 
ATOM      7  N   UNL     1       1.003   4.504  20.192  0.00  0.00    +0.000 NA
ATOM      8  C   UNL     1       2.077   4.810  19.407  0.00  0.00    +0.000 A 
ATOM      9  N   UNL     1       2.390   6.148  19.316  0.00  0.00    +0.000 N 
ATOM     10  C   UNL     1       2.204   7.015  20.488  0.00  0.00    +0.000 C 
ATOM     11  C   UNL     1       1.449   8.298  20.112  0.00  0.00    +0.000 C 
ATOM     12  O   UNL     1       2.039   8.968  18.986  0.00  0.00    +0.000 OA
ATOM     13  C   UNL     1       2.025   8.100  17.840  0.00  0.00    +0.000 C 
ATOM     14  C   UNL     1       2.837   6.827  18.101  0.00  0.00    +0.000 C 
ATOM     15  C   UNL     1       2.761   3.713  18.797  0.00  0.00    +0.000 A 
ATOM     16  H   UNL     1       2.727   0.516  18.426  0.00  0.00    +0.000 HD
ENDROOT
BRANCH   1  22
ATOM     17  C   UNL     1       7.918   6.439  18.722  0.00  0.00    +0.000 C 
ATOM     18  C   UNL     1       6.986   5.689  17.825  0.00  0.00    +0.000 A 
ATOM     19  C   UNL     1       7.057   5.819  16.445  0.00  0.00    +0.000 A 
ATOM     20  N   UNL     1       6.131   5.327  15.600  0.00  0.00    +0.000 NA
ATOM     21  C   UNL     1       5.102   4.637  16.155  0.00  0.00    +0.000 A 
ATOM     22  C   UNL     1       5.005   4.321  17.502  0.00  0.00    +0.000 A 
ATOM     23  C   UNL     1       5.958   4.895  18.350  0.00  0.00    +0.000 A 
ENDBRANCH   1  22
TORSDOF 1
ENDMDL
MODEL 2
REMARK VINA RESULT:      -7.6      0.800      1.452
REMARK  Name = 
REMARK  2 active torsions:
REMARK  status: ('A' for Active; 'I' for Inactive)
REMARK    1  A    between atoms: C_1  and  C_2
REMARK    2  A    between atoms: C_6  and  C_7
REMARK                            x       y       z     vdW  Elec       q    Type
REMARK                         _______ _______ _______ _____ _____    ______ ____
ROOT
ATOM      1  C   UNL     1       3.933   3.310  18.039  0.00  0.00    +0.000 A 
ATOM      2  C   UNL     1       3.953   1.933  17.862  0.00  0.00    +0.000 A 
ATOM      3  N   UNL     1       2.864   1.408  18.497  0.00  0.00    +0.000 N 
ATOM      4  C   UNL     1       2.153   2.403  19.092  0.00  0.00    +0.000 A 
ATOM      5  N   UNL     1       1.065   2.153  19.830  0.00  0.00    +0.000 NA
ATOM      6  C   UNL     1       0.560   3.278  20.341  0.00  0.00    +0.000 A 
ATOM      7  N   UNL     1       1.007   4.530  20.160  0.00  0.00    +0.000 NA
ATOM      8  C   UNL     1       2.096   4.774  19.374  0.00  0.00    +0.000 A 
ATOM      9  N   UNL     1       2.451   6.098  19.236  0.00  0.00    +0.000 N 
ATOM     10  C   UNL     1       2.282   7.013  20.373  0.00  0.00    +0.000 C 
ATOM     11  C   UNL     1       1.569   8.303  19.942  0.00  0.00    +0.000 C 
ATOM     12  O   UNL     1       2.188   8.912  18.798  0.00  0.00    +0.000 OA
ATOM     13  C   UNL     1       2.158   8.003  17.685  0.00  0.00    +0.000 C 
ATOM     14  C   UNL     1       2.929   6.717  18.001  0.00  0.00    +0.000 C 
ATOM     15  C   UNL     1       2.752   3.635  18.812  0.00  0.00    +0.000 A 
ATOM     16  H   UNL     1       2.624   0.429  18.562  0.00  0.00    +0.000 HD
ENDROOT
BRANCH   1  22
ATOM     17  C   UNL     1       6.841   4.906  14.268  0.00  0.00    +0.000 C 
ATOM     18  C   UNL     1       6.375   4.981  15.687  0.00  0.00    +0.000 A 
ATOM     19  C   UNL     1       6.998   5.814  16.606  0.00  0.00    +0.000 A 
ATOM     20  N   UNL     1       6.752   5.781  17.930  0.00  0.00    +0.000 NA
ATOM     21  C   UNL     1       5.810   4.902  18.356  0.00  0.00    +0.000 A 
ATOM     22  C   UNL     1       5.024   4.126  17.517  0.00  0.00    +0.000 A 
ATOM     23  C   UNL     1       5.346   4.151  16.155  0.00  0.00    +0.000 A 
ENDBRANCH   1  22
TORSDOF 1
ENDMDL
MODEL 3
REMARK VINA RESULT:      -6.8      2.179      4.844
REMARK  Name = 
REMARK  2 active torsions:
REMARK  status: ('A' for Active; 'I' for Inactive)
REMARK    1  A    between atoms: C_1  and  C_2
REMARK    2  A    between atoms: C_6  and  C_7
REMARK                            x       y       z     vdW  Elec       q    Type
REMARK                         _______ _______ _______ _____ _____    ______ ____
ROOT
ATOM      1  C   UNL     1       2.471   5.659  19.881  0.00  0.00    +0.000 A 
ATOM      2  C   UNL     1       1.598   5.302  20.901  0.00  0.00    +0.000 A 
ATOM      3  N   UNL     1       1.942   4.054  21.336  0.00  0.00    +0.000 N 
ATOM      4  C   UNL     1       2.998   3.589  20.616  0.00  0.00    +0.000 A 
ATOM      5  N   UNL     1       3.499   2.362  20.805  0.00  0.00    +0.000 NA
ATOM      6  C   UNL     1       4.504   2.118  19.960  0.00  0.00    +0.000 A 
ATOM      7  N   UNL     1       5.018   2.948  19.040  0.00  0.00    +0.000 NA
ATOM      8  C   UNL     1       4.521   4.209  18.884  0.00  0.00    +0.000 A 
ATOM      9  N   UNL     1       5.142   4.985  17.930  0.00  0.00    +0.000 N 
ATOM     10  C   UNL     1       5.644   4.354  16.701  0.00  0.00    +0.000 C 
ATOM     11  C   UNL     1       7.087   4.789  16.407  0.00  0.00    +0.000 C 
ATOM     12  O   UNL     1       7.241   6.217  16.427  0.00  0.00    +0.000 OA
ATOM     13  C   UNL     1       6.885   6.728  17.723  0.00  0.00    +0.000 C 
ATOM     14  C   UNL     1       5.424   6.413  18.059  0.00  0.00    +0.000 C 
ATOM     15  C   UNL     1       3.406   4.567  19.705  0.00  0.00    +0.000 A 
ATOM     16  H   UNL     1       1.473   3.521  22.055  0.00  0.00    +0.000 HD
ENDROOT
BRANCH   1  22
ATOM     17  C   UNL     1       0.955  10.444  19.733  0.00  0.00    +0.000 C 
ATOM     18  C   UNL     1       1.654   9.270  19.125  0.00  0.00    +0.000 A 
ATOM     19  C   UNL     1       2.138   9.316  17.825  0.00  0.00    +0.000 A 
ATOM     20  N   UNL     1       2.599   8.237  17.162  0.00  0.00    +0.000 NA
ATOM     21  C   UNL     1       2.614   7.062  17.841  0.00  0.00    +0.000 A 
ATOM     22  C   UNL     1       2.293   6.927  19.183  0.00  0.00    +0.000 A 
ATOM     23  C   UNL     1       1.770   8.058  19.820  0.00  0.00    +0.000 A 
ENDBRANCH   1  22
TORSDOF 1
ENDMDL
MODEL 4
REMARK VINA RESULT:      -6.5      1.551      4.796
REMARK  Name = 
REMARK  2 active torsions:
REMARK  status: ('A' for Active; 'I' for Inactive)
REMARK    1  A    between atoms: C_1  and  C_2
REMARK    2  A    between atoms: C_6  and  C_7
REMARK                            x       y       z     vdW  Elec       q    Type
REMARK                         _______ _______ _______ _____ _____    ______ ____
ROOT
ATOM      1  C   UNL     1       4.427   4.183  18.453  0.00  0.00    +0.000 A 
ATOM      2  C   UNL     1       5.509   3.324  18.315  0.00  0.00    +0.000 A 
ATOM      3  N   UNL     1       6.572   4.051  17.861  0.00  0.00    +0.000 N 
ATOM      4  C   UNL     1       6.202   5.349  17.686  0.00  0.00    +0.000 A 
ATOM      5  N   UNL     1       7.045   6.266  17.195  0.00  0.00    +0.000 NA
ATOM      6  C   UNL     1       6.448   7.455  17.079  0.00  0.00    +0.000 A 
ATOM      7  N   UNL     1       5.190   7.773  17.416  0.00  0.00    +0.000 NA
ATOM      8  C   UNL     1       4.353   6.837  17.951  0.00  0.00    +0.000 A 
ATOM      9  N   UNL     1       3.093   7.280  18.286  0.00  0.00    +0.000 N 
ATOM     10  C   UNL     1       2.440   8.298  17.451  0.00  0.00    +0.000 C 
ATOM     11  C   UNL     1       1.866   9.433  18.312  0.00  0.00    +0.000 C 
ATOM     12  O   UNL     1       1.038   8.943  19.379  0.00  0.00    +0.000 OA
ATOM     13  C   UNL     1       1.807   8.087  20.240  0.00  0.00    +0.000 C 
ATOM     14  C   UNL     1       2.346   6.873  19.474  0.00  0.00    +0.000 C 
ATOM     15  C   UNL     1       4.870   5.510  18.076  0.00  0.00    +0.000 A 
ATOM     16  H   UNL     1       7.492   3.695  17.644  0.00  0.00    +0.000 HD
ENDROOT
BRANCH   1  22
ATOM     17  C   UNL     1       1.255   2.494  21.961  0.00  0.00    +0.000 C 
ATOM     18  C   UNL     1       1.552   2.930  20.562  0.00  0.00    +0.000 A 
ATOM     19  C   UNL     1       0.604   2.810  19.555  0.00  0.00    +0.000 A 
ATOM     20  N   UNL     1       0.874   3.002  18.249  0.00  0.00    +0.000 NA
ATOM     21  C   UNL     1       2.142   3.368  17.934  0.00  0.00    +0.000 A 
ATOM     22  C   UNL     1       3.130   3.657  18.864  0.00  0.00    +0.000 A 
ATOM     23  C   UNL     1       2.825   3.395  20.204  0.00  0.00    +0.000 A 
ENDBRANCH   1  22
TORSDOF 1
ENDMDL
MODEL 5
REMARK VINA RESULT:      -6.4      1.734      4.726
REMARK  Name = 
REMARK  2 active torsions:
REMARK  status: ('A' for Active; 'I' for Inactive)
REMARK    1  A    between atoms: C_1  and  C_2
REMARK    2  A    between atoms: C_6  and  C_7
REMARK                            x       y       z     vdW  Elec       q    Type
REMARK                         _______ _______ _______ _____ _____    ______ ____
ROOT
ATOM      1  C   UNL     1       1.967   4.867  19.576  0.00  0.00    +0.000 A 
ATOM      2  C   UNL     1       1.094   4.173  20.404  0.00  0.00    +0.000 A 
ATOM      3  N   UNL     1       1.355   2.839  20.272  0.00  0.00    +0.000 N 
ATOM      4  C   UNL     1       2.358   2.653  19.372  0.00  0.00    +0.000 A 
ATOM      5  N   UNL     1       2.773   1.430  19.017  0.00  0.00    +0.000 NA
ATOM      6  C   UNL     1       3.738   1.498  18.096  0.00  0.00    +0.000 A 
ATOM      7  N   UNL     1       4.290   2.603  17.571  0.00  0.00    +0.000 NA
ATOM      8  C   UNL     1       3.883   3.843  17.971  0.00  0.00    +0.000 A 
ATOM      9  N   UNL     1       4.537   4.905  17.387  0.00  0.00    +0.000 N 
ATOM     10  C   UNL     1       4.963   4.809  15.984  0.00  0.00    +0.000 C 
ATOM     11  C   UNL     1       6.427   5.243  15.821  0.00  0.00    +0.000 C 
ATOM     12  O   UNL     1       6.685   6.525  16.416  0.00  0.00    +0.000 OA
ATOM     13  C   UNL     1       6.398   6.476  17.823  0.00  0.00    +0.000 C 
ATOM     14  C   UNL     1       4.925   6.135  18.075  0.00  0.00    +0.000 C 
ATOM     15  C   UNL     1       2.816   3.894  18.921  0.00  0.00    +0.000 A 
ATOM     16  H   UNL     1       0.866   2.085  20.732  0.00  0.00    +0.000 HD
ENDROOT
BRANCH   1  22
ATOM     17  C   UNL     1       1.134   9.398  21.575  0.00  0.00    +0.000 C 
ATOM     18  C   UNL     1       1.561   8.524  20.440  0.00  0.00    +0.000 A 
ATOM     19  C   UNL     1       1.846   9.057  19.190  0.00  0.00    +0.000 A 
ATOM     20  N   UNL     1       2.046   8.308  18.088  0.00  0.00    +0.000 NA
ATOM     21  C   UNL     1       1.998   6.961  18.246  0.00  0.00    +0.000 A 
ATOM     22  C   UNL     1       1.866   6.318  19.468  0.00  0.00    +0.000 A 
ATOM     23  C   UNL     1       1.609   7.130  20.579  0.00  0.00    +0.000 A 
ENDBRANCH   1  22
TORSDOF 1
ENDMDL
MODEL 6
REMARK VINA RESULT:      -6.4      1.732      4.767
REMARK  Name = 
REMARK  2 active torsions:
REMARK  status: ('A' for Active; 'I' for Inactive)
REMARK    1  A    between atoms: C_1  and  C_2
REMARK    2  A    between atoms: C_6  and  C_7
REMARK                            x       y       z     vdW  Elec       q    Type
REMARK                         _______ _______ _______ _____ _____    ______ ____
ROOT
ATOM      1  C   UNL     1       1.957   4.842  19.772  0.00  0.00    +0.000 A 
ATOM      2  C   UNL     1       1.094   4.095  20.563  0.00  0.00    +0.000 A 
ATOM      3  N   UNL     1       1.327   2.773  20.314  0.00  0.00    +0.000 N 
ATOM      4  C   UNL     1       2.302   2.646  19.373  0.00  0.00    +0.000 A 
ATOM      5  N   UNL     1       2.684   1.451  18.905  0.00  0.00    +0.000 NA
ATOM      6  C   UNL     1       3.625   1.580  17.966  0.00  0.00    +0.000 A 
ATOM      7  N   UNL     1       4.183   2.715  17.520  0.00  0.00    +0.000 NA
ATOM      8  C   UNL     1       3.810   3.924  18.033  0.00  0.00    +0.000 A 
ATOM      9  N   UNL     1       4.468   5.021  17.521  0.00  0.00    +0.000 N 
ATOM     10  C   UNL     1       4.854   5.035  16.103  0.00  0.00    +0.000 C 
ATOM     11  C   UNL     1       6.320   5.457  15.935  0.00  0.00    +0.000 C 
ATOM     12  O   UNL     1       6.619   6.680  16.627  0.00  0.00    +0.000 OA
ATOM     13  C   UNL     1       6.369   6.519  18.033  0.00  0.00    +0.000 C 
ATOM     14  C   UNL     1       4.897   6.182  18.297  0.00  0.00    +0.000 C 
ATOM     15  C   UNL     1       2.770   3.913  19.014  0.00  0.00    +0.000 A 
ATOM     16  H   UNL     1       0.836   1.991  20.723  0.00  0.00    +0.000 HD
ENDROOT
BRANCH   1  22
ATOM     17  C   UNL     1       2.192   9.303  17.478  0.00  0.00    +0.000 C 
ATOM     18  C   UNL     1       1.895   8.458  18.675  0.00  0.00    +0.000 A 
ATOM     19  C   UNL     1       1.568   9.031  19.897  0.00  0.00    +0.000 A 
ATOM     20  N   UNL     1       1.481   8.336  21.047  0.00  0.00    +0.000 NA
ATOM     21  C   UNL     1       1.692   6.998  20.971  0.00  0.00    +0.000 A 
ATOM     22  C   UNL     1       1.881   6.299  19.788  0.00  0.00    +0.000 A 
ATOM     23  C   UNL     1       2.017   7.063  18.624  0.00  0.00    +0.000 A 
ENDBRANCH   1  22
TORSDOF 1
ENDMDL
MODEL 7
REMARK VINA RESULT:      -6.1      8.693     11.682
REMARK  Name = 
REMARK  2 active torsions:
REMARK  status: ('A' for Active; 'I' for Inactive)
REMARK    1  A    between atoms: C_1  and  C_2
REMARK    2  A    between atoms: C_6  and  C_7
REMARK                            x       y       z     vdW  Elec       q    Type
REMARK                         _______ _______ _______ _____ _____    ______ ____
ROOT
ATOM      1  C   UNL     1      10.780  13.413  18.093  0.00  0.00    +0.000 A 
ATOM      2  C   UNL     1      11.994  13.276  17.431  0.00  0.00    +0.000 A 
ATOM      3  N   UNL     1      12.333  14.492  16.911  0.00  0.00    +0.000 N 
ATOM      4  C   UNL     1      11.367  15.404  17.202  0.00  0.00    +0.000 A 
ATOM      5  N   UNL     1      11.428  16.666  16.760  0.00  0.00    +0.000 NA
ATOM      6  C   UNL     1      10.353  17.362  17.140  0.00  0.00    +0.000 A 
ATOM      7  N   UNL     1       9.326  16.933  17.889  0.00  0.00    +0.000 NA
ATOM      8  C   UNL     1       9.296  15.654  18.365  0.00  0.00    +0.000 A 
ATOM      9  N   UNL     1       8.208  15.330  19.146  0.00  0.00    +0.000 N 
ATOM     10  C   UNL     1       6.896  15.913  18.833  0.00  0.00    +0.000 C 
ATOM     11  C   UNL     1       6.235  16.492  20.092  0.00  0.00    +0.000 C 
ATOM     12  O   UNL     1       6.205  15.549  21.176  0.00  0.00    +0.000 OA
ATOM     13  C   UNL     1       7.545  15.163  21.523  0.00  0.00    +0.000 C 
ATOM     14  C   UNL     1       8.251  14.490  20.341  0.00  0.00    +0.000 C 
ATOM     15  C   UNL     1      10.375  14.799  17.978  0.00  0.00    +0.000 A 
ATOM     16  H   UNL     1      13.152  14.698  16.357  0.00  0.00    +0.000 HD
ENDROOT
BRANCH   1  22
ATOM     17  C   UNL     1       8.091   9.185  17.756  0.00  0.00    +0.000 C 
ATOM     18  C   UNL     1       8.928  10.149  18.535  0.00  0.00    +0.000 A 
ATOM     19  C   UNL     1       9.107  10.002  19.904  0.00  0.00    +0.000 A 
ATOM     20  N   UNL     1       9.683  10.936  20.685  0.00  0.00    +0.000 NA
ATOM     21  C   UNL     1      10.138  12.055  20.067  0.00  0.00    +0.000 A 
ATOM     22  C   UNL     1      10.144  12.246  18.693  0.00  0.00    +0.000 A 
ATOM     23  C   UNL     1       9.491  11.278  17.923  0.00  0.00    +0.000 A 
ENDBRANCH   1  22
TORSDOF 1
ENDMDL
MODEL 8
REMARK VINA RESULT:      -6.0      7.391     10.203
REMARK  Name = 
REMARK  2 active torsions:
REMARK  status: ('A' for Active; 'I' for Inactive)
REMARK    1  A    between atoms: C_1  and  C_2
REMARK    2  A    between atoms: C_6  and  C_7
REMARK                            x       y       z     vdW  Elec       q    Type
REMARK                         _______ _______ _______ _____ _____    ______ ____
ROOT
ATOM      1  C   UNL     1      -3.200  11.507  18.007  0.00  0.00    +0.000 A 
ATOM      2  C   UNL     1      -3.504  11.027  16.740  0.00  0.00    +0.000 A 
ATOM      3  N   UNL     1      -4.858  11.097  16.574  0.00  0.00    +0.000 N 
ATOM      4  C   UNL     1      -5.436  11.591  17.702  0.00  0.00    +0.000 A 
ATOM      5  N   UNL     1      -6.764  11.710  17.824  0.00  0.00    +0.000 NA
ATOM      6  C   UNL     1      -7.096  12.181  19.028  0.00  0.00    +0.000 A 
ATOM      7  N   UNL     1      -6.269  12.538  20.023  0.00  0.00    +0.000 NA
ATOM      8  C   UNL     1      -4.916  12.446  19.871  0.00  0.00    +0.000 A 
ATOM      9  N   UNL     1      -4.162  12.865  20.945  0.00  0.00    +0.000 N 
ATOM     10  C   UNL     1      -4.656  12.630  22.309  0.00  0.00    +0.000 C 
ATOM     11  C   UNL     1      -4.565  13.908  23.156  0.00  0.00    +0.000 C 
ATOM     12  O   UNL     1      -3.258  14.501  23.109  0.00  0.00    +0.000 OA
ATOM     13  C   UNL     1      -2.929  14.850  21.754  0.00  0.00    +0.000 C 
ATOM     14  C   UNL     1      -2.909  13.611  20.853  0.00  0.00    +0.000 C 
ATOM     15  C   UNL     1      -4.444  11.905  18.634  0.00  0.00    +0.000 A 
ATOM     16  H   UNL     1      -5.377  10.796  15.761  0.00  0.00    +0.000 HD
ENDROOT
BRANCH   1  22
ATOM     17  C   UNL     1       0.600   9.316  20.453  0.00  0.00    +0.000 C 
ATOM     18  C   UNL     1       0.055  10.396  19.575  0.00  0.00    +0.000 A 
ATOM     19  C   UNL     1       0.838  11.478  19.196  0.00  0.00    +0.000 A 
ATOM     20  N   UNL     1       0.351  12.569  18.574  0.00  0.00    +0.000 NA
ATOM     21  C   UNL     1      -0.973  12.567  18.280  0.00  0.00    +0.000 A 
ATOM     22  C   UNL     1      -1.820  11.486  18.480  0.00  0.00    +0.000 A 
ATOM     23  C   UNL     1      -1.289  10.394  19.175  0.00  0.00    +0.000 A 
ENDBRANCH   1  22
TORSDOF 1
ENDMDL
MODEL 9
REMARK VINA RESULT:      -6.0      6.209     10.260
REMARK  Name = 
REMARK  2 active torsions:
REMARK  status: ('A' for Active; 'I' for Inactive)
REMARK    1  A    between atoms: C_1  and  C_2
REMARK    2  A    between atoms: C_6  and  C_7
REMARK                            x       y       z     vdW  Elec       q    Type
REMARK                         _______ _______ _______ _____ _____    ______ ____
ROOT
ATOM      1  C   UNL     1      -3.479  12.290  19.646  0.00  0.00    +0.000 A 
ATOM      2  C   UNL     1      -4.696  12.740  19.150  0.00  0.00    +0.000 A 
ATOM      3  N   UNL     1      -4.875  12.199  17.910  0.00  0.00    +0.000 N 
ATOM      4  C   UNL     1      -3.802  11.428  17.584  0.00  0.00    +0.000 A 
ATOM      5  N   UNL     1      -3.699  10.823  16.394  0.00  0.00    +0.000 NA
ATOM      6  C   UNL     1      -2.547  10.156  16.291  0.00  0.00    +0.000 A 
ATOM      7  N   UNL     1      -1.587  10.035  17.220  0.00  0.00    +0.000 NA
ATOM      8  C   UNL     1      -1.723  10.626  18.443  0.00  0.00    +0.000 A 
ATOM      9  N   UNL     1      -0.691  10.413  19.330  0.00  0.00    +0.000 N 
ATOM     10  C   UNL     1       0.687  10.327  18.826  0.00  0.00    +0.000 C 
ATOM     11  C   UNL     1       1.408   9.098  19.399  0.00  0.00    +0.000 C 
ATOM     12  O   UNL     1       1.311   9.027  20.830  0.00  0.00    +0.000 OA
ATOM     13  C   UNL     1      -0.069   8.947  21.223  0.00  0.00    +0.000 C 
ATOM     14  C   UNL     1      -0.847  10.185  20.764  0.00  0.00    +0.000 C 
ATOM     15  C   UNL     1      -2.900  11.411  18.650  0.00  0.00    +0.000 A 
ATOM     16  H   UNL     1      -5.658  12.362  17.292  0.00  0.00    +0.000 HD
ENDROOT
BRANCH   1  22
ATOM     17  C   UNL     1      -3.947  12.789  24.621  0.00  0.00    +0.000 C 
ATOM     18  C   UNL     1      -3.162  12.933  23.356  0.00  0.00    +0.000 A 
ATOM     19  C   UNL     1      -1.934  13.581  23.342  0.00  0.00    +0.000 A 
ATOM     20  N   UNL     1      -1.278  13.910  22.213  0.00  0.00    +0.000 NA
ATOM     21  C   UNL     1      -1.853  13.542  21.041  0.00  0.00    +0.000 A 
ATOM     22  C   UNL     1      -3.000  12.767  20.938  0.00  0.00    +0.000 A 
ATOM     23  C   UNL     1      -3.678  12.492  22.130  0.00  0.00    +0.000 A 
ENDBRANCH   1  22
TORSDOF 1
ENDMDL
