MODEL 1
REMARK VINA RESULT:      -8.0      0.000      0.000
REMARK  Name = 
REMARK  8 active torsions:
REMARK  status: ('A' for Active; 'I' for Inactive)
REMARK    1  A    between atoms: C_1  and  C_2
REMARK    2  A    between atoms: C_2  and  C_3
REMARK    3  A    between atoms: C_2  and  O_4
REMARK    4  A    between atoms: O_4  and  C_5
REMARK    5  A    between atoms: C_10  and  N_11
REMARK    6  A    between atoms: N_14  and  C_15
REMARK    7  A    between atoms: C_18  and  N_19
REMARK    8  A    between atoms: N_22  and  C_23
REMARK                            x       y       z     vdW  Elec       q    Type
REMARK                         _______ _______ _______ _____ _____    ______ ____
ROOT
ATOM      1  C   UNL     1      -0.281   9.383  20.364  0.00  0.00    +0.000 C 
ATOM      2  C   UNL     1      -0.720   8.980  21.791  0.00  0.00    +0.000 C 
ATOM      3  C   UNL     1      -0.366  10.047  22.828  0.00  0.00    +0.000 C 
ATOM      4  C   UNL     1      -0.911  11.441  22.494  0.00  0.00    +0.000 C 
ATOM      5  C   UNL     1      -0.870  11.816  21.000  0.00  0.00    +0.000 C 
ATOM      6  C   UNL     1      -1.107  10.651  20.035  0.00  0.00    +0.000 C 
ENDROOT
BRANCH   1  10
ATOM      7  N   UNL     1       2.522   7.289  18.845  0.00  0.00    +0.000 N 
ATOM      8  C   UNL     1       2.040   7.091  20.219  0.00  0.00    +0.000 C 
ATOM      9  C   UNL     1       1.951   8.462  20.959  0.00  0.00    +0.000 C 
ATOM     10  N   UNL     1       1.189   9.552  20.281  0.00  0.00    +0.000 NA
ATOM     11  C   UNL     1       1.730   9.645  18.902  0.00  0.00    +0.000 C 
ATOM     12  C   UNL     1       1.748   8.316  18.106  0.00  0.00    +0.000 C 
BRANCH   7  18
ATOM     13  C   UNL     1       2.697   4.916  18.000  0.00  0.00    +0.000 A 
ATOM     14  C   UNL     1       3.389   4.006  17.167  0.00  0.00    +0.000 A 
ATOM     15  C   UNL     1       4.576   4.361  16.542  0.00  0.00    +0.000 A 
ATOM     16  C   UNL     1       5.075   5.643  16.708  0.00  0.00    +0.000 A 
ATOM     17  C   UNL     1       4.351   6.568  17.463  0.00  0.00    +0.000 A 
ATOM     18  C   UNL     1       3.128   6.266  18.106  0.00  0.00    +0.000 A 
BRANCH  13  19
ATOM     19  O   UNL     1       1.587   4.487  18.700  0.00  0.00    +0.000 OA
BRANCH  19  21
ATOM     20  C   UNL     1       1.527   3.426  20.937  0.00  0.00    +0.000 C 
ATOM     21  C   UNL     1       1.738   3.249  19.431  0.00  0.00    +0.000 C 
ATOM     22  C   UNL     1       0.717   2.254  18.883  0.00  0.00    +0.000 C 
ENDBRANCH  19  21
ENDBRANCH  13  19
ENDBRANCH   7  18
ENDBRANCH   1  10
BRANCH   4  23
ATOM     23  N   UNL     1      -2.254  11.576  23.048  0.00  0.00    +0.000 N 
ATOM     24  C   UNL     1      -3.001  12.709  22.815  0.00  0.00    +0.000 C 
ATOM     25  O   UNL     1      -2.622  13.648  22.127  0.00  0.00    +0.000 OA
ATOM     26  N   UNL     1      -4.178  12.668  23.528  0.00  0.00    +0.000 N 
ATOM     27  H   UNL     1      -2.796  10.737  23.185  0.00  0.00    +0.000 HD
ATOM     28  H   UNL     1      -4.040  12.386  24.491  0.00  0.00    +0.000 HD
BRANCH  26  29
ATOM     29  C   UNL     1      -5.192  13.627  23.307  0.00  0.00    +0.000 A 
ATOM     30  C   UNL     1      -5.188  14.875  23.941  0.00  0.00    +0.000 A 
ATOM     31  F   UNL     1      -4.174  15.233  24.741  0.00  0.00    +0.000 F 
ATOM     32  C   UNL     1      -6.195  15.802  23.693  0.00  0.00    +0.000 A 
ATOM     33  C   UNL     1      -7.229  15.490  22.808  0.00  0.00    +0.000 A 
ATOM     34  C   UNL     1      -7.236  14.254  22.159  0.00  0.00    +0.000 A 
ATOM     35  C   UNL     1      -6.213  13.341  22.401  0.00  0.00    +0.000 A 
ATOM     36  F   UNL     1      -6.234  12.154  21.774  0.00  0.00    +0.000 F 
ENDBRANCH  26  29
ENDBRANCH   4  23
TORSDOF 6
ENDMDL
MODEL 2
REMARK VINA RESULT:      -7.9      0.145      1.422
REMARK  Name = 
REMARK  8 active torsions:
REMARK  status: ('A' for Active; 'I' for Inactive)
REMARK    1  A    between atoms: C_1  and  C_2
REMARK    2  A    between atoms: C_2  and  C_3
REMARK    3  A    between atoms: C_2  and  O_4
REMARK    4  A    between atoms: O_4  and  C_5
REMARK    5  A    between atoms: C_10  and  N_11
REMARK    6  A    between atoms: N_14  and  C_15
REMARK    7  A    between atoms: C_18  and  N_19
REMARK    8  A    between atoms: N_22  and  C_23
REMARK                            x       y       z     vdW  Elec       q    Type
REMARK                         _______ _______ _______ _____ _____    ______ ____
ROOT
ATOM      1  C   UNL     1      -0.323   9.418  20.342  0.00  0.00    +0.000 C 
ATOM      2  C   UNL     1      -0.718   9.059  21.794  0.00  0.00    +0.000 C 
ATOM      3  C   UNL     1      -0.386  10.182  22.778  0.00  0.00    +0.000 C 
ATOM      4  C   UNL     1      -0.990  11.539  22.398  0.00  0.00    +0.000 C 
ATOM      5  C   UNL     1      -0.993  11.851  20.890  0.00  0.00    +0.000 C 
ATOM      6  C   UNL     1      -1.203  10.639  19.979  0.00  0.00    +0.000 C 
ENDROOT
BRANCH   1  10
ATOM      7  N   UNL     1       2.522   7.391  18.810  0.00  0.00    +0.000 N 
ATOM      8  C   UNL     1       2.078   7.209  20.199  0.00  0.00    +0.000 C 
ATOM      9  C   UNL     1       1.954   8.594  20.909  0.00  0.00    +0.000 C 
ATOM     10  N   UNL     1       1.137   9.638  20.222  0.00  0.00    +0.000 NA
ATOM     11  C   UNL     1       1.645   9.717  18.830  0.00  0.00    +0.000 C 
ATOM     12  C   UNL     1       1.694   8.371  18.064  0.00  0.00    +0.000 C 
BRANCH   7  18
ATOM     13  C   UNL     1       2.722   5.023  17.956  0.00  0.00    +0.000 A 
ATOM     14  C   UNL     1       3.438   4.119  17.136  0.00  0.00    +0.000 A 
ATOM     15  C   UNL     1       4.640   4.479  16.546  0.00  0.00    +0.000 A 
ATOM     16  C   UNL     1       5.133   5.760  16.733  0.00  0.00    +0.000 A 
ATOM     17  C   UNL     1       4.389   6.680  17.474  0.00  0.00    +0.000 A 
ATOM     18  C   UNL     1       3.148   6.373  18.082  0.00  0.00    +0.000 A 
BRANCH  13  19
ATOM     19  O   UNL     1       1.594   4.589  18.623  0.00  0.00    +0.000 OA
BRANCH  19  21
ATOM     20  C   UNL     1       1.510   3.588  20.887  0.00  0.00    +0.000 C 
ATOM     21  C   UNL     1       1.740   3.371  19.388  0.00  0.00    +0.000 C 
ATOM     22  C   UNL     1       0.728   2.359  18.855  0.00  0.00    +0.000 C 
ENDBRANCH  19  21
ENDBRANCH  13  19
ENDBRANCH   7  18
ENDBRANCH   1  10
BRANCH   4  23
ATOM     23  N   UNL     1      -2.326  11.646  22.975  0.00  0.00    +0.000 N 
ATOM     24  C   UNL     1      -3.104  12.760  22.747  0.00  0.00    +0.000 C 
ATOM     25  O   UNL     1      -2.757  13.704  22.048  0.00  0.00    +0.000 OA
ATOM     26  N   UNL     1      -4.267  12.697  23.480  0.00  0.00    +0.000 N 
ATOM     27  H   UNL     1      -2.847  10.796  23.125  0.00  0.00    +0.000 HD
ATOM     28  H   UNL     1      -4.106  12.424  24.442  0.00  0.00    +0.000 HD
BRANCH  26  29
ATOM     29  C   UNL     1      -5.307  13.631  23.271  0.00  0.00    +0.000 A 
ATOM     30  C   UNL     1      -6.417  13.343  22.470  0.00  0.00    +0.000 A 
ATOM     31  F   UNL     1      -6.566  12.130  21.918  0.00  0.00    +0.000 F 
ATOM     32  C   UNL     1      -7.430  14.280  22.294  0.00  0.00    +0.000 A 
ATOM     33  C   UNL     1      -7.341  15.528  22.914  0.00  0.00    +0.000 A 
ATOM     34  C   UNL     1      -6.245  15.821  23.727  0.00  0.00    +0.000 A 
ATOM     35  C   UNL     1      -5.247  14.869  23.911  0.00  0.00    +0.000 A 
ATOM     36  F   UNL     1      -4.196  15.166  24.691  0.00  0.00    +0.000 F 
ENDBRANCH  26  29
ENDBRANCH   4  23
TORSDOF 6
ENDMDL
MODEL 3
REMARK VINA RESULT:      -7.9      1.475      2.928
REMARK  Name = 
REMARK  8 active torsions:
REMARK  status: ('A' for Active; 'I' for Inactive)
REMARK    1  A    between atoms: C_1  and  C_2
REMARK    2  A    between atoms: C_2  and  C_3
REMARK    3  A    between atoms: C_2  and  O_4
REMARK    4  A    between atoms: O_4  and  C_5
REMARK    5  A    between atoms: C_10  and  N_11
REMARK    6  A    between atoms: N_14  and  C_15
REMARK    7  A    between atoms: C_18  and  N_19
REMARK    8  A    between atoms: N_22  and  C_23
REMARK                            x       y       z     vdW  Elec       q    Type
REMARK                         _______ _______ _______ _____ _____    ______ ____
ROOT
ATOM      1  C   UNL     1      -0.115   9.098  20.518  0.00  0.00    +0.000 C 
ATOM      2  C   UNL     1      -0.662   8.897  21.951  0.00  0.00    +0.000 C 
ATOM      3  C   UNL     1      -0.194   9.994  22.909  0.00  0.00    +0.000 C 
ATOM      4  C   UNL     1      -0.512  11.414  22.428  0.00  0.00    +0.000 C 
ATOM      5  C   UNL     1      -0.360  11.639  20.912  0.00  0.00    +0.000 C 
ATOM      6  C   UNL     1      -0.730  10.436  20.039  0.00  0.00    +0.000 C 
ENDROOT
BRANCH   1  10
ATOM      7  N   UNL     1       2.404   6.641  19.045  0.00  0.00    +0.000 N 
ATOM      8  C   UNL     1       1.840   6.485  20.393  0.00  0.00    +0.000 C 
ATOM      9  C   UNL     1       1.927   7.836  21.171  0.00  0.00    +0.000 C 
ATOM     10  N   UNL     1       1.366   9.045  20.496  0.00  0.00    +0.000 NA
ATOM     11  C   UNL     1       1.973   9.087  19.143  0.00  0.00    +0.000 C 
ATOM     12  C   UNL     1       1.824   7.791  18.308  0.00  0.00    +0.000 C 
BRANCH   7  18
ATOM     13  C   UNL     1       4.154   5.430  17.685  0.00  0.00    +0.000 A 
ATOM     14  C   UNL     1       4.508   4.242  17.006  0.00  0.00    +0.000 A 
ATOM     15  C   UNL     1       3.585   3.227  16.800  0.00  0.00    +0.000 A 
ATOM     16  C   UNL     1       2.301   3.364  17.301  0.00  0.00    +0.000 A 
ATOM     17  C   UNL     1       1.972   4.500  18.044  0.00  0.00    +0.000 A 
ATOM     18  C   UNL     1       2.879   5.556  18.300  0.00  0.00    +0.000 A 
BRANCH  13  19
ATOM     19  O   UNL     1       5.064   6.465  17.763  0.00  0.00    +0.000 OA
BRANCH  19  21
ATOM     20  C   UNL     1       7.401   7.244  17.508  0.00  0.00    +0.000 C 
ATOM     21  C   UNL     1       6.456   6.082  17.829  0.00  0.00    +0.000 C 
ATOM     22  C   UNL     1       6.734   5.570  19.241  0.00  0.00    +0.000 C 
ENDBRANCH  19  21
ENDBRANCH  13  19
ENDBRANCH   7  18
ENDBRANCH   1  10
BRANCH   4  23
ATOM     23  N   UNL     1      -1.841  11.792  22.899  0.00  0.00    +0.000 N 
ATOM     24  C   UNL     1      -2.171  13.116  23.087  0.00  0.00    +0.000 C 
ATOM     25  O   UNL     1      -1.411  14.049  22.857  0.00  0.00    +0.000 OA
ATOM     26  N   UNL     1      -3.424  13.229  23.645  0.00  0.00    +0.000 N 
ATOM     27  H   UNL     1      -2.618  11.198  22.654  0.00  0.00    +0.000 HD
ATOM     28  H   UNL     1      -3.562  12.595  24.423  0.00  0.00    +0.000 HD
BRANCH  26  29
ATOM     29  C   UNL     1      -4.056  14.488  23.757  0.00  0.00    +0.000 A 
ATOM     30  C   UNL     1      -5.015  14.925  22.836  0.00  0.00    +0.000 A 
ATOM     31  F   UNL     1      -5.417  14.127  21.837  0.00  0.00    +0.000 F 
ATOM     32  C   UNL     1      -5.628  16.165  22.981  0.00  0.00    +0.000 A 
ATOM     33  C   UNL     1      -5.284  16.992  24.052  0.00  0.00    +0.000 A 
ATOM     34  C   UNL     1      -4.340  16.560  24.985  0.00  0.00    +0.000 A 
ATOM     35  C   UNL     1      -3.747  15.310  24.840  0.00  0.00    +0.000 A 
ATOM     36  F   UNL     1      -2.837  14.909  25.742  0.00  0.00    +0.000 F 
ENDBRANCH  26  29
ENDBRANCH   4  23
TORSDOF 6
ENDMDL
MODEL 4
REMARK VINA RESULT:      -7.9      3.512     11.097
REMARK  Name = 
REMARK  8 active torsions:
REMARK  status: ('A' for Active; 'I' for Inactive)
REMARK    1  A    between atoms: C_1  and  C_2
REMARK    2  A    between atoms: C_2  and  C_3
REMARK    3  A    between atoms: C_2  and  O_4
REMARK    4  A    between atoms: O_4  and  C_5
REMARK    5  A    between atoms: C_10  and  N_11
REMARK    6  A    between atoms: N_14  and  C_15
REMARK    7  A    between atoms: C_18  and  N_19
REMARK    8  A    between atoms: N_22  and  C_23
REMARK                            x       y       z     vdW  Elec       q    Type
REMARK                         _______ _______ _______ _____ _____    ______ ____
ROOT
ATOM      1  C   UNL     1      -0.773  10.419  19.947  0.00  0.00    +0.000 C 
ATOM      2  C   UNL     1      -0.220  10.435  18.503  0.00  0.00    +0.000 C 
ATOM      3  C   UNL     1       1.310  10.424  18.470  0.00  0.00    +0.000 C 
ATOM      4  C   UNL     1       1.939   9.266  19.253  0.00  0.00    +0.000 C 
ATOM      5  C   UNL     1       1.223   8.903  20.567  0.00  0.00    +0.000 C 
ATOM      6  C   UNL     1      -0.299   9.071  20.543  0.00  0.00    +0.000 C 
ENDROOT
BRANCH   1  10
ATOM      7  N   UNL     1      -2.655  13.093  21.911  0.00  0.00    +0.000 N 
ATOM      8  C   UNL     1      -2.409  13.198  20.467  0.00  0.00    +0.000 C 
ATOM      9  C   UNL     1      -0.910  12.894  20.154  0.00  0.00    +0.000 C 
ATOM     10  N   UNL     1      -0.347  11.623  20.699  0.00  0.00    +0.000 NA
ATOM     11  C   UNL     1      -0.678  11.606  22.146  0.00  0.00    +0.000 C 
ATOM     12  C   UNL     1      -2.175  11.813  22.486  0.00  0.00    +0.000 C 
BRANCH   7  18
ATOM     13  C   UNL     1      -5.088  13.303  22.556  0.00  0.00    +0.000 A 
ATOM     14  C   UNL     1      -6.060  14.031  23.281  0.00  0.00    +0.000 A 
ATOM     15  C   UNL     1      -5.753  15.246  23.876  0.00  0.00    +0.000 A 
ATOM     16  C   UNL     1      -4.462  15.739  23.790  0.00  0.00    +0.000 A 
ATOM     17  C   UNL     1      -3.480  14.983  23.145  0.00  0.00    +0.000 A 
ATOM     18  C   UNL     1      -3.733  13.730  22.537  0.00  0.00    +0.000 A 
BRANCH  13  19
ATOM     19  O   UNL     1      -5.462  12.162  21.876  0.00  0.00    +0.000 OA
BRANCH  19  21
ATOM     20  C   UNL     1      -5.819  12.093  19.426  0.00  0.00    +0.000 C 
ATOM     21  C   UNL     1      -6.422  12.344  20.811  0.00  0.00    +0.000 C 
ATOM     22  C   UNL     1      -7.578  11.374  21.050  0.00  0.00    +0.000 C 
ENDBRANCH  19  21
ENDBRANCH  13  19
ENDBRANCH   7  18
ENDBRANCH   1  10
BRANCH   4  23
ATOM     23  N   UNL     1       2.071   8.110  18.372  0.00  0.00    +0.000 N 
ATOM     24  C   UNL     1       2.492   6.894  18.865  0.00  0.00    +0.000 C 
ATOM     25  O   UNL     1       2.756   6.689  20.043  0.00  0.00    +0.000 OA
ATOM     26  N   UNL     1       2.656   5.988  17.842  0.00  0.00    +0.000 N 
ATOM     27  H   UNL     1       1.456   8.048  17.575  0.00  0.00    +0.000 HD
ATOM     28  H   UNL     1       3.161   6.376  17.054  0.00  0.00    +0.000 HD
BRANCH  26  29
ATOM     29  C   UNL     1       2.900   4.623  18.116  0.00  0.00    +0.000 A 
ATOM     30  C   UNL     1       4.142   4.166  18.572  0.00  0.00    +0.000 A 
ATOM     31  F   UNL     1       5.136   5.027  18.829  0.00  0.00    +0.000 F 
ATOM     32  C   UNL     1       4.347   2.817  18.845  0.00  0.00    +0.000 A 
ATOM     33  C   UNL     1       3.309   1.901  18.657  0.00  0.00    +0.000 A 
ATOM     34  C   UNL     1       2.063   2.348  18.216  0.00  0.00    +0.000 A 
ATOM     35  C   UNL     1       1.864   3.703  17.964  0.00  0.00    +0.000 A 
ATOM     36  F   UNL     1       0.661   4.119  17.536  0.00  0.00    +0.000 F 
ENDBRANCH  26  29
ENDBRANCH   4  23
TORSDOF 6
ENDMDL
MODEL 5
REMARK VINA RESULT:      -7.8      3.495     11.160
REMARK  Name = 
REMARK  8 active torsions:
REMARK  status: ('A' for Active; 'I' for Inactive)
REMARK    1  A    between atoms: C_1  and  C_2
REMARK    2  A    between atoms: C_2  and  C_3
REMARK    3  A    between atoms: C_2  and  O_4
REMARK    4  A    between atoms: O_4  and  C_5
REMARK    5  A    between atoms: C_10  and  N_11
REMARK    6  A    between atoms: N_14  and  C_15
REMARK    7  A    between atoms: C_18  and  N_19
REMARK    8  A    between atoms: N_22  and  C_23
REMARK                            x       y       z     vdW  Elec       q    Type
REMARK                         _______ _______ _______ _____ _____    ______ ____
ROOT
ATOM      1  C   UNL     1      -1.161  10.102  21.702  0.00  0.00    +0.000 C 
ATOM      2  C   UNL     1      -0.807   9.378  20.382  0.00  0.00    +0.000 C 
ATOM      3  C   UNL     1       0.680   9.494  20.040  0.00  0.00    +0.000 C 
ATOM      4  C   UNL     1       1.612   9.015  21.159  0.00  0.00    +0.000 C 
ATOM      5  C   UNL     1       1.150   9.364  22.586  0.00  0.00    +0.000 C 
ATOM      6  C   UNL     1      -0.367   9.349  22.796  0.00  0.00    +0.000 C 
ENDROOT
BRANCH   1  10
ATOM      7  N   UNL     1      -3.316  13.222  22.113  0.00  0.00    +0.000 N 
ATOM      8  C   UNL     1      -3.170  12.524  20.829  0.00  0.00    +0.000 C 
ATOM      9  C   UNL     1      -1.663  12.243  20.539  0.00  0.00    +0.000 C 
ATOM     10  N   UNL     1      -0.882  11.554  21.610  0.00  0.00    +0.000 NA
ATOM     11  C   UNL     1      -1.125  12.317  22.859  0.00  0.00    +0.000 C 
ATOM     12  C   UNL     1      -2.614  12.536  23.225  0.00  0.00    +0.000 C 
BRANCH   7  18
ATOM     13  C   UNL     1      -5.801  13.581  22.390  0.00  0.00    +0.000 A 
ATOM     14  C   UNL     1      -6.830  14.466  22.786  0.00  0.00    +0.000 A 
ATOM     15  C   UNL     1      -6.562  15.793  23.087  0.00  0.00    +0.000 A 
ATOM     16  C   UNL     1      -5.256  16.252  23.033  0.00  0.00    +0.000 A 
ATOM     17  C   UNL     1      -4.228  15.361  22.722  0.00  0.00    +0.000 A 
ATOM     18  C   UNL     1      -4.442  13.994  22.425  0.00  0.00    +0.000 A 
BRANCH  13  19
ATOM     19  O   UNL     1      -6.125  12.302  21.981  0.00  0.00    +0.000 OA
BRANCH  19  21
ATOM     20  C   UNL     1      -6.700  12.644  19.596  0.00  0.00    +0.000 C 
ATOM     21  C   UNL     1      -7.167  12.200  20.985  0.00  0.00    +0.000 C 
ATOM     22  C   UNL     1      -7.622  10.742  20.931  0.00  0.00    +0.000 C 
ENDBRANCH  19  21
ENDBRANCH  13  19
ENDBRANCH   7  18
ENDBRANCH   1  10
BRANCH   4  23
ATOM     23  N   UNL     1       1.852   7.584  21.003  0.00  0.00    +0.000 N 
ATOM     24  C   UNL     1       2.385   7.083  19.836  0.00  0.00    +0.000 C 
ATOM     25  O   UNL     1       2.712   7.777  18.881  0.00  0.00    +0.000 OA
ATOM     26  N   UNL     1       2.412   5.707  19.867  0.00  0.00    +0.000 N 
ATOM     27  H   UNL     1       2.072   7.048  21.828  0.00  0.00    +0.000 HD
ATOM     28  H   UNL     1       1.541   5.309  20.195  0.00  0.00    +0.000 HD
BRANCH  26  29
ATOM     29  C   UNL     1       3.086   4.973  18.865  0.00  0.00    +0.000 A 
ATOM     30  C   UNL     1       4.483   4.932  18.784  0.00  0.00    +0.000 A 
ATOM     31  F   UNL     1       5.240   5.545  19.705  0.00  0.00    +0.000 F 
ATOM     32  C   UNL     1       5.116   4.190  17.793  0.00  0.00    +0.000 A 
ATOM     33  C   UNL     1       4.357   3.480  16.860  0.00  0.00    +0.000 A 
ATOM     34  C   UNL     1       2.964   3.502  16.940  0.00  0.00    +0.000 A 
ATOM     35  C   UNL     1       2.341   4.234  17.947  0.00  0.00    +0.000 A 
ATOM     36  F   UNL     1       1.000   4.250  18.010  0.00  0.00    +0.000 F 
ENDBRANCH  26  29
ENDBRANCH   4  23
TORSDOF 6
ENDMDL
MODEL 6
REMARK VINA RESULT:      -7.8      1.509      2.609
REMARK  Name = 
REMARK  8 active torsions:
REMARK  status: ('A' for Active; 'I' for Inactive)
REMARK    1  A    between atoms: C_1  and  C_2
REMARK    2  A    between atoms: C_2  and  C_3
REMARK    3  A    between atoms: C_2  and  O_4
REMARK    4  A    between atoms: O_4  and  C_5
REMARK    5  A    between atoms: C_10  and  N_11
REMARK    6  A    between atoms: N_14  and  C_15
REMARK    7  A    between atoms: C_18  and  N_19
REMARK    8  A    between atoms: N_22  and  C_23
REMARK                            x       y       z     vdW  Elec       q    Type
REMARK                         _______ _______ _______ _____ _____    ______ ____
ROOT
ATOM      1  C   UNL     1      -0.117   9.144  20.346  0.00  0.00    +0.000 C 
ATOM      2  C   UNL     1      -0.705   8.885  21.752  0.00  0.00    +0.000 C 
ATOM      3  C   UNL     1      -0.262   9.939  22.768  0.00  0.00    +0.000 C 
ATOM      4  C   UNL     1      -0.564  11.380  22.339  0.00  0.00    +0.000 C 
ATOM      5  C   UNL     1      -0.368  11.667  20.839  0.00  0.00    +0.000 C 
ATOM      6  C   UNL     1      -0.716  10.503  19.906  0.00  0.00    +0.000 C 
ENDROOT
BRANCH   1  10
ATOM      7  N   UNL     1       2.424   6.534  19.215  0.00  0.00    +0.000 N 
ATOM      8  C   UNL     1       1.830   6.531  20.559  0.00  0.00    +0.000 C 
ATOM      9  C   UNL     1       1.904   7.961  21.181  0.00  0.00    +0.000 C 
ATOM     10  N   UNL     1       1.363   9.087  20.363  0.00  0.00    +0.000 NA
ATOM     11  C   UNL     1       2.000   8.976  19.027  0.00  0.00    +0.000 C 
ATOM     12  C   UNL     1       1.865   7.595  18.340  0.00  0.00    +0.000 C 
BRANCH   7  18
ATOM     13  C   UNL     1       4.270   4.978  18.474  0.00  0.00    +0.000 A 
ATOM     14  C   UNL     1       4.603   3.740  17.877  0.00  0.00    +0.000 A 
ATOM     15  C   UNL     1       3.636   2.942  17.285  0.00  0.00    +0.000 A 
ATOM     16  C   UNL     1       2.311   3.348  17.310  0.00  0.00    +0.000 A 
ATOM     17  C   UNL     1       1.968   4.530  17.970  0.00  0.00    +0.000 A 
ATOM     18  C   UNL     1       2.911   5.371  18.607  0.00  0.00    +0.000 A 
BRANCH  13  19
ATOM     19  O   UNL     1       5.276   5.799  18.943  0.00  0.00    +0.000 OA
BRANCH  19  21
ATOM     20  C   UNL     1       6.747   6.913  17.291  0.00  0.00    +0.000 C 
ATOM     21  C   UNL     1       6.535   5.727  18.236  0.00  0.00    +0.000 C 
ATOM     22  C   UNL     1       7.654   5.692  19.275  0.00  0.00    +0.000 C 
ENDBRANCH  19  21
ENDBRANCH  13  19
ENDBRANCH   7  18
ENDBRANCH   1  10
BRANCH   4  23
ATOM     23  N   UNL     1      -1.904  11.742  22.788  0.00  0.00    +0.000 N 
ATOM     24  C   UNL     1      -2.232  13.056  23.035  0.00  0.00    +0.000 C 
ATOM     25  O   UNL     1      -1.460  13.994  22.880  0.00  0.00    +0.000 OA
ATOM     26  N   UNL     1      -3.502  13.149  23.559  0.00  0.00    +0.000 N 
ATOM     27  H   UNL     1      -2.676  11.167  22.488  0.00  0.00    +0.000 HD
ATOM     28  H   UNL     1      -3.668  12.475  24.298  0.00  0.00    +0.000 HD
BRANCH  26  29
ATOM     29  C   UNL     1      -4.130  14.405  23.719  0.00  0.00    +0.000 A 
ATOM     30  C   UNL     1      -3.794  15.279  24.758  0.00  0.00    +0.000 A 
ATOM     31  F   UNL     1      -2.805  14.978  25.613  0.00  0.00    +0.000 F 
ATOM     32  C   UNL     1      -4.422  16.514  24.881  0.00  0.00    +0.000 A 
ATOM     33  C   UNL     1      -5.407  16.890  23.964  0.00  0.00    +0.000 A 
ATOM     34  C   UNL     1      -5.740  16.031  22.915  0.00  0.00    +0.000 A 
ATOM     35  C   UNL     1      -5.091  14.806  22.792  0.00  0.00    +0.000 A 
ATOM     36  F   UNL     1      -5.424  13.988  21.780  0.00  0.00    +0.000 F 
ENDBRANCH  26  29
ENDBRANCH   4  23
TORSDOF 6
ENDMDL
MODEL 7
REMARK VINA RESULT:      -7.8      3.456     11.219
REMARK  Name = 
REMARK  8 active torsions:
REMARK  status: ('A' for Active; 'I' for Inactive)
REMARK    1  A    between atoms: C_1  and  C_2
REMARK    2  A    between atoms: C_2  and  C_3
REMARK    3  A    between atoms: C_2  and  O_4
REMARK    4  A    between atoms: O_4  and  C_5
REMARK    5  A    between atoms: C_10  and  N_11
REMARK    6  A    between atoms: N_14  and  C_15
REMARK    7  A    between atoms: C_18  and  N_19
REMARK    8  A    between atoms: N_22  and  C_23
REMARK                            x       y       z     vdW  Elec       q    Type
REMARK                         _______ _______ _______ _____ _____    ______ ____
ROOT
ATOM      1  C   UNL     1      -0.649  10.560  19.952  0.00  0.00    +0.000 C 
ATOM      2  C   UNL     1      -0.196  10.404  18.481  0.00  0.00    +0.000 C 
ATOM      3  C   UNL     1       1.308  10.153  18.363  0.00  0.00    +0.000 C 
ATOM      4  C   UNL     1       1.804   8.958  19.187  0.00  0.00    +0.000 C 
ATOM      5  C   UNL     1       1.130   8.790  20.561  0.00  0.00    +0.000 C 
ATOM      6  C   UNL     1      -0.347   9.192  20.611  0.00  0.00    +0.000 C 
ENDROOT
BRANCH   1  10
ATOM      7  N   UNL     1      -1.947  13.487  22.025  0.00  0.00    +0.000 N 
ATOM      8  C   UNL     1      -1.880  13.524  20.558  0.00  0.00    +0.000 C 
ATOM      9  C   UNL     1      -0.478  13.038  20.073  0.00  0.00    +0.000 C 
ATOM     10  N   UNL     1       0.004  11.725  20.594  0.00  0.00    +0.000 NA
ATOM     11  C   UNL     1      -0.137  11.784  22.070  0.00  0.00    +0.000 C 
ATOM     12  C   UNL     1      -1.544  12.175  22.587  0.00  0.00    +0.000 C 
BRANCH   7  18
ATOM     13  C   UNL     1      -4.227  13.976  22.997  0.00  0.00    +0.000 A 
ATOM     14  C   UNL     1      -5.008  14.836  23.802  0.00  0.00    +0.000 A 
ATOM     15  C   UNL     1      -4.506  16.044  24.264  0.00  0.00    +0.000 A 
ATOM     16  C   UNL     1      -3.202  16.398  23.960  0.00  0.00    +0.000 A 
ATOM     17  C   UNL     1      -2.402  15.514  23.233  0.00  0.00    +0.000 A 
ATOM     18  C   UNL     1      -2.857  14.262  22.755  0.00  0.00    +0.000 A 
BRANCH  13  19
ATOM     19  O   UNL     1      -4.802  12.842  22.456  0.00  0.00    +0.000 OA
BRANCH  19  21
ATOM     20  C   UNL     1      -5.433  12.542  20.080  0.00  0.00    +0.000 C 
ATOM     21  C   UNL     1      -5.829  13.064  21.464  0.00  0.00    +0.000 C 
ATOM     22  C   UNL     1      -7.097  12.355  21.936  0.00  0.00    +0.000 C 
ENDBRANCH  19  21
ENDBRANCH  13  19
ENDBRANCH   7  18
ENDBRANCH   1  10
BRANCH   4  23
ATOM     23  N   UNL     1       1.700   7.746  18.382  0.00  0.00    +0.000 N 
ATOM     24  C   UNL     1       2.315   6.580  18.782  0.00  0.00    +0.000 C 
ATOM     25  O   UNL     1       2.954   6.467  19.820  0.00  0.00    +0.000 OA
ATOM     26  N   UNL     1       2.184   5.607  17.818  0.00  0.00    +0.000 N 
ATOM     27  H   UNL     1       0.864   7.611  17.833  0.00  0.00    +0.000 HD
ATOM     28  H   UNL     1       2.388   5.951  16.887  0.00  0.00    +0.000 HD
BRANCH  26  29
ATOM     29  C   UNL     1       2.569   4.272  18.078  0.00  0.00    +0.000 A 
ATOM     30  C   UNL     1       1.843   3.443  18.941  0.00  0.00    +0.000 A 
ATOM     31  F   UNL     1       0.707   3.873  19.509  0.00  0.00    +0.000 F 
ATOM     32  C   UNL     1       2.241   2.130  19.168  0.00  0.00    +0.000 A 
ATOM     33  C   UNL     1       3.381   1.627  18.536  0.00  0.00    +0.000 A 
ATOM     34  C   UNL     1       4.104   2.441  17.662  0.00  0.00    +0.000 A 
ATOM     35  C   UNL     1       3.685   3.748  17.429  0.00  0.00    +0.000 A 
ATOM     36  F   UNL     1       4.392   4.521  16.589  0.00  0.00    +0.000 F 
ENDBRANCH  26  29
ENDBRANCH   4  23
TORSDOF 6
ENDMDL
MODEL 8
REMARK VINA RESULT:      -7.8      4.356     11.212
REMARK  Name = 
REMARK  8 active torsions:
REMARK  status: ('A' for Active; 'I' for Inactive)
REMARK    1  A    between atoms: C_1  and  C_2
REMARK    2  A    between atoms: C_2  and  C_3
REMARK    3  A    between atoms: C_2  and  O_4
REMARK    4  A    between atoms: O_4  and  C_5
REMARK    5  A    between atoms: C_10  and  N_11
REMARK    6  A    between atoms: N_14  and  C_15
REMARK    7  A    between atoms: C_18  and  N_19
REMARK    8  A    between atoms: N_22  and  C_23
REMARK                            x       y       z     vdW  Elec       q    Type
REMARK                         _______ _______ _______ _____ _____    ______ ____
ROOT
ATOM      1  C   UNL     1      -0.667  10.883  21.146  0.00  0.00    +0.000 C 
ATOM      2  C   UNL     1      -0.416   9.981  19.916  0.00  0.00    +0.000 C 
ATOM      3  C   UNL     1       1.014   9.437  19.879  0.00  0.00    +0.000 C 
ATOM      4  C   UNL     1       1.429   8.698  21.157  0.00  0.00    +0.000 C 
ATOM      5  C   UNL     1       0.902   9.314  22.466  0.00  0.00    +0.000 C 
ATOM      6  C   UNL     1      -0.487   9.951  22.369  0.00  0.00    +0.000 C 
ENDROOT
BRANCH   1  10
ATOM      7  N   UNL     1      -1.288  14.603  20.575  0.00  0.00    +0.000 N 
ATOM      8  C   UNL     1      -1.016  13.667  19.475  0.00  0.00    +0.000 C 
ATOM      9  C   UNL     1       0.226  12.785  19.815  0.00  0.00    +0.000 C 
ATOM     10  N   UNL     1       0.214  12.074  21.128  0.00  0.00    +0.000 NA
ATOM     11  C   UNL     1      -0.099  13.098  22.155  0.00  0.00    +0.000 C 
ATOM     12  C   UNL     1      -1.378  13.931  21.894  0.00  0.00    +0.000 C 
BRANCH   7  18
ATOM     13  C   UNL     1      -1.499  17.049  19.982  0.00  0.00    +0.000 A 
ATOM     14  C   UNL     1      -2.368  18.147  19.789  0.00  0.00    +0.000 A 
ATOM     15  C   UNL     1      -3.713  18.068  20.120  0.00  0.00    +0.000 A 
ATOM     16  C   UNL     1      -4.222  16.879  20.617  0.00  0.00    +0.000 A 
ATOM     17  C   UNL     1      -3.384  15.769  20.731  0.00  0.00    +0.000 A 
ATOM     18  C   UNL     1      -2.010  15.788  20.391  0.00  0.00    +0.000 A 
BRANCH  13  19
ATOM     19  O   UNL     1      -0.146  17.206  19.756  0.00  0.00    +0.000 OA
BRANCH  19  21
ATOM     20  C   UNL     1       0.552  18.147  17.573  0.00  0.00    +0.000 C 
ATOM     21  C   UNL     1       0.314  16.894  18.421  0.00  0.00    +0.000 C 
ATOM     22  C   UNL     1       1.616  16.105  18.547  0.00  0.00    +0.000 C 
ENDBRANCH  19  21
ENDBRANCH  13  19
ENDBRANCH   7  18
ENDBRANCH   1  10
BRANCH   4  23
ATOM     23  N   UNL     1       1.061   7.291  21.036  0.00  0.00    +0.000 N 
ATOM     24  C   UNL     1       1.789   6.440  20.233  0.00  0.00    +0.000 C 
ATOM     25  O   UNL     1       2.781   6.780  19.600  0.00  0.00    +0.000 OA
ATOM     26  N   UNL     1       1.196   5.199  20.178  0.00  0.00    +0.000 N 
ATOM     27  H   UNL     1       0.621   6.846  21.827  0.00  0.00    +0.000 HD
ATOM     28  H   UNL     1       0.196   5.253  20.023  0.00  0.00    +0.000 HD
BRANCH  26  29
ATOM     29  C   UNL     1       1.855   4.107  19.571  0.00  0.00    +0.000 A 
ATOM     30  C   UNL     1       1.788   3.869  18.194  0.00  0.00    +0.000 A 
ATOM     31  F   UNL     1       1.140   4.717  17.383  0.00  0.00    +0.000 F 
ATOM     32  C   UNL     1       2.459   2.791  17.625  0.00  0.00    +0.000 A 
ATOM     33  C   UNL     1       3.204   1.928  18.432  0.00  0.00    +0.000 A 
ATOM     34  C   UNL     1       3.290   2.165  19.805  0.00  0.00    +0.000 A 
ATOM     35  C   UNL     1       2.629   3.257  20.360  0.00  0.00    +0.000 A 
ATOM     36  F   UNL     1       2.716   3.470  21.683  0.00  0.00    +0.000 F 
ENDBRANCH  26  29
ENDBRANCH   4  23
TORSDOF 6
ENDMDL
MODEL 9
REMARK VINA RESULT:      -7.8      3.517     11.131
REMARK  Name = 
REMARK  8 active torsions:
REMARK  status: ('A' for Active; 'I' for Inactive)
REMARK    1  A    between atoms: C_1  and  C_2
REMARK    2  A    between atoms: C_2  and  C_3
REMARK    3  A    between atoms: C_2  and  O_4
REMARK    4  A    between atoms: O_4  and  C_5
REMARK    5  A    between atoms: C_10  and  N_11
REMARK    6  A    between atoms: N_14  and  C_15
REMARK    7  A    between atoms: C_18  and  N_19
REMARK    8  A    between atoms: N_22  and  C_23
REMARK                            x       y       z     vdW  Elec       q    Type
REMARK                         _______ _______ _______ _____ _____    ______ ____
ROOT
ATOM      1  C   UNL     1      -0.942  10.611  19.949  0.00  0.00    +0.000 C 
ATOM      2  C   UNL     1      -0.399  10.668  18.502  0.00  0.00    +0.000 C 
ATOM      3  C   UNL     1       1.126  10.782  18.461  0.00  0.00    +0.000 C 
ATOM      4  C   UNL     1       1.852   9.679  19.242  0.00  0.00    +0.000 C 
ATOM      5  C   UNL     1       1.175   9.262  20.561  0.00  0.00    +0.000 C 
ATOM      6  C   UNL     1      -0.356   9.307  20.545  0.00  0.00    +0.000 C 
ENDROOT
BRANCH   1  10
ATOM      7  N   UNL     1      -3.027  13.138  21.902  0.00  0.00    +0.000 N 
ATOM      8  C   UNL     1      -2.788  13.256  20.457  0.00  0.00    +0.000 C 
ATOM      9  C   UNL     1      -1.270  13.068  20.147  0.00  0.00    +0.000 C 
ATOM     10  N   UNL     1      -0.610  11.846  20.697  0.00  0.00    +0.000 NA
ATOM     11  C   UNL     1      -0.940  11.809  22.143  0.00  0.00    +0.000 C 
ATOM     12  C   UNL     1      -2.449  11.901  22.483  0.00  0.00    +0.000 C 
BRANCH   7  18
ATOM     13  C   UNL     1      -5.484  13.203  22.480  0.00  0.00    +0.000 A 
ATOM     14  C   UNL     1      -6.510  13.848  23.210  0.00  0.00    +0.000 A 
ATOM     15  C   UNL     1      -6.279  15.044  23.874  0.00  0.00    +0.000 A 
ATOM     16  C   UNL     1      -5.010  15.599  23.853  0.00  0.00    +0.000 A 
ATOM     17  C   UNL     1      -3.976  14.923  23.202  0.00  0.00    +0.000 A 
ATOM     18  C   UNL     1      -4.151  13.692  22.525  0.00  0.00    +0.000 A 
BRANCH  13  19
ATOM     19  O   UNL     1      -5.784  12.082  21.733  0.00  0.00    +0.000 OA
BRANCH  19  21
ATOM     20  C   UNL     1      -6.508  12.744  19.458  0.00  0.00    +0.000 C 
ATOM     21  C   UNL     1      -6.909  12.202  20.833  0.00  0.00    +0.000 C 
ATOM     22  C   UNL     1      -7.533  10.816  20.675  0.00  0.00    +0.000 C 
ENDBRANCH  19  21
ENDBRANCH  13  19
ENDBRANCH   7  18
ENDBRANCH   1  10
BRANCH   4  23
ATOM     23  N   UNL     1       2.073   8.536  18.363  0.00  0.00    +0.000 N 
ATOM     24  C   UNL     1       2.400   7.303  18.881  0.00  0.00    +0.000 C 
ATOM     25  O   UNL     1       2.505   7.071  20.079  0.00  0.00    +0.000 OA
ATOM     26  N   UNL     1       2.676   6.410  17.870  0.00  0.00    +0.000 N 
ATOM     27  H   UNL     1       1.565   8.503  17.492  0.00  0.00    +0.000 HD
ATOM     28  H   UNL     1       3.287   6.801  17.162  0.00  0.00    +0.000 HD
BRANCH  26  29
ATOM     29  C   UNL     1       2.854   5.035  18.146  0.00  0.00    +0.000 A 
ATOM     30  C   UNL     1       1.884   4.080  17.825  0.00  0.00    +0.000 A 
ATOM     31  F   UNL     1       0.764   4.433  17.177  0.00  0.00    +0.000 F 
ATOM     32  C   UNL     1       2.094   2.733  18.098  0.00  0.00    +0.000 A 
ATOM     33  C   UNL     1       3.282   2.321  18.707  0.00  0.00    +0.000 A 
ATOM     34  C   UNL     1       4.263   3.264  19.019  0.00  0.00    +0.000 A 
ATOM     35  C   UNL     1       4.049   4.607  18.723  0.00  0.00    +0.000 A 
ATOM     36  F   UNL     1       4.999   5.504  19.032  0.00  0.00    +0.000 F 
ENDBRANCH  26  29
ENDBRANCH   4  23
TORSDOF 6
ENDMDL
