MODEL 1
REMARK VINA RESULT:      -9.7      0.000      0.000
REMARK  Name = 
REMARK  5 active torsions:
REMARK  status: ('A' for Active; 'I' for Inactive)
REMARK    1  A    between atoms: C_5  and  N_6
REMARK    2  A    between atoms: N_6  and  C_7
REMARK    3  A    between atoms: C_7  and  C_8
REMARK    4  A    between atoms: C_8  and  N_9
REMARK    5  A    between atoms: N_9  and  C_10
REMARK                            x       y       z     vdW  Elec       q    Type
REMARK                         _______ _______ _______ _____ _____    ______ ____
ROOT
ATOM      1  C   UNL     1       2.420   9.565  17.787  0.00  0.00    +0.000 C 
ENDROOT
BRANCH   1   2
ATOM      2  N   UNL     1       1.295  10.423  18.147  0.00  0.00    +0.000 N 
ATOM      3  H   UNL     1       0.977  11.000  17.369  0.00  0.00    +0.000 HD
BRANCH   2   8
ATOM      4  C   UNL     1      -0.716   9.365  22.938  0.00  0.00    +0.000 A 
ATOM      5  C   UNL     1      -0.445   8.511  21.891  0.00  0.00    +0.000 A 
ATOM      6  C   UNL     1       0.124   9.021  20.723  0.00  0.00    +0.000 A 
ATOM      7  C   UNL     1       0.443  10.402  20.539  0.00  0.00    +0.000 A 
ATOM      8  C   UNL     1       1.022  11.044  19.383  0.00  0.00    +0.000 A 
ATOM      9  C   UNL     1       1.261  12.467  19.432  0.00  0.00    +0.000 A 
ATOM     10  C   UNL     1       1.767  13.252  18.355  0.00  0.00    +0.000 A 
ATOM     11  C   UNL     1       1.951  14.634  18.463  0.00  0.00    +0.000 A 
ATOM     12  C   UNL     1       1.636  15.272  19.650  0.00  0.00    +0.000 A 
ATOM     13  C   UNL     1       1.141  14.520  20.713  0.00  0.00    +0.000 A 
ATOM     14  C   UNL     1       0.944  13.147  20.621  0.00  0.00    +0.000 A 
ATOM     15  N   UNL     1       0.428  12.542  21.689  0.00  0.00    +0.000 NA
ATOM     16  C   UNL     1       0.175  11.234  21.651  0.00  0.00    +0.000 A 
ATOM     17  C   UNL     1      -0.395  10.712  22.806  0.00  0.00    +0.000 A 
ENDBRANCH   2   8
ENDBRANCH   1   2
BRANCH   1  18
ATOM     18  C   UNL     1       1.998   8.090  17.829  0.00  0.00    +0.000 C 
BRANCH  18  19
ATOM     19  N   UNL     1       2.804   7.244  18.696  0.00  0.00    +0.000 N 
ATOM     20  H   UNL     1       2.451   7.222  19.652  0.00  0.00    +0.000 HD
BRANCH  19  21
ATOM     21  C   UNL     1       3.192   5.924  18.304  0.00  0.00    +0.000 A 
ATOM     22  C   UNL     1       4.142   5.603  17.257  0.00  0.00    +0.000 A 
ATOM     23  C   UNL     1       4.873   6.488  16.395  0.00  0.00    +0.000 A 
ATOM     24  C   UNL     1       5.687   6.059  15.343  0.00  0.00    +0.000 A 
ATOM     25  C   UNL     1       5.842   4.710  15.126  0.00  0.00    +0.000 A 
ATOM     26  C   UNL     1       5.201   3.819  15.983  0.00  0.00    +0.000 A 
ATOM     27  C   UNL     1       4.376   4.232  17.025  0.00  0.00    +0.000 A 
ATOM     28  N   UNL     1       3.830   3.249  17.746  0.00  0.00    +0.000 NA
ATOM     29  C   UNL     1       2.985   3.533  18.738  0.00  0.00    +0.000 A 
ATOM     30  C   UNL     1       2.464   2.458  19.449  0.00  0.00    +0.000 A 
ATOM     31  C   UNL     1       1.541   2.627  20.480  0.00  0.00    +0.000 A 
ATOM     32  C   UNL     1       1.135   3.906  20.817  0.00  0.00    +0.000 A 
ATOM     33  C   UNL     1       1.668   5.001  20.132  0.00  0.00    +0.000 A 
ATOM     34  C   UNL     1       2.606   4.846  19.069  0.00  0.00    +0.000 A 
ENDBRANCH  19  21
ENDBRANCH  18  19
ENDBRANCH   1  18
TORSDOF 5
ENDMDL
MODEL 2
REMARK VINA RESULT:      -9.7      0.108      3.214
REMARK  Name = 
REMARK  5 active torsions:
REMARK  status: ('A' for Active; 'I' for Inactive)
REMARK    1  A    between atoms: C_5  and  N_6
REMARK    2  A    between atoms: N_6  and  C_7
REMARK    3  A    between atoms: C_7  and  C_8
REMARK    4  A    between atoms: C_8  and  N_9
REMARK    5  A    between atoms: N_9  and  C_10
REMARK                            x       y       z     vdW  Elec       q    Type
REMARK                         _______ _______ _______ _____ _____    ______ ____
ROOT
ATOM      1  C   UNL     1       2.313   9.573  17.880  0.00  0.00    +0.000 C 
ENDROOT
BRANCH   1   2
ATOM      2  N   UNL     1       1.082  10.280  18.222  0.00  0.00    +0.000 N 
ATOM      3  H   UNL     1       0.562  10.582  17.400  0.00  0.00    +0.000 HD
BRANCH   2   8
ATOM      4  C   UNL     1       1.671  15.317  19.770  0.00  0.00    +0.000 A 
ATOM      5  C   UNL     1       1.911  14.743  18.541  0.00  0.00    +0.000 A 
ATOM      6  C   UNL     1       1.645  13.384  18.358  0.00  0.00    +0.000 A 
ATOM      7  C   UNL     1       1.135  12.536  19.389  0.00  0.00    +0.000 A 
ATOM      8  C   UNL     1       0.830  11.126  19.321  0.00  0.00    +0.000 A 
ATOM      9  C   UNL     1       0.313  10.476  20.502  0.00  0.00    +0.000 A 
ATOM     10  C   UNL     1       0.023   9.084  20.613  0.00  0.00    +0.000 A 
ATOM     11  C   UNL     1      -0.452   8.514  21.798  0.00  0.00    +0.000 A 
ATOM     12  C   UNL     1      -0.654   9.318  22.907  0.00  0.00    +0.000 A 
ATOM     13  C   UNL     1      -0.376  10.680  22.816  0.00  0.00    +0.000 A 
ATOM     14  C   UNL     1       0.105  11.262  21.649  0.00  0.00    +0.000 A 
ATOM     15  N   UNL     1       0.371  12.566  21.694  0.00  0.00    +0.000 NA
ATOM     16  C   UNL     1       0.875  13.176  20.622  0.00  0.00    +0.000 A 
ATOM     17  C   UNL     1       1.149  14.528  20.789  0.00  0.00    +0.000 A 
ENDBRANCH   2   8
ENDBRANCH   1   2
BRANCH   1  18
ATOM     18  C   UNL     1       2.043   8.067  17.753  0.00  0.00    +0.000 C 
BRANCH  18  19
ATOM     19  N   UNL     1       2.827   7.224  18.642  0.00  0.00    +0.000 N 
ATOM     20  H   UNL     1       2.455   7.211  19.590  0.00  0.00    +0.000 HD
BRANCH  19  21
ATOM     21  C   UNL     1       3.217   5.900  18.268  0.00  0.00    +0.000 A 
ATOM     22  C   UNL     1       4.176   5.564  17.234  0.00  0.00    +0.000 A 
ATOM     23  C   UNL     1       4.917   6.439  16.370  0.00  0.00    +0.000 A 
ATOM     24  C   UNL     1       5.741   5.997  15.330  0.00  0.00    +0.000 A 
ATOM     25  C   UNL     1       5.896   4.645  15.129  0.00  0.00    +0.000 A 
ATOM     26  C   UNL     1       5.244   3.765  15.990  0.00  0.00    +0.000 A 
ATOM     27  C   UNL     1       4.409   4.191  17.019  0.00  0.00    +0.000 A 
ATOM     28  N   UNL     1       3.854   3.217  17.745  0.00  0.00    +0.000 NA
ATOM     29  C   UNL     1       3.000   3.514  18.725  0.00  0.00    +0.000 A 
ATOM     30  C   UNL     1       2.470   2.448  19.443  0.00  0.00    +0.000 A 
ATOM     31  C   UNL     1       1.537   2.629  20.462  0.00  0.00    +0.000 A 
ATOM     32  C   UNL     1       1.130   3.913  20.782  0.00  0.00    +0.000 A 
ATOM     33  C   UNL     1       1.673   4.999  20.090  0.00  0.00    +0.000 A 
ATOM     34  C   UNL     1       2.621   4.831  19.038  0.00  0.00    +0.000 A 
ENDBRANCH  19  21
ENDBRANCH  18  19
ENDBRANCH   1  18
TORSDOF 5
ENDMDL
MODEL 3
REMARK VINA RESULT:      -9.6      0.219      9.183
REMARK  Name = 
REMARK  5 active torsions:
REMARK  status: ('A' for Active; 'I' for Inactive)
REMARK    1  A    between atoms: C_5  and  N_6
REMARK    2  A    between atoms: N_6  and  C_7
REMARK    3  A    between atoms: C_7  and  C_8
REMARK    4  A    between atoms: C_8  and  N_9
REMARK    5  A    between atoms: N_9  and  C_10
REMARK                            x       y       z     vdW  Elec       q    Type
REMARK                         _______ _______ _______ _____ _____    ______ ____
ROOT
ATOM      1  C   UNL     1       2.011   7.976  17.835  0.00  0.00    +0.000 C 
ENDROOT
BRANCH   1   2
ATOM      2  N   UNL     1       3.072   7.178  18.445  0.00  0.00    +0.000 N 
ATOM      3  H   UNL     1       3.885   7.736  18.700  0.00  0.00    +0.000 HD
BRANCH   2   8
ATOM      4  C   UNL     1       5.984   4.310  15.066  0.00  0.00    +0.000 A 
ATOM      5  C   UNL     1       5.878   5.678  15.192  0.00  0.00    +0.000 A 
ATOM      6  C   UNL     1       5.064   6.211  16.193  0.00  0.00    +0.000 A 
ATOM      7  C   UNL     1       4.313   5.410  17.108  0.00  0.00    +0.000 A 
ATOM      8  C   UNL     1       3.438   5.844  18.170  0.00  0.00    +0.000 A 
ATOM      9  C   UNL     1       2.785   4.840  18.978  0.00  0.00    +0.000 A 
ATOM     10  C   UNL     1       1.848   5.107  20.019  0.00  0.00    +0.000 A 
ATOM     11  C   UNL     1       1.232   4.083  20.746  0.00  0.00    +0.000 A 
ATOM     12  C   UNL     1       1.535   2.764  20.455  0.00  0.00    +0.000 A 
ATOM     13  C   UNL     1       2.448   2.486  19.441  0.00  0.00    +0.000 A 
ATOM     14  C   UNL     1       3.063   3.490  18.703  0.00  0.00    +0.000 A 
ATOM     15  N   UNL     1       3.888   3.101  17.732  0.00  0.00    +0.000 NA
ATOM     16  C   UNL     1       4.478   4.013  16.959  0.00  0.00    +0.000 A 
ATOM     17  C   UNL     1       5.289   3.498  15.956  0.00  0.00    +0.000 A 
ENDBRANCH   2   8
ENDBRANCH   1   2
BRANCH   1  18
ATOM     18  C   UNL     1       2.382   9.465  17.867  0.00  0.00    +0.000 C 
BRANCH  18  19
ATOM     19  N   UNL     1       1.258  10.375  18.021  0.00  0.00    +0.000 N 
ATOM     20  H   UNL     1       0.395   9.993  17.636  0.00  0.00    +0.000 HD
BRANCH  19  21
ATOM     21  C   UNL     1       0.976  11.015  19.269  0.00  0.00    +0.000 A 
ATOM     22  C   UNL     1       0.464  10.356  20.455  0.00  0.00    +0.000 A 
ATOM     23  C   UNL     1       0.120   8.976  20.647  0.00  0.00    +0.000 A 
ATOM     24  C   UNL     1      -0.469   8.471  21.809  0.00  0.00    +0.000 A 
ATOM     25  C   UNL     1      -0.707   9.324  22.862  0.00  0.00    +0.000 A 
ATOM     26  C   UNL     1      -0.325  10.658  22.738  0.00  0.00    +0.000 A 
ATOM     27  C   UNL     1       0.248  11.178  21.581  0.00  0.00    +0.000 A 
ATOM     28  N   UNL     1       0.544  12.478  21.624  0.00  0.00    +0.000 NA
ATOM     29  C   UNL     1       1.053  13.087  20.552  0.00  0.00    +0.000 A 
ATOM     30  C   UNL     1       1.345  14.441  20.676  0.00  0.00    +0.000 A 
ATOM     31  C   UNL     1       1.842  15.194  19.613  0.00  0.00    +0.000 A 
ATOM     32  C   UNL     1       2.064  14.575  18.395  0.00  0.00    +0.000 A 
ATOM     33  C   UNL     1       1.802  13.209  18.260  0.00  0.00    +0.000 A 
ATOM     34  C   UNL     1       1.285  12.426  19.333  0.00  0.00    +0.000 A 
ENDBRANCH  19  21
ENDBRANCH  18  19
ENDBRANCH   1  18
TORSDOF 5
ENDMDL
MODEL 4
REMARK VINA RESULT:      -9.6      0.139      8.756
REMARK  Name = 
REMARK  5 active torsions:
REMARK  status: ('A' for Active; 'I' for Inactive)
REMARK    1  A    between atoms: C_5  and  N_6
REMARK    2  A    between atoms: N_6  and  C_7
REMARK    3  A    between atoms: C_7  and  C_8
REMARK    4  A    between atoms: C_8  and  N_9
REMARK    5  A    between atoms: N_9  and  C_10
REMARK                            x       y       z     vdW  Elec       q    Type
REMARK                         _______ _______ _______ _____ _____    ______ ____
ROOT
ATOM      1  C   UNL     1       1.939   8.052  17.823  0.00  0.00    +0.000 C 
ENDROOT
BRANCH   1   2
ATOM      2  N   UNL     1       2.973   7.202  18.406  0.00  0.00    +0.000 N 
ATOM      3  H   UNL     1       3.856   7.691  18.535  0.00  0.00    +0.000 HD
BRANCH   2   8
ATOM      4  C   UNL     1       1.598   2.517  20.475  0.00  0.00    +0.000 A 
ATOM      5  C   UNL     1       1.146   3.780  20.785  0.00  0.00    +0.000 A 
ATOM      6  C   UNL     1       1.635   4.876  20.072  0.00  0.00    +0.000 A 
ATOM      7  C   UNL     1       2.599   4.766  19.023  0.00  0.00    +0.000 A 
ATOM      8  C   UNL     1       3.180   5.819  18.225  0.00  0.00    +0.000 A 
ATOM      9  C   UNL     1       4.141   5.462  17.207  0.00  0.00    +0.000 A 
ATOM     10  C   UNL     1       4.846   6.387  16.383  0.00  0.00    +0.000 A 
ATOM     11  C   UNL     1       5.784   5.973  15.432  0.00  0.00    +0.000 A 
ATOM     12  C   UNL     1       6.044   4.622  15.276  0.00  0.00    +0.000 A 
ATOM     13  C   UNL     1       5.364   3.704  16.073  0.00  0.00    +0.000 A 
ATOM     14  C   UNL     1       4.435   4.099  17.028  0.00  0.00    +0.000 A 
ATOM     15  N   UNL     1       3.878   3.134  17.758  0.00  0.00    +0.000 NA
ATOM     16  C   UNL     1       3.010   3.447  18.720  0.00  0.00    +0.000 A 
ATOM     17  C   UNL     1       2.517   2.368  19.442  0.00  0.00    +0.000 A 
ENDBRANCH   2   8
ENDBRANCH   1   2
BRANCH   1  18
ATOM     18  C   UNL     1       2.360   9.526  17.898  0.00  0.00    +0.000 C 
BRANCH  18  19
ATOM     19  N   UNL     1       1.264  10.473  18.040  0.00  0.00    +0.000 N 
ATOM     20  H   UNL     1       0.398  10.127  17.628  0.00  0.00    +0.000 HD
BRANCH  19  21
ATOM     21  C   UNL     1       0.975  11.102  19.291  0.00  0.00    +0.000 A 
ATOM     22  C   UNL     1       0.463  10.432  20.472  0.00  0.00    +0.000 A 
ATOM     23  C   UNL     1       0.127   9.048  20.652  0.00  0.00    +0.000 A 
ATOM     24  C   UNL     1      -0.463   8.531  21.809  0.00  0.00    +0.000 A 
ATOM     25  C   UNL     1      -0.709   9.375  22.867  0.00  0.00    +0.000 A 
ATOM     26  C   UNL     1      -0.336  10.713  22.754  0.00  0.00    +0.000 A 
ATOM     27  C   UNL     1       0.238  11.244  21.602  0.00  0.00    +0.000 A 
ATOM     28  N   UNL     1       0.526  12.546  21.655  0.00  0.00    +0.000 NA
ATOM     29  C   UNL     1       1.034  13.166  20.590  0.00  0.00    +0.000 A 
ATOM     30  C   UNL     1       1.317  14.520  20.723  0.00  0.00    +0.000 A 
ATOM     31  C   UNL     1       1.812  15.284  19.668  0.00  0.00    +0.000 A 
ATOM     32  C   UNL     1       2.042  14.675  18.446  0.00  0.00    +0.000 A 
ATOM     33  C   UNL     1       1.790  13.308  18.300  0.00  0.00    +0.000 A 
ATOM     34  C   UNL     1       1.274  12.514  19.367  0.00  0.00    +0.000 A 
ENDBRANCH  19  21
ENDBRANCH  18  19
ENDBRANCH   1  18
TORSDOF 5
ENDMDL
MODEL 5
REMARK VINA RESULT:      -9.6      2.481      3.141
REMARK  Name = 
REMARK  5 active torsions:
REMARK  status: ('A' for Active; 'I' for Inactive)
REMARK    1  A    between atoms: C_5  and  N_6
REMARK    2  A    between atoms: N_6  and  C_7
REMARK    3  A    between atoms: C_7  and  C_8
REMARK    4  A    between atoms: C_8  and  N_9
REMARK    5  A    between atoms: N_9  and  C_10
REMARK                            x       y       z     vdW  Elec       q    Type
REMARK                         _______ _______ _______ _____ _____    ______ ____
ROOT
ATOM      1  C   UNL     1       1.460   9.613  18.687  0.00  0.00    +0.000 C 
ENDROOT
BRANCH   1   2
ATOM      2  N   UNL     1       0.054   9.440  19.043  0.00  0.00    +0.000 N 
ATOM      3  H   UNL     1      -0.334   8.566  18.692  0.00  0.00    +0.000 HD
BRANCH   2   8
ATOM      4  C   UNL     1      -1.840  12.960  22.527  0.00  0.00    +0.000 A 
ATOM      5  C   UNL     1      -0.725  12.156  22.610  0.00  0.00    +0.000 A 
ATOM      6  C   UNL     1      -0.402  11.323  21.537  0.00  0.00    +0.000 A 
ATOM      7  C   UNL     1      -1.176  11.246  20.338  0.00  0.00    +0.000 A 
ATOM      8  C   UNL     1      -0.948  10.424  19.174  0.00  0.00    +0.000 A 
ATOM      9  C   UNL     1      -1.871  10.524  18.068  0.00  0.00    +0.000 A 
ATOM     10  C   UNL     1      -1.818   9.737  16.881  0.00  0.00    +0.000 A 
ATOM     11  C   UNL     1      -2.763   9.867  15.858  0.00  0.00    +0.000 A 
ATOM     12  C   UNL     1      -3.787  10.788  15.991  0.00  0.00    +0.000 A 
ATOM     13  C   UNL     1      -3.855  11.565  17.145  0.00  0.00    +0.000 A 
ATOM     14  C   UNL     1      -2.930  11.443  18.175  0.00  0.00    +0.000 A 
ATOM     15  N   UNL     1      -3.119  12.212  19.246  0.00  0.00    +0.000 NA
ATOM     16  C   UNL     1      -2.293  12.112  20.287  0.00  0.00    +0.000 A 
ATOM     17  C   UNL     1      -2.602  12.933  21.364  0.00  0.00    +0.000 A 
ENDBRANCH   2   8
ENDBRANCH   1   2
BRANCH   1  18
ATOM     18  C   UNL     1       1.995   8.347  18.007  0.00  0.00    +0.000 C 
BRANCH  18  19
ATOM     19  N   UNL     1       2.589   7.368  18.905  0.00  0.00    +0.000 N 
ATOM     20  H   UNL     1       2.047   7.252  19.761  0.00  0.00    +0.000 HD
BRANCH  19  21
ATOM     21  C   UNL     1       3.020   6.087  18.440  0.00  0.00    +0.000 A 
ATOM     22  C   UNL     1       3.966   5.857  17.364  0.00  0.00    +0.000 A 
ATOM     23  C   UNL     1       4.650   6.814  16.541  0.00  0.00    +0.000 A 
ATOM     24  C   UNL     1       5.464   6.472  15.457  0.00  0.00    +0.000 A 
ATOM     25  C   UNL     1       5.667   5.143  15.167  0.00  0.00    +0.000 A 
ATOM     26  C   UNL     1       5.072   4.185  15.985  0.00  0.00    +0.000 A 
ATOM     27  C   UNL     1       4.247   4.510  17.058  0.00  0.00    +0.000 A 
ATOM     28  N   UNL     1       3.749   3.471  17.732  0.00  0.00    +0.000 NA
ATOM     29  C   UNL     1       2.910   3.670  18.748  0.00  0.00    +0.000 A 
ATOM     30  C   UNL     1       2.440   2.541  19.408  0.00  0.00    +0.000 A 
ATOM     31  C   UNL     1       1.527   2.619  20.458  0.00  0.00    +0.000 A 
ATOM     32  C   UNL     1       1.078   3.863  20.869  0.00  0.00    +0.000 A 
ATOM     33  C   UNL     1       1.560   5.011  20.235  0.00  0.00    +0.000 A 
ATOM     34  C   UNL     1       2.487   4.949  19.153  0.00  0.00    +0.000 A 
ENDBRANCH  19  21
ENDBRANCH  18  19
ENDBRANCH   1  18
TORSDOF 5
ENDMDL
MODEL 6
REMARK VINA RESULT:      -9.6      0.196      8.768
REMARK  Name = 
REMARK  5 active torsions:
REMARK  status: ('A' for Active; 'I' for Inactive)
REMARK    1  A    between atoms: C_5  and  N_6
REMARK    2  A    between atoms: N_6  and  C_7
REMARK    3  A    between atoms: C_7  and  C_8
REMARK    4  A    between atoms: C_8  and  N_9
REMARK    5  A    between atoms: N_9  and  C_10
REMARK                            x       y       z     vdW  Elec       q    Type
REMARK                         _______ _______ _______ _____ _____    ______ ____
ROOT
ATOM      1  C   UNL     1       1.976   7.990  17.739  0.00  0.00    +0.000 C 
ENDROOT
BRANCH   1   2
ATOM      2  N   UNL     1       2.952   7.178  18.460  0.00  0.00    +0.000 N 
ATOM      3  H   UNL     1       3.717   7.732  18.841  0.00  0.00    +0.000 HD
BRANCH   2   8
ATOM      4  C   UNL     1       5.995   4.401  15.121  0.00  0.00    +0.000 A 
ATOM      5  C   UNL     1       5.842   5.765  15.242  0.00  0.00    +0.000 A 
ATOM      6  C   UNL     1       4.999   6.273  16.232  0.00  0.00    +0.000 A 
ATOM      7  C   UNL     1       4.266   5.450  17.142  0.00  0.00    +0.000 A 
ATOM      8  C   UNL     1       3.366   5.857  18.194  0.00  0.00    +0.000 A 
ATOM      9  C   UNL     1       2.739   4.835  18.998  0.00  0.00    +0.000 A 
ATOM     10  C   UNL     1       1.783   5.072  20.029  0.00  0.00    +0.000 A 
ATOM     11  C   UNL     1       1.194   4.030  20.753  0.00  0.00    +0.000 A 
ATOM     12  C   UNL     1       1.544   2.722  20.469  0.00  0.00    +0.000 A 
ATOM     13  C   UNL     1       2.477   2.471  19.465  0.00  0.00    +0.000 A 
ATOM     14  C   UNL     1       3.065   3.494  18.731  0.00  0.00    +0.000 A 
ATOM     15  N   UNL     1       3.913   3.130  17.770  0.00  0.00    +0.000 NA
ATOM     16  C   UNL     1       4.479   4.059  17.000  0.00  0.00    +0.000 A 
ATOM     17  C   UNL     1       5.319   3.569  16.007  0.00  0.00    +0.000 A 
ENDBRANCH   2   8
ENDBRANCH   1   2
BRANCH   1  18
ATOM     18  C   UNL     1       2.273   9.482  17.941  0.00  0.00    +0.000 C 
BRANCH  18  19
ATOM     19  N   UNL     1       1.101  10.326  18.117  0.00  0.00    +0.000 N 
ATOM     20  H   UNL     1       0.233   9.824  17.933  0.00  0.00    +0.000 HD
BRANCH  19  21
ATOM     21  C   UNL     1       0.936  11.147  19.277  0.00  0.00    +0.000 A 
ATOM     22  C   UNL     1       1.211  12.569  19.346  0.00  0.00    +0.000 A 
ATOM     23  C   UNL     1       1.704  13.446  18.323  0.00  0.00    +0.000 A 
ATOM     24  C   UNL     1       2.034  14.788  18.536  0.00  0.00    +0.000 A 
ATOM     25  C   UNL     1       1.846  15.332  19.785  0.00  0.00    +0.000 A 
ATOM     26  C   UNL     1       1.308  14.528  20.787  0.00  0.00    +0.000 A 
ATOM     27  C   UNL     1       0.989  13.187  20.594  0.00  0.00    +0.000 A 
ATOM     28  N   UNL     1       0.492  12.558  21.661  0.00  0.00    +0.000 NA
ATOM     29  C   UNL     1       0.197  11.259  21.598  0.00  0.00    +0.000 A 
ATOM     30  C   UNL     1      -0.325  10.675  22.746  0.00  0.00    +0.000 A 
ATOM     31  C   UNL     1      -0.633   9.318  22.815  0.00  0.00    +0.000 A 
ATOM     32  C   UNL     1      -0.423   8.522  21.702  0.00  0.00    +0.000 A 
ATOM     33  C   UNL     1       0.076   9.097  20.530  0.00  0.00    +0.000 A 
ATOM     34  C   UNL     1       0.405  10.482  20.445  0.00  0.00    +0.000 A 
ENDBRANCH  19  21
ENDBRANCH  18  19
ENDBRANCH   1  18
TORSDOF 5
ENDMDL
MODEL 7
REMARK VINA RESULT:      -9.6      2.043      9.192
REMARK  Name = 
REMARK  5 active torsions:
REMARK  status: ('A' for Active; 'I' for Inactive)
REMARK    1  A    between atoms: C_5  and  N_6
REMARK    2  A    between atoms: N_6  and  C_7
REMARK    3  A    between atoms: C_7  and  C_8
REMARK    4  A    between atoms: C_8  and  N_9
REMARK    5  A    between atoms: N_9  and  C_10
REMARK                            x       y       z     vdW  Elec       q    Type
REMARK                         _______ _______ _______ _____ _____    ______ ____
ROOT
ATOM      1  C   UNL     1       2.197   8.054  17.733  0.00  0.00    +0.000 C 
ENDROOT
BRANCH   1   2
ATOM      2  N   UNL     1       2.959   7.105  18.540  0.00  0.00    +0.000 N 
ATOM      3  H   UNL     1       3.654   7.561  19.128  0.00  0.00    +0.000 HD
BRANCH   2   8
ATOM      4  C   UNL     1       5.975   4.437  15.090  0.00  0.00    +0.000 A 
ATOM      5  C   UNL     1       5.844   5.796  15.273  0.00  0.00    +0.000 A 
ATOM      6  C   UNL     1       5.003   6.271  16.282  0.00  0.00    +0.000 A 
ATOM      7  C   UNL     1       4.253   5.418  17.149  0.00  0.00    +0.000 A 
ATOM      8  C   UNL     1       3.353   5.791  18.214  0.00  0.00    +0.000 A 
ATOM      9  C   UNL     1       2.705   4.742  18.967  0.00  0.00    +0.000 A 
ATOM     10  C   UNL     1       1.747   4.947  20.002  0.00  0.00    +0.000 A 
ATOM     11  C   UNL     1       1.137   3.882  20.674  0.00  0.00    +0.000 A 
ATOM     12  C   UNL     1       1.468   2.583  20.331  0.00  0.00    +0.000 A 
ATOM     13  C   UNL     1       2.402   2.364  19.321  0.00  0.00    +0.000 A 
ATOM     14  C   UNL     1       3.011   3.410  18.638  0.00  0.00    +0.000 A 
ATOM     15  N   UNL     1       3.859   3.078  17.665  0.00  0.00    +0.000 NA
ATOM     16  C   UNL     1       4.444   4.032  16.943  0.00  0.00    +0.000 A 
ATOM     17  C   UNL     1       5.281   3.575  15.932  0.00  0.00    +0.000 A 
ENDBRANCH   2   8
ENDBRANCH   1   2
BRANCH   1  18
ATOM     18  C   UNL     1       1.571   9.131  18.630  0.00  0.00    +0.000 C 
BRANCH  18  19
ATOM     19  N   UNL     1       0.930  10.227  17.920  0.00  0.00    +0.000 N 
ATOM     20  H   UNL     1       0.541   9.933  17.025  0.00  0.00    +0.000 HD
BRANCH  19  21
ATOM     21  C   UNL     1       0.008  11.105  18.572  0.00  0.00    +0.000 A 
ATOM     22  C   UNL     1       0.365  12.170  19.489  0.00  0.00    +0.000 A 
ATOM     23  C   UNL     1       1.664  12.569  19.950  0.00  0.00    +0.000 A 
ATOM     24  C   UNL     1       1.881  13.549  20.923  0.00  0.00    +0.000 A 
ATOM     25  C   UNL     1       0.800  14.212  21.456  0.00  0.00    +0.000 A 
ATOM     26  C   UNL     1      -0.473  13.897  20.985  0.00  0.00    +0.000 A 
ATOM     27  C   UNL     1      -0.705  12.914  20.028  0.00  0.00    +0.000 A 
ATOM     28  N   UNL     1      -1.984  12.730  19.695  0.00  0.00    +0.000 NA
ATOM     29  C   UNL     1      -2.322  11.780  18.823  0.00  0.00    +0.000 A 
ATOM     30  C   UNL     1      -3.673  11.655  18.519  0.00  0.00    +0.000 A 
ATOM     31  C   UNL     1      -4.152  10.673  17.654  0.00  0.00    +0.000 A 
ATOM     32  C   UNL     1      -3.255   9.797  17.067  0.00  0.00    +0.000 A 
ATOM     33  C   UNL     1      -1.890   9.925  17.339  0.00  0.00    +0.000 A 
ATOM     34  C   UNL     1      -1.384  10.917  18.229  0.00  0.00    +0.000 A 
ENDBRANCH  19  21
ENDBRANCH  18  19
ENDBRANCH   1  18
TORSDOF 5
ENDMDL
MODEL 8
REMARK VINA RESULT:      -9.5      0.143      4.552
REMARK  Name = 
REMARK  5 active torsions:
REMARK  status: ('A' for Active; 'I' for Inactive)
REMARK    1  A    between atoms: C_5  and  N_6
REMARK    2  A    between atoms: N_6  and  C_7
REMARK    3  A    between atoms: C_7  and  C_8
REMARK    4  A    between atoms: C_8  and  N_9
REMARK    5  A    between atoms: N_9  and  C_10
REMARK                            x       y       z     vdW  Elec       q    Type
REMARK                         _______ _______ _______ _____ _____    ______ ____
ROOT
ATOM      1  C   UNL     1       2.248   9.586  17.843  0.00  0.00    +0.000 C 
ENDROOT
BRANCH   1   2
ATOM      2  N   UNL     1       1.025  10.289  18.221  0.00  0.00    +0.000 N 
ATOM      3  H   UNL     1       0.478  10.584  17.414  0.00  0.00    +0.000 HD
BRANCH   2   8
ATOM      4  C   UNL     1       1.744  15.310  19.767  0.00  0.00    +0.000 A 
ATOM      5  C   UNL     1       1.958  14.731  18.535  0.00  0.00    +0.000 A 
ATOM      6  C   UNL     1       1.659  13.380  18.354  0.00  0.00    +0.000 A 
ATOM      7  C   UNL     1       1.141  12.541  19.389  0.00  0.00    +0.000 A 
ATOM      8  C   UNL     1       0.804  11.140  19.323  0.00  0.00    +0.000 A 
ATOM      9  C   UNL     1       0.284  10.499  20.509  0.00  0.00    +0.000 A 
ATOM     10  C   UNL     1      -0.035   9.115  20.621  0.00  0.00    +0.000 A 
ATOM     11  C   UNL     1      -0.511   8.554  21.811  0.00  0.00    +0.000 A 
ATOM     12  C   UNL     1      -0.683   9.361  22.922  0.00  0.00    +0.000 A 
ATOM     13  C   UNL     1      -0.376  10.717  22.830  0.00  0.00    +0.000 A 
ATOM     14  C   UNL     1       0.106  11.288  21.659  0.00  0.00    +0.000 A 
ATOM     15  N   UNL     1       0.402  12.586  21.702  0.00  0.00    +0.000 NA
ATOM     16  C   UNL     1       0.909  13.187  20.626  0.00  0.00    +0.000 A 
ATOM     17  C   UNL     1       1.214  14.532  20.791  0.00  0.00    +0.000 A 
ENDBRANCH   2   8
ENDBRANCH   1   2
BRANCH   1  18
ATOM     18  C   UNL     1       2.012   8.070  17.845  0.00  0.00    +0.000 C 
BRANCH  18  19
ATOM     19  N   UNL     1       2.976   7.297  18.614  0.00  0.00    +0.000 N 
ATOM     20  H   UNL     1       2.878   7.447  19.617  0.00  0.00    +0.000 HD
BRANCH  19  21
ATOM     21  C   UNL     1       3.194   5.907  18.362  0.00  0.00    +0.000 A 
ATOM     22  C   UNL     1       2.555   4.813  19.067  0.00  0.00    +0.000 A 
ATOM     23  C   UNL     1       1.607   4.861  20.144  0.00  0.00    +0.000 A 
ATOM     24  C   UNL     1       1.136   3.734  20.821  0.00  0.00    +0.000 A 
ATOM     25  C   UNL     1       1.562   2.488  20.423  0.00  0.00    +0.000 A 
ATOM     26  C   UNL     1       2.431   2.397  19.338  0.00  0.00    +0.000 A 
ATOM     27  C   UNL     1       2.921   3.512  18.664  0.00  0.00    +0.000 A 
ATOM     28  N   UNL     1       3.753   3.250  17.654  0.00  0.00    +0.000 NA
ATOM     29  C   UNL     1       4.316   4.247  16.971  0.00  0.00    +0.000 A 
ATOM     30  C   UNL     1       5.164   3.896  15.927  0.00  0.00    +0.000 A 
ATOM     31  C   UNL     1       5.843   4.848  15.169  0.00  0.00    +0.000 A 
ATOM     32  C   UNL     1       5.662   6.190  15.454  0.00  0.00    +0.000 A 
ATOM     33  C   UNL     1       4.793   6.563  16.483  0.00  0.00    +0.000 A 
ATOM     34  C   UNL     1       4.098   5.602  17.275  0.00  0.00    +0.000 A 
ENDBRANCH  19  21
ENDBRANCH  18  19
ENDBRANCH   1  18
TORSDOF 5
ENDMDL
MODEL 9
REMARK VINA RESULT:      -9.5      2.481      3.224
REMARK  Name = 
REMARK  5 active torsions:
REMARK  status: ('A' for Active; 'I' for Inactive)
REMARK    1  A    between atoms: C_5  and  N_6
REMARK    2  A    between atoms: N_6  and  C_7
REMARK    3  A    between atoms: C_7  and  C_8
REMARK    4  A    between atoms: C_8  and  N_9
REMARK    5  A    between atoms: N_9  and  C_10
REMARK                            x       y       z     vdW  Elec       q    Type
REMARK                         _______ _______ _______ _____ _____    ______ ____
ROOT
ATOM      1  C   UNL     1       1.400   9.720  18.319  0.00  0.00    +0.000 C 
ENDROOT
BRANCH   1   2
ATOM      2  N   UNL     1       0.311   9.787  19.290  0.00  0.00    +0.000 N 
ATOM      3  H   UNL     1       0.180   8.911  19.792  0.00  0.00    +0.000 HD
BRANCH   2   8
ATOM      4  C   UNL     1      -3.726  10.731  15.984  0.00  0.00    +0.000 A 
ATOM      5  C   UNL     1      -2.675   9.850  15.857  0.00  0.00    +0.000 A 
ATOM      6  C   UNL     1      -1.739   9.749  16.888  0.00  0.00    +0.000 A 
ATOM      7  C   UNL     1      -1.802  10.524  18.087  0.00  0.00    +0.000 A 
ATOM      8  C   UNL     1      -0.895  10.513  19.211  0.00  0.00    +0.000 A 
ATOM      9  C   UNL     1      -1.170  11.388  20.326  0.00  0.00    +0.000 A 
ATOM     10  C   UNL     1      -0.340  11.537  21.476  0.00  0.00    +0.000 A 
ATOM     11  C   UNL     1      -0.654  12.425  22.510  0.00  0.00    +0.000 A 
ATOM     12  C   UNL     1      -1.805  13.188  22.426  0.00  0.00    +0.000 A 
ATOM     13  C   UNL     1      -2.627  13.055  21.310  0.00  0.00    +0.000 A 
ATOM     14  C   UNL     1      -2.327  12.184  20.269  0.00  0.00    +0.000 A 
ATOM     15  N   UNL     1      -3.167  12.172  19.236  0.00  0.00    +0.000 NA
ATOM     16  C   UNL     1      -2.914  11.391  18.186  0.00  0.00    +0.000 A 
ATOM     17  C   UNL     1      -3.835  11.482  17.150  0.00  0.00    +0.000 A 
ENDBRANCH   2   8
ENDBRANCH   1   2
BRANCH   1  18
ATOM     18  C   UNL     1       1.633   8.267  17.882  0.00  0.00    +0.000 C 
BRANCH  18  19
ATOM     19  N   UNL     1       2.605   7.533  18.677  0.00  0.00    +0.000 N 
ATOM     20  H   UNL     1       2.374   7.538  19.670  0.00  0.00    +0.000 HD
BRANCH  19  21
ATOM     21  C   UNL     1       3.049   6.227  18.301  0.00  0.00    +0.000 A 
ATOM     22  C   UNL     1       4.015   5.934  17.260  0.00  0.00    +0.000 A 
ATOM     23  C   UNL     1       4.711   6.840  16.391  0.00  0.00    +0.000 A 
ATOM     24  C   UNL     1       5.545   6.434  15.345  0.00  0.00    +0.000 A 
ATOM     25  C   UNL     1       5.757   5.090  15.143  0.00  0.00    +0.000 A 
ATOM     26  C   UNL     1       5.150   4.182  16.008  0.00  0.00    +0.000 A 
ATOM     27  C   UNL     1       4.305   4.571  17.043  0.00  0.00    +0.000 A 
ATOM     28  N   UNL     1       3.798   3.575  17.772  0.00  0.00    +0.000 NA
ATOM     29  C   UNL     1       2.939   3.834  18.759  0.00  0.00    +0.000 A 
ATOM     30  C   UNL     1       2.460   2.746  19.480  0.00  0.00    +0.000 A 
ATOM     31  C   UNL     1       1.528   2.887  20.506  0.00  0.00    +0.000 A 
ATOM     32  C   UNL     1       1.068   4.152  20.829  0.00  0.00    +0.000 A 
ATOM     33  C   UNL     1       1.558   5.260  20.134  0.00  0.00    +0.000 A 
ATOM     34  C   UNL     1       2.505   5.134  19.075  0.00  0.00    +0.000 A 
ENDBRANCH  19  21
ENDBRANCH  18  19
ENDBRANCH   1  18
TORSDOF 5
ENDMDL
