MODEL 1
REMARK VINA RESULT:      -8.9      0.000      0.000
REMARK  Name = 
REMARK  7 active torsions:
REMARK  status: ('A' for Active; 'I' for Inactive)
REMARK    1  A    between atoms: C_1  and  C_2
REMARK    2  A    between atoms: C_5  and  C_6
REMARK    3  A    between atoms: C_7  and  C_8
REMARK    4  A    between atoms: N_10  and  C_11
REMARK    5  A    between atoms: C_11  and  C_12
REMARK    6  A    between atoms: N_15  and  C_16
REMARK    7  A    between atoms: C_16  and  C_17
REMARK                            x       y       z     vdW  Elec       q    Type
REMARK                         _______ _______ _______ _____ _____    ______ ____
ROOT
ATOM      1  C   UNL     1       2.038   3.720  18.505  0.00  0.00    +0.000 C 
ATOM      2  C   UNL     1       1.959   5.076  17.791  0.00  0.00    +0.000 C 
ATOM      3  C   UNL     1       2.435   6.246  18.659  0.00  0.00    +0.000 C 
ATOM      4  N   UNL     1       1.738   6.299  19.957  0.00  0.00    +0.000 NA
ATOM      5  C   UNL     1       1.884   5.028  20.686  0.00  0.00    +0.000 C 
ATOM      6  C   UNL     1       1.350   3.846  19.870  0.00  0.00    +0.000 C 
ENDROOT
BRANCH   1   7
ATOM      7  C   UNL     1       3.475   3.192  18.647  0.00  0.00    +0.000 C 
BRANCH   7  10
ATOM      8  C   UNL     1       5.621   4.335  18.135  0.00  0.00    +0.000 C 
ATOM      9  O   UNL     1       6.025   4.208  19.289  0.00  0.00    +0.000 OA
ATOM     10  N   UNL     1       4.384   3.874  17.740  0.00  0.00    +0.000 N 
ATOM     11  H   UNL     1       4.087   3.973  16.786  0.00  0.00    +0.000 HD
BRANCH   8  18
ATOM     12  C   UNL     1       5.757   3.616  14.997  0.00  0.00    +0.000 C 
ATOM     13  C   UNL     1       6.481   4.679  15.734  0.00  0.00    +0.000 A 
ATOM     14  N   UNL     1       7.318   5.484  15.068  0.00  0.00    +0.000 NA
ATOM     15  O   UNL     1       7.820   6.357  16.000  0.00  0.00    +0.000 OA
ATOM     16  C   UNL     1       7.291   6.085  17.223  0.00  0.00    +0.000 A 
ATOM     17  C   UNL     1       7.763   6.981  18.299  0.00  0.00    +0.000 C 
ATOM     18  C   UNL     1       6.426   5.010  17.124  0.00  0.00    +0.000 A 
ENDBRANCH   8  18
ENDBRANCH   7  10
ENDBRANCH   1   7
BRANCH   4  19
ATOM     19  C   UNL     1       2.252   7.416  20.787  0.00  0.00    +0.000 C 
BRANCH  19  20
ATOM     20  C   UNL     1       1.272   8.575  20.944  0.00  0.00    +0.000 A 
ATOM     21  C   UNL     1       0.891   8.984  22.167  0.00  0.00    +0.000 A 
ATOM     22  C   UNL     1      -0.137  10.035  22.296  0.00  0.00    +0.000 A 
ATOM     23  O   UNL     1      -0.582  10.328  23.403  0.00  0.00    +0.000 OA
ATOM     24  N   UNL     1      -0.529  10.596  21.106  0.00  0.00    +0.000 N 
ATOM     25  C   UNL     1      -1.442  11.618  20.978  0.00  0.00    +0.000 A 
ATOM     26  C   UNL     1      -1.656  12.000  19.714  0.00  0.00    +0.000 A 
ATOM     27  S   UNL     1      -0.707  11.058  18.595  0.00  0.00    +0.000 S 
ATOM     28  C   UNL     1      -0.020  10.131  19.916  0.00  0.00    +0.000 A 
ATOM     29  N   UNL     1       0.833   9.171  19.773  0.00  0.00    +0.000 NA
ENDBRANCH  19  20
ENDBRANCH   4  19
TORSDOF 5
ENDMDL
MODEL 2
REMARK VINA RESULT:      -8.8      1.630      2.390
REMARK  Name = 
REMARK  7 active torsions:
REMARK  status: ('A' for Active; 'I' for Inactive)
REMARK    1  A    between atoms: C_1  and  C_2
REMARK    2  A    between atoms: C_5  and  C_6
REMARK    3  A    between atoms: C_7  and  C_8
REMARK    4  A    between atoms: N_10  and  C_11
REMARK    5  A    between atoms: C_11  and  C_12
REMARK    6  A    between atoms: N_15  and  C_16
REMARK    7  A    between atoms: C_16  and  C_17
REMARK                            x       y       z     vdW  Elec       q    Type
REMARK                         _______ _______ _______ _____ _____    ______ ____
ROOT
ATOM      1  C   UNL     1       2.114   2.880  18.457  0.00  0.00    +0.000 C 
ATOM      2  C   UNL     1       1.859   4.050  17.497  0.00  0.00    +0.000 C 
ATOM      3  C   UNL     1       2.486   5.367  17.967  0.00  0.00    +0.000 C 
ATOM      4  N   UNL     1       2.079   5.721  19.339  0.00  0.00    +0.000 NA
ATOM      5  C   UNL     1       2.401   4.635  20.280  0.00  0.00    +0.000 C 
ATOM      6  C   UNL     1       1.729   3.319  19.875  0.00  0.00    +0.000 C 
ENDROOT
BRANCH   1   7
ATOM      7  C   UNL     1       3.559   2.356  18.404  0.00  0.00    +0.000 C 
BRANCH   7  10
ATOM      8  C   UNL     1       5.452   3.940  18.120  0.00  0.00    +0.000 C 
ATOM      9  O   UNL     1       5.722   3.915  19.319  0.00  0.00    +0.000 OA
ATOM     10  N   UNL     1       4.406   3.214  17.591  0.00  0.00    +0.000 N 
ATOM     11  H   UNL     1       4.220   3.237  16.605  0.00  0.00    +0.000 HD
BRANCH   8  18
ATOM     12  C   UNL     1       7.658   6.158  18.894  0.00  0.00    +0.000 C 
ATOM     13  C   UNL     1       7.187   5.753  17.548  0.00  0.00    +0.000 A 
ATOM     14  N   UNL     1       7.707   6.346  16.467  0.00  0.00    +0.000 NA
ATOM     15  O   UNL     1       7.093   5.763  15.387  0.00  0.00    +0.000 OA
ATOM     16  C   UNL     1       6.208   4.821  15.810  0.00  0.00    +0.000 A 
ATOM     17  C   UNL     1       5.499   4.124  14.717  0.00  0.00    +0.000 C 
ATOM     18  C   UNL     1       6.213   4.768  17.192  0.00  0.00    +0.000 A 
ENDBRANCH   8  18
ENDBRANCH   7  10
ENDBRANCH   1   7
BRANCH   4  19
ATOM     19  C   UNL     1       2.736   6.977  19.777  0.00  0.00    +0.000 C 
BRANCH  19  20
ATOM     20  C   UNL     1       1.765   8.122  20.053  0.00  0.00    +0.000 A 
ATOM     21  C   UNL     1       1.362   8.928  19.055  0.00  0.00    +0.000 A 
ATOM     22  C   UNL     1       0.507  10.092  19.359  0.00  0.00    +0.000 A 
ATOM     23  O   UNL     1       0.236  10.904  18.479  0.00  0.00    +0.000 OA
ATOM     24  N   UNL     1       0.095  10.168  20.667  0.00  0.00    +0.000 N 
ATOM     25  C   UNL     1      -0.737  11.139  21.177  0.00  0.00    +0.000 A 
ATOM     26  C   UNL     1      -1.002  10.997  22.481  0.00  0.00    +0.000 A 
ATOM     27  S   UNL     1      -0.183   9.610  23.149  0.00  0.00    +0.000 S 
ATOM     28  C   UNL     1       0.529   9.244  21.589  0.00  0.00    +0.000 A 
ATOM     29  N   UNL     1       1.326   8.253  21.359  0.00  0.00    +0.000 NA
ENDBRANCH  19  20
ENDBRANCH   4  19
TORSDOF 5
ENDMDL
MODEL 3
REMARK VINA RESULT:      -8.7      1.785      2.552
REMARK  Name = 
REMARK  7 active torsions:
REMARK  status: ('A' for Active; 'I' for Inactive)
REMARK    1  A    between atoms: C_1  and  C_2
REMARK    2  A    between atoms: C_5  and  C_6
REMARK    3  A    between atoms: C_7  and  C_8
REMARK    4  A    between atoms: N_10  and  C_11
REMARK    5  A    between atoms: C_11  and  C_12
REMARK    6  A    between atoms: N_15  and  C_16
REMARK    7  A    between atoms: C_16  and  C_17
REMARK                            x       y       z     vdW  Elec       q    Type
REMARK                         _______ _______ _______ _____ _____    ______ ____
ROOT
ATOM      1  C   UNL     1       2.144   2.565  18.152  0.00  0.00    +0.000 C 
ATOM      2  C   UNL     1       1.947   3.937  17.494  0.00  0.00    +0.000 C 
ATOM      3  C   UNL     1       2.407   5.103  18.375  0.00  0.00    +0.000 C 
ATOM      4  N   UNL     1       1.784   5.073  19.711  0.00  0.00    +0.000 NA
ATOM      5  C   UNL     1       2.043   3.788  20.384  0.00  0.00    +0.000 C 
ATOM      6  C   UNL     1       1.529   2.605  19.557  0.00  0.00    +0.000 C 
ENDROOT
BRANCH   1   7
ATOM      7  C   UNL     1       3.614   2.117  18.194  0.00  0.00    +0.000 C 
BRANCH   7  10
ATOM      8  C   UNL     1       5.439   3.799  18.071  0.00  0.00    +0.000 C 
ATOM      9  O   UNL     1       5.627   3.762  19.285  0.00  0.00    +0.000 OA
ATOM     10  N   UNL     1       4.470   3.033  17.458  0.00  0.00    +0.000 N 
ATOM     11  H   UNL     1       4.351   3.068  16.462  0.00  0.00    +0.000 HD
BRANCH   8  18
ATOM     12  C   UNL     1       7.631   5.958  19.028  0.00  0.00    +0.000 C 
ATOM     13  C   UNL     1       7.186   5.642  17.650  0.00  0.00    +0.000 A 
ATOM     14  N   UNL     1       7.727   6.302  16.620  0.00  0.00    +0.000 NA
ATOM     15  O   UNL     1       7.134   5.790  15.492  0.00  0.00    +0.000 OA
ATOM     16  C   UNL     1       6.240   4.824  15.837  0.00  0.00    +0.000 A 
ATOM     17  C   UNL     1       5.552   4.200  14.688  0.00  0.00    +0.000 C 
ATOM     18  C   UNL     1       6.218   4.684  17.213  0.00  0.00    +0.000 A 
ENDBRANCH   8  18
ENDBRANCH   7  10
ENDBRANCH   1   7
BRANCH   4  19
ATOM     19  C   UNL     1       2.282   6.190  20.552  0.00  0.00    +0.000 C 
BRANCH  19  20
ATOM     20  C   UNL     1       1.793   7.566  20.108  0.00  0.00    +0.000 A 
ATOM     21  C   UNL     1       2.065   8.018  18.871  0.00  0.00    +0.000 A 
ATOM     22  C   UNL     1       1.676   9.392  18.497  0.00  0.00    +0.000 A 
ATOM     23  O   UNL     1       2.027   9.859  17.417  0.00  0.00    +0.000 OA
ATOM     24  N   UNL     1       0.940  10.053  19.449  0.00  0.00    +0.000 N 
ATOM     25  C   UNL     1       0.432  11.326  19.311  0.00  0.00    +0.000 A 
ATOM     26  C   UNL     1      -0.258  11.754  20.375  0.00  0.00    +0.000 A 
ATOM     27  S   UNL     1      -0.289  10.553  21.638  0.00  0.00    +0.000 S 
ATOM     28  C   UNL     1       0.674   9.460  20.661  0.00  0.00    +0.000 A 
ATOM     29  N   UNL     1       1.056   8.283  21.035  0.00  0.00    +0.000 NA
ENDBRANCH  19  20
ENDBRANCH   4  19
TORSDOF 5
ENDMDL
MODEL 4
REMARK VINA RESULT:      -8.7      0.653      1.595
REMARK  Name = 
REMARK  7 active torsions:
REMARK  status: ('A' for Active; 'I' for Inactive)
REMARK    1  A    between atoms: C_1  and  C_2
REMARK    2  A    between atoms: C_5  and  C_6
REMARK    3  A    between atoms: C_7  and  C_8
REMARK    4  A    between atoms: N_10  and  C_11
REMARK    5  A    between atoms: C_11  and  C_12
REMARK    6  A    between atoms: N_15  and  C_16
REMARK    7  A    between atoms: C_16  and  C_17
REMARK                            x       y       z     vdW  Elec       q    Type
REMARK                         _______ _______ _______ _____ _____    ______ ____
ROOT
ATOM      1  C   UNL     1       1.874   3.276  18.567  0.00  0.00    +0.000 C 
ATOM      2  C   UNL     1       1.697   4.466  17.615  0.00  0.00    +0.000 C 
ATOM      3  C   UNL     1       2.317   5.763  18.144  0.00  0.00    +0.000 C 
ATOM      4  N   UNL     1       1.837   6.102  19.496  0.00  0.00    +0.000 NA
ATOM      5  C   UNL     1       2.083   4.995  20.435  0.00  0.00    +0.000 C 
ATOM      6  C   UNL     1       1.413   3.698  19.967  0.00  0.00    +0.000 C 
ENDROOT
BRANCH   1   7
ATOM      7  C   UNL     1       3.310   2.727  18.589  0.00  0.00    +0.000 C 
BRANCH   7  10
ATOM      8  C   UNL     1       5.396   4.020  18.201  0.00  0.00    +0.000 C 
ATOM      9  O   UNL     1       5.784   3.840  19.354  0.00  0.00    +0.000 OA
ATOM     10  N   UNL     1       4.195   3.517  17.749  0.00  0.00    +0.000 N 
ATOM     11  H   UNL     1       3.911   3.662  16.797  0.00  0.00    +0.000 HD
BRANCH   8  18
ATOM     12  C   UNL     1       7.684   6.171  18.923  0.00  0.00    +0.000 C 
ATOM     13  C   UNL     1       7.190   5.761  17.588  0.00  0.00    +0.000 A 
ATOM     14  N   UNL     1       7.723   6.316  16.493  0.00  0.00    +0.000 NA
ATOM     15  O   UNL     1       7.082   5.737  15.427  0.00  0.00    +0.000 OA
ATOM     16  C   UNL     1       6.167   4.834  15.872  0.00  0.00    +0.000 A 
ATOM     17  C   UNL     1       5.426   4.144  14.796  0.00  0.00    +0.000 C 
ATOM     18  C   UNL     1       6.180   4.805  17.255  0.00  0.00    +0.000 A 
ENDBRANCH   8  18
ENDBRANCH   7  10
ENDBRANCH   1   7
BRANCH   4  19
ATOM     19  C   UNL     1       2.488   7.339  19.994  0.00  0.00    +0.000 C 
BRANCH  19  20
ATOM     20  C   UNL     1       1.508   8.425  20.429  0.00  0.00    +0.000 A 
ATOM     21  C   UNL     1       1.144   8.537  21.718  0.00  0.00    +0.000 A 
ATOM     22  C   UNL     1       0.116   9.524  22.101  0.00  0.00    +0.000 A 
ATOM     23  O   UNL     1      -0.314   9.551  23.252  0.00  0.00    +0.000 OA
ATOM     24  N   UNL     1      -0.294  10.344  21.078  0.00  0.00    +0.000 N 
ATOM     25  C   UNL     1      -1.211  11.363  21.203  0.00  0.00    +0.000 A 
ATOM     26  C   UNL     1      -1.445  12.026  20.065  0.00  0.00    +0.000 A 
ATOM     27  S   UNL     1      -0.510  11.373  18.746  0.00  0.00    +0.000 S 
ATOM     28  C   UNL     1       0.198  10.169  19.806  0.00  0.00    +0.000 A 
ATOM     29  N   UNL     1       1.051   9.273  19.434  0.00  0.00    +0.000 NA
ENDBRANCH  19  20
ENDBRANCH   4  19
TORSDOF 5
ENDMDL
MODEL 5
REMARK VINA RESULT:      -8.6      1.422      1.660
REMARK  Name = 
REMARK  7 active torsions:
REMARK  status: ('A' for Active; 'I' for Inactive)
REMARK    1  A    between atoms: C_1  and  C_2
REMARK    2  A    between atoms: C_5  and  C_6
REMARK    3  A    between atoms: C_7  and  C_8
REMARK    4  A    between atoms: N_10  and  C_11
REMARK    5  A    between atoms: C_11  and  C_12
REMARK    6  A    between atoms: N_15  and  C_16
REMARK    7  A    between atoms: C_16  and  C_17
REMARK                            x       y       z     vdW  Elec       q    Type
REMARK                         _______ _______ _______ _____ _____    ______ ____
ROOT
ATOM      1  C   UNL     1       2.034   3.493  18.469  0.00  0.00    +0.000 C 
ATOM      2  C   UNL     1       1.927   4.823  17.712  0.00  0.00    +0.000 C 
ATOM      3  C   UNL     1       2.401   6.027  18.533  0.00  0.00    +0.000 C 
ATOM      4  N   UNL     1       1.723   6.115  19.839  0.00  0.00    +0.000 NA
ATOM      5  C   UNL     1       1.896   4.871  20.607  0.00  0.00    +0.000 C 
ATOM      6  C   UNL     1       1.365   3.656  19.839  0.00  0.00    +0.000 C 
ENDROOT
BRANCH   1   7
ATOM      7  C   UNL     1       3.481   2.988  18.607  0.00  0.00    +0.000 C 
BRANCH   7  10
ATOM      8  C   UNL     1       5.580   4.230  18.132  0.00  0.00    +0.000 C 
ATOM      9  O   UNL     1       5.956   4.145  19.299  0.00  0.00    +0.000 OA
ATOM     10  N   UNL     1       4.379   3.699  17.712  0.00  0.00    +0.000 N 
ATOM     11  H   UNL     1       4.105   3.765  16.748  0.00  0.00    +0.000 HD
BRANCH   8  18
ATOM     12  C   UNL     1       5.716   3.562  14.983  0.00  0.00    +0.000 C 
ATOM     13  C   UNL     1       6.434   4.618  15.735  0.00  0.00    +0.000 A 
ATOM     14  N   UNL     1       7.263   5.440  15.081  0.00  0.00    +0.000 NA
ATOM     15  O   UNL     1       7.760   6.303  16.026  0.00  0.00    +0.000 OA
ATOM     16  C   UNL     1       7.234   6.007  17.245  0.00  0.00    +0.000 A 
ATOM     17  C   UNL     1       7.701   6.890  18.334  0.00  0.00    +0.000 C 
ATOM     18  C   UNL     1       6.378   4.927  17.131  0.00  0.00    +0.000 A 
ENDBRANCH   8  18
ENDBRANCH   7  10
ENDBRANCH   1   7
BRANCH   4  19
ATOM     19  C   UNL     1       2.234   7.266  20.623  0.00  0.00    +0.000 C 
BRANCH  19  20
ATOM     20  C   UNL     1       1.330   8.494  20.585  0.00  0.00    +0.000 A 
ATOM     21  C   UNL     1       1.167   9.185  19.443  0.00  0.00    +0.000 A 
ATOM     22  C   UNL     1       0.374  10.430  19.452  0.00  0.00    +0.000 A 
ATOM     23  O   UNL     1       0.321  11.133  18.446  0.00  0.00    +0.000 OA
ATOM     24  N   UNL     1      -0.243  10.702  20.648  0.00  0.00    +0.000 N 
ATOM     25  C   UNL     1      -1.065  11.782  20.884  0.00  0.00    +0.000 A 
ATOM     26  C   UNL     1      -1.553  11.830  22.129  0.00  0.00    +0.000 A 
ATOM     27  S   UNL     1      -0.975  10.496  23.092  0.00  0.00    +0.000 S 
ATOM     28  C   UNL     1      -0.047   9.883  21.735  0.00  0.00    +0.000 A 
ATOM     29  N   UNL     1       0.692   8.824  21.769  0.00  0.00    +0.000 NA
ENDBRANCH  19  20
ENDBRANCH   4  19
TORSDOF 5
ENDMDL
MODEL 6
REMARK VINA RESULT:      -8.5      1.616      1.989
REMARK  Name = 
REMARK  7 active torsions:
REMARK  status: ('A' for Active; 'I' for Inactive)
REMARK    1  A    between atoms: C_1  and  C_2
REMARK    2  A    between atoms: C_5  and  C_6
REMARK    3  A    between atoms: C_7  and  C_8
REMARK    4  A    between atoms: N_10  and  C_11
REMARK    5  A    between atoms: C_11  and  C_12
REMARK    6  A    between atoms: N_15  and  C_16
REMARK    7  A    between atoms: C_16  and  C_17
REMARK                            x       y       z     vdW  Elec       q    Type
REMARK                         _______ _______ _______ _____ _____    ______ ____
ROOT
ATOM      1  C   UNL     1       2.776   3.254  19.452  0.00  0.00    +0.000 C 
ATOM      2  C   UNL     1       2.328   3.740  18.068  0.00  0.00    +0.000 C 
ATOM      3  C   UNL     1       2.678   5.207  17.798  0.00  0.00    +0.000 C 
ATOM      4  N   UNL     1       2.175   6.105  18.854  0.00  0.00    +0.000 NA
ATOM      5  C   UNL     1       2.674   5.694  20.177  0.00  0.00    +0.000 C 
ATOM      6  C   UNL     1       2.277   4.251  20.505  0.00  0.00    +0.000 C 
ENDROOT
BRANCH   1   7
ATOM      7  C   UNL     1       4.296   3.041  19.557  0.00  0.00    +0.000 C 
BRANCH   7  10
ATOM      8  C   UNL     1       5.996   4.625  18.679  0.00  0.00    +0.000 C 
ATOM      9  O   UNL     1       6.338   4.966  19.809  0.00  0.00    +0.000 OA
ATOM     10  N   UNL     1       5.001   3.695  18.467  0.00  0.00    +0.000 N 
ATOM     11  H   UNL     1       4.755   3.420  17.534  0.00  0.00    +0.000 HD
BRANCH   8  18
ATOM     12  C   UNL     1       5.854   3.473  15.673  0.00  0.00    +0.000 C 
ATOM     13  C   UNL     1       6.546   4.688  16.165  0.00  0.00    +0.000 A 
ATOM     14  N   UNL     1       7.219   5.455  15.299  0.00  0.00    +0.000 NA
ATOM     15  O   UNL     1       7.732   6.492  16.036  0.00  0.00    +0.000 OA
ATOM     16  C   UNL     1       7.371   6.357  17.341  0.00  0.00    +0.000 A 
ATOM     17  C   UNL     1       7.869   7.436  18.220  0.00  0.00    +0.000 C 
ATOM     18  C   UNL     1       6.613   5.211  17.495  0.00  0.00    +0.000 A 
ENDBRANCH   8  18
ENDBRANCH   7  10
ENDBRANCH   1   7
BRANCH   4  19
ATOM     19  C   UNL     1       2.567   7.511  18.583  0.00  0.00    +0.000 C 
BRANCH  19  20
ATOM     20  C   UNL     1       1.645   8.546  19.219  0.00  0.00    +0.000 A 
ATOM     21  C   UNL     1       1.137   9.550  18.482  0.00  0.00    +0.000 A 
ATOM     22  C   UNL     1       0.334  10.601  19.138  0.00  0.00    +0.000 A 
ATOM     23  O   UNL     1      -0.030  11.586  18.501  0.00  0.00    +0.000 OA
ATOM     24  N   UNL     1       0.075  10.371  20.467  0.00  0.00    +0.000 N 
ATOM     25  C   UNL     1      -0.684  11.187  21.275  0.00  0.00    +0.000 A 
ATOM     26  C   UNL     1      -0.798  10.750  22.535  0.00  0.00    +0.000 A 
ATOM     27  S   UNL     1       0.079   9.263  22.774  0.00  0.00    +0.000 S 
ATOM     28  C   UNL     1       0.603   9.271  21.100  0.00  0.00    +0.000 A 
ATOM     29  N   UNL     1       1.360   8.371  20.563  0.00  0.00    +0.000 NA
ENDBRANCH  19  20
ENDBRANCH   4  19
TORSDOF 5
ENDMDL
MODEL 7
REMARK VINA RESULT:      -8.5      1.652      1.925
REMARK  Name = 
REMARK  7 active torsions:
REMARK  status: ('A' for Active; 'I' for Inactive)
REMARK    1  A    between atoms: C_1  and  C_2
REMARK    2  A    between atoms: C_5  and  C_6
REMARK    3  A    between atoms: C_7  and  C_8
REMARK    4  A    between atoms: N_10  and  C_11
REMARK    5  A    between atoms: C_11  and  C_12
REMARK    6  A    between atoms: N_15  and  C_16
REMARK    7  A    between atoms: C_16  and  C_17
REMARK                            x       y       z     vdW  Elec       q    Type
REMARK                         _______ _______ _______ _____ _____    ______ ____
ROOT
ATOM      1  C   UNL     1       2.390   2.929  18.548  0.00  0.00    +0.000 C 
ATOM      2  C   UNL     1       2.129   4.269  17.848  0.00  0.00    +0.000 C 
ATOM      3  C   UNL     1       2.418   5.483  18.737  0.00  0.00    +0.000 C 
ATOM      4  N   UNL     1       1.700   5.418  20.023  0.00  0.00    +0.000 NA
ATOM      5  C   UNL     1       2.015   4.171  20.740  0.00  0.00    +0.000 C 
ATOM      6  C   UNL     1       1.668   2.936  19.902  0.00  0.00    +0.000 C 
ENDROOT
BRANCH   1   7
ATOM      7  C   UNL     1       3.886   2.610  18.711  0.00  0.00    +0.000 C 
BRANCH   7  10
ATOM      8  C   UNL     1       5.750   4.173  18.207  0.00  0.00    +0.000 C 
ATOM      9  O   UNL     1       6.057   4.272  19.394  0.00  0.00    +0.000 OA
ATOM     10  N   UNL     1       4.697   3.388  17.789  0.00  0.00    +0.000 N 
ATOM     11  H   UNL     1       4.481   3.309  16.812  0.00  0.00    +0.000 HD
BRANCH   8  18
ATOM     12  C   UNL     1       5.783   3.522  15.051  0.00  0.00    +0.000 C 
ATOM     13  C   UNL     1       6.483   4.608  15.778  0.00  0.00    +0.000 A 
ATOM     14  N   UNL     1       7.246   5.468  15.094  0.00  0.00    +0.000 NA
ATOM     15  O   UNL     1       7.745   6.349  16.022  0.00  0.00    +0.000 OA
ATOM     16  C   UNL     1       7.285   6.026  17.260  0.00  0.00    +0.000 A 
ATOM     17  C   UNL     1       7.758   6.925  18.334  0.00  0.00    +0.000 C 
ATOM     18  C   UNL     1       6.473   4.909  17.177  0.00  0.00    +0.000 A 
ENDBRANCH   8  18
ENDBRANCH   7  10
ENDBRANCH   1   7
BRANCH   4  19
ATOM     19  C   UNL     1       2.034   6.586  20.875  0.00  0.00    +0.000 C 
BRANCH  19  20
ATOM     20  C   UNL     1       1.599   7.927  20.290  0.00  0.00    +0.000 A 
ATOM     21  C   UNL     1       1.910   8.249  19.022  0.00  0.00    +0.000 A 
ATOM     22  C   UNL     1       1.573   9.591  18.509  0.00  0.00    +0.000 A 
ATOM     23  O   UNL     1       1.961   9.941  17.397  0.00  0.00    +0.000 OA
ATOM     24  N   UNL     1       0.838  10.363  19.375  0.00  0.00    +0.000 N 
ATOM     25  C   UNL     1       0.373  11.630  19.103  0.00  0.00    +0.000 A 
ATOM     26  C   UNL     1      -0.325  12.179  20.104  0.00  0.00    +0.000 A 
ATOM     27  S   UNL     1      -0.420  11.107  21.476  0.00  0.00    +0.000 S 
ATOM     28  C   UNL     1       0.528   9.897  20.632  0.00  0.00    +0.000 A 
ATOM     29  N   UNL     1       0.865   8.752  21.125  0.00  0.00    +0.000 NA
ENDBRANCH  19  20
ENDBRANCH   4  19
TORSDOF 5
ENDMDL
MODEL 8
REMARK VINA RESULT:      -8.3      2.718      7.199
REMARK  Name = 
REMARK  7 active torsions:
REMARK  status: ('A' for Active; 'I' for Inactive)
REMARK    1  A    between atoms: C_1  and  C_2
REMARK    2  A    between atoms: C_5  and  C_6
REMARK    3  A    between atoms: C_7  and  C_8
REMARK    4  A    between atoms: N_10  and  C_11
REMARK    5  A    between atoms: C_11  and  C_12
REMARK    6  A    between atoms: N_15  and  C_16
REMARK    7  A    between atoms: C_16  and  C_17
REMARK                            x       y       z     vdW  Elec       q    Type
REMARK                         _______ _______ _______ _____ _____    ______ ____
ROOT
ATOM      1  C   UNL     1       1.381   4.091  20.776  0.00  0.00    +0.000 C 
ATOM      2  C   UNL     1       2.099   2.756  21.013  0.00  0.00    +0.000 C 
ATOM      3  C   UNL     1       3.255   2.509  20.037  0.00  0.00    +0.000 C 
ATOM      4  N   UNL     1       2.834   2.632  18.629  0.00  0.00    +0.000 NA
ATOM      5  C   UNL     1       2.221   3.947  18.376  0.00  0.00    +0.000 C 
ATOM      6  C   UNL     1       1.016   4.192  19.290  0.00  0.00    +0.000 C 
ENDROOT
BRANCH   1   7
ATOM      7  C   UNL     1       2.197   5.309  21.239  0.00  0.00    +0.000 C 
BRANCH   7  10
ATOM      8  C   UNL     1       1.549   7.618  20.592  0.00  0.00    +0.000 C 
ATOM      9  O   UNL     1       1.067   7.850  21.699  0.00  0.00    +0.000 OA
ATOM     10  N   UNL     1       2.114   6.399  20.282  0.00  0.00    +0.000 N 
ATOM     11  H   UNL     1       2.518   6.244  19.376  0.00  0.00    +0.000 HD
BRANCH   8  18
ATOM     12  C   UNL     1       3.121   7.483  17.783  0.00  0.00    +0.000 C 
ATOM     13  C   UNL     1       2.228   8.550  18.291  0.00  0.00    +0.000 A 
ATOM     14  N   UNL     1       1.999   9.629  17.532  0.00  0.00    +0.000 NA
ATOM     15  O   UNL     1       1.140  10.420  18.253  0.00  0.00    +0.000 OA
ATOM     16  C   UNL     1       0.847   9.824  19.441  0.00  0.00    +0.000 A 
ATOM     17  C   UNL     1      -0.084  10.595  20.290  0.00  0.00    +0.000 C 
ATOM     18  C   UNL     1       1.522   8.620  19.533  0.00  0.00    +0.000 A 
ENDBRANCH   8  18
ENDBRANCH   7  10
ENDBRANCH   1   7
BRANCH   4  19
ATOM     19  C   UNL     1       3.984   2.428  17.714  0.00  0.00    +0.000 C 
BRANCH  19  20
ATOM     20  C   UNL     1       4.832   3.677  17.495  0.00  0.00    +0.000 A 
ATOM     21  C   UNL     1       4.718   4.387  16.359  0.00  0.00    +0.000 A 
ATOM     22  C   UNL     1       5.621   5.530  16.121  0.00  0.00    +0.000 A 
ATOM     23  O   UNL     1       5.610   6.108  15.037  0.00  0.00    +0.000 OA
ATOM     24  N   UNL     1       6.439   5.838  17.180  0.00  0.00    +0.000 N 
ATOM     25  C   UNL     1       7.334   6.884  17.207  0.00  0.00    +0.000 A 
ATOM     26  C   UNL     1       8.016   6.985  18.354  0.00  0.00    +0.000 A 
ATOM     27  S   UNL     1       7.564   5.729  19.476  0.00  0.00    +0.000 S 
ATOM     28  C   UNL     1       6.423   5.069  18.320  0.00  0.00    +0.000 A 
ATOM     29  N   UNL     1       5.686   4.028  18.528  0.00  0.00    +0.000 NA
ENDBRANCH  19  20
ENDBRANCH   4  19
TORSDOF 5
ENDMDL
MODEL 9
REMARK VINA RESULT:      -8.3      1.160      1.288
REMARK  Name = 
REMARK  7 active torsions:
REMARK  status: ('A' for Active; 'I' for Inactive)
REMARK    1  A    between atoms: C_1  and  C_2
REMARK    2  A    between atoms: C_5  and  C_6
REMARK    3  A    between atoms: C_7  and  C_8
REMARK    4  A    between atoms: N_10  and  C_11
REMARK    5  A    between atoms: C_11  and  C_12
REMARK    6  A    between atoms: N_15  and  C_16
REMARK    7  A    between atoms: C_16  and  C_17
REMARK                            x       y       z     vdW  Elec       q    Type
REMARK                         _______ _______ _______ _____ _____    ______ ____
ROOT
ATOM      1  C   UNL     1       1.967   2.698  17.993  0.00  0.00    +0.000 C 
ATOM      2  C   UNL     1       1.899   4.139  17.470  0.00  0.00    +0.000 C 
ATOM      3  C   UNL     1       2.387   5.176  18.487  0.00  0.00    +0.000 C 
ATOM      4  N   UNL     1       1.692   5.059  19.782  0.00  0.00    +0.000 NA
ATOM      5  C   UNL     1       1.827   3.699  20.331  0.00  0.00    +0.000 C 
ATOM      6  C   UNL     1       1.281   2.643  19.364  0.00  0.00    +0.000 C 
ENDROOT
BRANCH   1   7
ATOM      7  C   UNL     1       3.400   2.143  18.059  0.00  0.00    +0.000 C 
BRANCH   7  10
ATOM      8  C   UNL     1       5.312   3.721  18.223  0.00  0.00    +0.000 C 
ATOM      9  O   UNL     1       5.403   3.566  19.439  0.00  0.00    +0.000 OA
ATOM     10  N   UNL     1       4.355   3.069  17.474  0.00  0.00    +0.000 N 
ATOM     11  H   UNL     1       4.316   3.198  16.479  0.00  0.00    +0.000 HD
BRANCH   8  18
ATOM     12  C   UNL     1       5.353   4.262  15.046  0.00  0.00    +0.000 C 
ATOM     13  C   UNL     1       6.212   4.859  16.096  0.00  0.00    +0.000 A 
ATOM     14  N   UNL     1       7.147   5.750  15.749  0.00  0.00    +0.000 NA
ATOM     15  O   UNL     1       7.761   6.127  16.918  0.00  0.00    +0.000 OA
ATOM     16  C   UNL     1       7.199   5.469  17.968  0.00  0.00    +0.000 A 
ATOM     17  C   UNL     1       7.785   5.814  19.280  0.00  0.00    +0.000 C 
ATOM     18  C   UNL     1       6.200   4.631  17.508  0.00  0.00    +0.000 A 
ENDBRANCH   8  18
ENDBRANCH   7  10
ENDBRANCH   1   7
BRANCH   4  19
ATOM     19  C   UNL     1       2.217   6.048  20.755  0.00  0.00    +0.000 C 
BRANCH  19  20
ATOM     20  C   UNL     1       1.559   7.422  20.660  0.00  0.00    +0.000 A 
ATOM     21  C   UNL     1       0.751   7.859  21.643  0.00  0.00    +0.000 A 
ATOM     22  C   UNL     1       0.041   9.143  21.484  0.00  0.00    +0.000 A 
ATOM     23  O   UNL     1      -0.792   9.493  22.316  0.00  0.00    +0.000 OA
ATOM     24  N   UNL     1       0.384   9.847  20.356  0.00  0.00    +0.000 N 
ATOM     25  C   UNL     1      -0.114  11.084  20.016  0.00  0.00    +0.000 A 
ATOM     26  C   UNL     1       0.376  11.571  18.870  0.00  0.00    +0.000 A 
ATOM     27  S   UNL     1       1.505  10.461  18.138  0.00  0.00    +0.000 S 
ATOM     28  C   UNL     1       1.273   9.319  19.449  0.00  0.00    +0.000 A 
ATOM     29  N   UNL     1       1.860   8.171  19.535  0.00  0.00    +0.000 NA
ENDBRANCH  19  20
ENDBRANCH   4  19
TORSDOF 5
ENDMDL
