MODEL 1
REMARK VINA RESULT:      -8.2      0.000      0.000
REMARK  Name = 
REMARK  12 active torsions:
REMARK  status: ('A' for Active; 'I' for Inactive)
REMARK    1  A    between atoms: C_1  and  C_2
REMARK    2  A    between atoms: C_2  and  C_3
REMARK    3  A    between atoms: C_2  and  C_4
REMARK    4  A    between atoms: C_4  and  N_5
REMARK    5  A    between atoms: N_5  and  C_6
REMARK    6  A    between atoms: N_5  and  C_25
REMARK    7  A    between atoms: C_6  and  C_7
REMARK    8  A    between atoms: C_14  and  C_15
REMARK    9  A    between atoms: C_21  and  O_22
REMARK   10  A    between atoms: C_25  and  C_26
REMARK   11  A    between atoms: C_26  and  C_27
REMARK   12  A    between atoms: C_26  and  C_28
REMARK                            x       y       z     vdW  Elec       q    Type
REMARK                         _______ _______ _______ _____ _____    ______ ____
ROOT
ATOM      1  C   UNL     1       3.507   4.345  18.778  0.00  0.00    +0.000 A 
ATOM      2  C   UNL     1       3.338   3.405  19.724  0.00  0.00    +0.000 A 
ATOM      3  C   UNL     1       2.721   3.661  21.032  0.00  0.00    +0.000 A 
ATOM      4  O   UNL     1       2.715   2.798  21.901  0.00  0.00    +0.000 OA
ATOM      5  O   UNL     1       2.090   4.883  21.192  0.00  0.00    +0.000 OA
ATOM      6  C   UNL     1       2.228   5.892  20.219  0.00  0.00    +0.000 A 
ATOM      7  C   UNL     1       1.544   7.089  20.469  0.00  0.00    +0.000 A 
ATOM      8  C   UNL     1       1.616   8.164  19.566  0.00  0.00    +0.000 A 
ATOM      9  C   UNL     1       2.456   7.969  18.446  0.00  0.00    +0.000 A 
ATOM     10  C   UNL     1       3.171   6.783  18.228  0.00  0.00    +0.000 A 
ATOM     11  C   UNL     1       3.005   5.695  19.078  0.00  0.00    +0.000 A 
ENDROOT
BRANCH   8  12
ATOM     12  C   UNL     1       0.843   9.412  19.809  0.00  0.00    +0.000 A 
ATOM     13  C   UNL     1       0.862  10.059  21.060  0.00  0.00    +0.000 A 
ATOM     14  C   UNL     1       0.207  11.278  21.268  0.00  0.00    +0.000 A 
ATOM     15  C   UNL     1      -0.529  11.860  20.243  0.00  0.00    +0.000 A 
ATOM     16  C   UNL     1      -0.612  11.220  19.010  0.00  0.00    +0.000 A 
ATOM     17  C   UNL     1       0.075  10.017  18.793  0.00  0.00    +0.000 A 
ENDBRANCH   8  12
BRANCH   9  18
ATOM     18  O   UNL     1       2.580   8.889  17.434  0.00  0.00    +0.000 OA
ATOM     19  H   UNL     1       3.344   9.454  17.644  0.00  0.00    +0.000 HD
ENDBRANCH   9  18
BRANCH   1  20
ATOM     20  C   UNL     1       3.951   3.959  17.371  0.00  0.00    +0.000 C 
BRANCH  20  21
ATOM     21  N   UNL     1       5.226   4.519  16.855  0.00  0.00    +0.000 NA
BRANCH  21  22
ATOM     22  C   UNL     1       5.674   3.720  15.674  0.00  0.00    +0.000 C 
BRANCH  22  24
ATOM     23  C   UNL     1       7.267   5.082  14.207  0.00  0.00    +0.000 C 
ATOM     24  C   UNL     1       5.864   4.490  14.340  0.00  0.00    +0.000 C 
ATOM     25  C   UNL     1       5.593   3.565  13.145  0.00  0.00    +0.000 C 
ENDBRANCH  22  24
ENDBRANCH  21  22
BRANCH  21  26
ATOM     26  C   UNL     1       6.258   4.458  17.922  0.00  0.00    +0.000 C 
BRANCH  26  27
ATOM     27  C   UNL     1       7.347   5.556  17.954  0.00  0.00    +0.000 C 
ATOM     28  C   UNL     1       6.855   6.880  17.368  0.00  0.00    +0.000 C 
ATOM     29  C   UNL     1       7.785   5.765  19.411  0.00  0.00    +0.000 C 
ENDBRANCH  26  27
ENDBRANCH  21  26
ENDBRANCH  20  21
ENDBRANCH   1  20
TORSDOF 8
ENDMDL
MODEL 2
REMARK VINA RESULT:      -8.0      0.778      1.190
REMARK  Name = 
REMARK  12 active torsions:
REMARK  status: ('A' for Active; 'I' for Inactive)
REMARK    1  A    between atoms: C_1  and  C_2
REMARK    2  A    between atoms: C_2  and  C_3
REMARK    3  A    between atoms: C_2  and  C_4
REMARK    4  A    between atoms: C_4  and  N_5
REMARK    5  A    between atoms: N_5  and  C_6
REMARK    6  A    between atoms: N_5  and  C_25
REMARK    7  A    between atoms: C_6  and  C_7
REMARK    8  A    between atoms: C_14  and  C_15
REMARK    9  A    between atoms: C_21  and  O_22
REMARK   10  A    between atoms: C_25  and  C_26
REMARK   11  A    between atoms: C_26  and  C_27
REMARK   12  A    between atoms: C_26  and  C_28
REMARK                            x       y       z     vdW  Elec       q    Type
REMARK                         _______ _______ _______ _____ _____    ______ ____
ROOT
ATOM      1  C   UNL     1       3.081   5.169  18.798  0.00  0.00    +0.000 A 
ATOM      2  C   UNL     1       2.924   4.238  19.755  0.00  0.00    +0.000 A 
ATOM      3  C   UNL     1       2.315   4.503  21.064  0.00  0.00    +0.000 A 
ATOM      4  O   UNL     1       2.320   3.648  21.941  0.00  0.00    +0.000 OA
ATOM      5  O   UNL     1       1.679   5.723  21.217  0.00  0.00    +0.000 OA
ATOM      6  C   UNL     1       1.805   6.724  20.233  0.00  0.00    +0.000 A 
ATOM      7  C   UNL     1       1.116   7.920  20.476  0.00  0.00    +0.000 A 
ATOM      8  C   UNL     1       1.177   8.986  19.563  0.00  0.00    +0.000 A 
ATOM      9  C   UNL     1       2.010   8.785  18.438  0.00  0.00    +0.000 A 
ATOM     10  C   UNL     1       2.729   7.600  18.227  0.00  0.00    +0.000 A 
ATOM     11  C   UNL     1       2.575   6.520  19.088  0.00  0.00    +0.000 A 
ENDROOT
BRANCH   8  12
ATOM     12  C   UNL     1       0.400  10.233  19.799  0.00  0.00    +0.000 A 
ATOM     13  C   UNL     1      -0.840  10.459  19.168  0.00  0.00    +0.000 A 
ATOM     14  C   UNL     1      -1.614  11.589  19.451  0.00  0.00    +0.000 A 
ATOM     15  C   UNL     1      -1.147  12.552  20.338  0.00  0.00    +0.000 A 
ATOM     16  C   UNL     1       0.097  12.387  20.937  0.00  0.00    +0.000 A 
ATOM     17  C   UNL     1       0.855  11.235  20.679  0.00  0.00    +0.000 A 
ENDBRANCH   8  12
BRANCH   9  18
ATOM     18  O   UNL     1       2.121   9.695  17.417  0.00  0.00    +0.000 OA
ATOM     19  H   UNL     1       1.807  10.552  17.752  0.00  0.00    +0.000 HD
ENDBRANCH   9  18
BRANCH   1  20
ATOM     20  C   UNL     1       3.516   4.772  17.392  0.00  0.00    +0.000 C 
BRANCH  20  21
ATOM     21  N   UNL     1       4.890   5.124  16.952  0.00  0.00    +0.000 NA
BRANCH  21  22
ATOM     22  C   UNL     1       5.348   4.140  15.925  0.00  0.00    +0.000 C 
BRANCH  22  24
ATOM     23  C   UNL     1       7.264   4.957  14.439  0.00  0.00    +0.000 C 
ATOM     24  C   UNL     1       5.759   4.712  14.542  0.00  0.00    +0.000 C 
ATOM     25  C   UNL     1       5.326   3.759  13.418  0.00  0.00    +0.000 C 
ENDBRANCH  22  24
ENDBRANCH  21  22
BRANCH  21  26
ATOM     26  C   UNL     1       5.805   5.091  18.122  0.00  0.00    +0.000 C 
BRANCH  26  27
ATOM     27  C   UNL     1       7.204   5.735  17.979  0.00  0.00    +0.000 C 
ATOM     28  C   UNL     1       7.133   7.166  17.447  0.00  0.00    +0.000 C 
ATOM     29  C   UNL     1       7.887   5.727  19.355  0.00  0.00    +0.000 C 
ENDBRANCH  26  27
ENDBRANCH  21  26
ENDBRANCH  20  21
ENDBRANCH   1  20
TORSDOF 8
ENDMDL
MODEL 3
REMARK VINA RESULT:      -8.0      0.760      1.213
REMARK  Name = 
REMARK  12 active torsions:
REMARK  status: ('A' for Active; 'I' for Inactive)
REMARK    1  A    between atoms: C_1  and  C_2
REMARK    2  A    between atoms: C_2  and  C_3
REMARK    3  A    between atoms: C_2  and  C_4
REMARK    4  A    between atoms: C_4  and  N_5
REMARK    5  A    between atoms: N_5  and  C_6
REMARK    6  A    between atoms: N_5  and  C_25
REMARK    7  A    between atoms: C_6  and  C_7
REMARK    8  A    between atoms: C_14  and  C_15
REMARK    9  A    between atoms: C_21  and  O_22
REMARK   10  A    between atoms: C_25  and  C_26
REMARK   11  A    between atoms: C_26  and  C_27
REMARK   12  A    between atoms: C_26  and  C_28
REMARK                            x       y       z     vdW  Elec       q    Type
REMARK                         _______ _______ _______ _____ _____    ______ ____
ROOT
ATOM      1  C   UNL     1       4.052   4.642  17.951  0.00  0.00    +0.000 A 
ATOM      2  C   UNL     1       4.023   3.542  18.723  0.00  0.00    +0.000 A 
ATOM      3  C   UNL     1       3.450   3.502  20.074  0.00  0.00    +0.000 A 
ATOM      4  O   UNL     1       3.572   2.507  20.777  0.00  0.00    +0.000 OA
ATOM      5  O   UNL     1       2.712   4.606  20.466  0.00  0.00    +0.000 OA
ATOM      6  C   UNL     1       2.701   5.776  19.682  0.00  0.00    +0.000 A 
ATOM      7  C   UNL     1       1.916   6.834  20.160  0.00  0.00    +0.000 A 
ATOM      8  C   UNL     1       1.838   8.049  19.459  0.00  0.00    +0.000 A 
ATOM      9  C   UNL     1       2.636   8.139  18.296  0.00  0.00    +0.000 A 
ATOM     10  C   UNL     1       3.452   7.090  17.850  0.00  0.00    +0.000 A 
ATOM     11  C   UNL     1       3.436   5.861  18.500  0.00  0.00    +0.000 A 
ENDROOT
BRANCH   8  12
ATOM     12  C   UNL     1       0.959   9.149  19.942  0.00  0.00    +0.000 A 
ATOM     13  C   UNL     1       0.104   9.847  19.066  0.00  0.00    +0.000 A 
ATOM     14  C   UNL     1      -0.785  10.823  19.529  0.00  0.00    +0.000 A 
ATOM     15  C   UNL     1      -0.809  11.165  20.875  0.00  0.00    +0.000 A 
ATOM     16  C   UNL     1       0.061  10.533  21.759  0.00  0.00    +0.000 A 
ATOM     17  C   UNL     1       0.926   9.530  21.298  0.00  0.00    +0.000 A 
ENDBRANCH   8  12
BRANCH   9  18
ATOM     18  O   UNL     1       2.619   9.226  17.458  0.00  0.00    +0.000 OA
ATOM     19  H   UNL     1       2.273   9.982  17.965  0.00  0.00    +0.000 HD
ENDBRANCH   9  18
BRANCH   1  20
ATOM     20  C   UNL     1       4.461   4.553  16.485  0.00  0.00    +0.000 C 
BRANCH  20  21
ATOM     21  N   UNL     1       5.881   4.806  16.132  0.00  0.00    +0.000 NA
BRANCH  21  22
ATOM     22  C   UNL     1       6.291   3.873  15.039  0.00  0.00    +0.000 C 
BRANCH  22  24
ATOM     23  C   UNL     1       7.734   5.054  13.287  0.00  0.00    +0.000 C 
ATOM     24  C   UNL     1       6.361   4.462  13.605  0.00  0.00    +0.000 C 
ATOM     25  C   UNL     1       6.025   3.383  12.566  0.00  0.00    +0.000 C 
ENDBRANCH  22  24
ENDBRANCH  21  22
BRANCH  21  26
ATOM     26  C   UNL     1       6.733   4.584  17.328  0.00  0.00    +0.000 C 
BRANCH  26  27
ATOM     27  C   UNL     1       7.580   5.765  17.856  0.00  0.00    +0.000 C 
ATOM     28  C   UNL     1       7.059   7.117  17.369  0.00  0.00    +0.000 C 
ATOM     29  C   UNL     1       7.566   5.727  19.392  0.00  0.00    +0.000 C 
ENDBRANCH  26  27
ENDBRANCH  21  26
ENDBRANCH  20  21
ENDBRANCH   1  20
TORSDOF 8
ENDMDL
MODEL 4
REMARK VINA RESULT:      -8.0      0.921      2.611
REMARK  Name = 
REMARK  12 active torsions:
REMARK  status: ('A' for Active; 'I' for Inactive)
REMARK    1  A    between atoms: C_1  and  C_2
REMARK    2  A    between atoms: C_2  and  C_3
REMARK    3  A    between atoms: C_2  and  C_4
REMARK    4  A    between atoms: C_4  and  N_5
REMARK    5  A    between atoms: N_5  and  C_6
REMARK    6  A    between atoms: N_5  and  C_25
REMARK    7  A    between atoms: C_6  and  C_7
REMARK    8  A    between atoms: C_14  and  C_15
REMARK    9  A    between atoms: C_21  and  O_22
REMARK   10  A    between atoms: C_25  and  C_26
REMARK   11  A    between atoms: C_26  and  C_27
REMARK   12  A    between atoms: C_26  and  C_28
REMARK                            x       y       z     vdW  Elec       q    Type
REMARK                         _______ _______ _______ _____ _____    ______ ____
ROOT
ATOM      1  C   UNL     1       3.381   5.455  18.657  0.00  0.00    +0.000 A 
ATOM      2  C   UNL     1       3.208   4.485  19.570  0.00  0.00    +0.000 A 
ATOM      3  C   UNL     1       2.468   4.665  20.826  0.00  0.00    +0.000 A 
ATOM      4  O   UNL     1       2.457   3.785  21.678  0.00  0.00    +0.000 OA
ATOM      5  O   UNL     1       1.736   5.833  20.953  0.00  0.00    +0.000 OA
ATOM      6  C   UNL     1       1.876   6.871  20.011  0.00  0.00    +0.000 A 
ATOM      7  C   UNL     1       1.085   8.009  20.222  0.00  0.00    +0.000 A 
ATOM      8  C   UNL     1       1.150   9.106  19.346  0.00  0.00    +0.000 A 
ATOM      9  C   UNL     1       2.090   8.999  18.296  0.00  0.00    +0.000 A 
ATOM     10  C   UNL     1       2.908   7.874  18.119  0.00  0.00    +0.000 A 
ATOM     11  C   UNL     1       2.757   6.758  18.935  0.00  0.00    +0.000 A 
ENDROOT
BRANCH   8  12
ATOM     12  C   UNL     1       0.267  10.288  19.543  0.00  0.00    +0.000 A 
ATOM     13  C   UNL     1       0.579  11.291  20.482  0.00  0.00    +0.000 A 
ATOM     14  C   UNL     1      -0.200  12.446  20.611  0.00  0.00    +0.000 A 
ATOM     15  C   UNL     1      -1.344  12.606  19.839  0.00  0.00    +0.000 A 
ATOM     16  C   UNL     1      -1.711  11.609  18.940  0.00  0.00    +0.000 A 
ATOM     17  C   UNL     1      -0.908  10.470  18.787  0.00  0.00    +0.000 A 
ENDBRANCH   8  12
BRANCH   9  18
ATOM     18  O   UNL     1       2.227   9.946  17.313  0.00  0.00    +0.000 OA
ATOM     19  H   UNL     1       1.606  10.669  17.514  0.00  0.00    +0.000 HD
ENDBRANCH   9  18
BRANCH   1  20
ATOM     20  C   UNL     1       3.966   5.135  17.286  0.00  0.00    +0.000 C 
BRANCH  20  21
ATOM     21  N   UNL     1       5.441   5.022  17.156  0.00  0.00    +0.000 NA
BRANCH  21  22
ATOM     22  C   UNL     1       6.022   6.380  16.930  0.00  0.00    +0.000 C 
BRANCH  22  24
ATOM     23  C   UNL     1       7.770   8.128  17.592  0.00  0.00    +0.000 C 
ATOM     24  C   UNL     1       7.444   6.637  17.498  0.00  0.00    +0.000 C 
ATOM     25  C   UNL     1       7.589   6.000  18.887  0.00  0.00    +0.000 C 
ENDBRANCH  22  24
ENDBRANCH  21  22
BRANCH  21  26
ATOM     26  C   UNL     1       5.768   4.139  16.007  0.00  0.00    +0.000 C 
BRANCH  26  27
ATOM     27  C   UNL     1       5.897   4.777  14.604  0.00  0.00    +0.000 C 
ATOM     28  C   UNL     1       7.353   4.972  14.185  0.00  0.00    +0.000 C 
ATOM     29  C   UNL     1       5.183   3.870  13.590  0.00  0.00    +0.000 C 
ENDBRANCH  26  27
ENDBRANCH  21  26
ENDBRANCH  20  21
ENDBRANCH   1  20
TORSDOF 8
ENDMDL
MODEL 5
REMARK VINA RESULT:      -7.9      0.973      2.756
REMARK  Name = 
REMARK  12 active torsions:
REMARK  status: ('A' for Active; 'I' for Inactive)
REMARK    1  A    between atoms: C_1  and  C_2
REMARK    2  A    between atoms: C_2  and  C_3
REMARK    3  A    between atoms: C_2  and  C_4
REMARK    4  A    between atoms: C_4  and  N_5
REMARK    5  A    between atoms: N_5  and  C_6
REMARK    6  A    between atoms: N_5  and  C_25
REMARK    7  A    between atoms: C_6  and  C_7
REMARK    8  A    between atoms: C_14  and  C_15
REMARK    9  A    between atoms: C_21  and  O_22
REMARK   10  A    between atoms: C_25  and  C_26
REMARK   11  A    between atoms: C_26  and  C_27
REMARK   12  A    between atoms: C_26  and  C_28
REMARK                            x       y       z     vdW  Elec       q    Type
REMARK                         _______ _______ _______ _____ _____    ______ ____
ROOT
ATOM      1  C   UNL     1       3.140   5.473  18.699  0.00  0.00    +0.000 A 
ATOM      2  C   UNL     1       2.988   4.520  19.634  0.00  0.00    +0.000 A 
ATOM      3  C   UNL     1       2.326   4.739  20.926  0.00  0.00    +0.000 A 
ATOM      4  O   UNL     1       2.334   3.870  21.789  0.00  0.00    +0.000 OA
ATOM      5  O   UNL     1       1.639   5.931  21.077  0.00  0.00    +0.000 OA
ATOM      6  C   UNL     1       1.759   6.953  20.115  0.00  0.00    +0.000 A 
ATOM      7  C   UNL     1       1.017   8.118  20.354  0.00  0.00    +0.000 A 
ATOM      8  C   UNL     1       1.067   9.201  19.461  0.00  0.00    +0.000 A 
ATOM      9  C   UNL     1       1.944   9.052  18.362  0.00  0.00    +0.000 A 
ATOM     10  C   UNL     1       2.715   7.899  18.156  0.00  0.00    +0.000 A 
ATOM     11  C   UNL     1       2.574   6.798  18.994  0.00  0.00    +0.000 A 
ENDROOT
BRANCH   8  12
ATOM     12  C   UNL     1       0.235  10.414  19.691  0.00  0.00    +0.000 A 
ATOM     13  C   UNL     1      -0.999  10.595  19.035  0.00  0.00    +0.000 A 
ATOM     14  C   UNL     1      -1.824  11.691  19.312  0.00  0.00    +0.000 A 
ATOM     15  C   UNL     1      -1.416  12.663  20.216  0.00  0.00    +0.000 A 
ATOM     16  C   UNL     1      -0.178  12.542  20.841  0.00  0.00    +0.000 A 
ATOM     17  C   UNL     1       0.631  11.425  20.590  0.00  0.00    +0.000 A 
ENDBRANCH   8  12
BRANCH   9  18
ATOM     18  O   UNL     1       2.054   9.983  17.360  0.00  0.00    +0.000 OA
ATOM     19  H   UNL     1       2.089  10.861  17.778  0.00  0.00    +0.000 HD
ENDBRANCH   9  18
BRANCH   1  20
ATOM     20  C   UNL     1       3.637   5.118  17.302  0.00  0.00    +0.000 C 
BRANCH  20  21
ATOM     21  N   UNL     1       5.102   5.104  17.056  0.00  0.00    +0.000 NA
BRANCH  21  22
ATOM     22  C   UNL     1       5.759   6.121  17.931  0.00  0.00    +0.000 C 
BRANCH  22  24
ATOM     23  C   UNL     1       7.745   7.688  17.544  0.00  0.00    +0.000 C 
ATOM     24  C   UNL     1       7.302   6.251  17.816  0.00  0.00    +0.000 C 
ATOM     25  C   UNL     1       7.979   5.750  19.100  0.00  0.00    +0.000 C 
ENDBRANCH  22  24
ENDBRANCH  21  22
BRANCH  21  26
ATOM     26  C   UNL     1       5.364   5.425  15.629  0.00  0.00    +0.000 C 
BRANCH  26  27
ATOM     27  C   UNL     1       6.182   4.416  14.788  0.00  0.00    +0.000 C 
ATOM     28  C   UNL     1       5.372   3.833  13.631  0.00  0.00    +0.000 C 
ATOM     29  C   UNL     1       7.425   5.134  14.240  0.00  0.00    +0.000 C 
ENDBRANCH  26  27
ENDBRANCH  21  26
ENDBRANCH  20  21
ENDBRANCH   1  20
TORSDOF 8
ENDMDL
MODEL 6
REMARK VINA RESULT:      -7.8      1.120      2.920
REMARK  Name = 
REMARK  12 active torsions:
REMARK  status: ('A' for Active; 'I' for Inactive)
REMARK    1  A    between atoms: C_1  and  C_2
REMARK    2  A    between atoms: C_2  and  C_3
REMARK    3  A    between atoms: C_2  and  C_4
REMARK    4  A    between atoms: C_4  and  N_5
REMARK    5  A    between atoms: N_5  and  C_6
REMARK    6  A    between atoms: N_5  and  C_25
REMARK    7  A    between atoms: C_6  and  C_7
REMARK    8  A    between atoms: C_14  and  C_15
REMARK    9  A    between atoms: C_21  and  O_22
REMARK   10  A    between atoms: C_25  and  C_26
REMARK   11  A    between atoms: C_26  and  C_27
REMARK   12  A    between atoms: C_26  and  C_28
REMARK                            x       y       z     vdW  Elec       q    Type
REMARK                         _______ _______ _______ _____ _____    ______ ____
ROOT
ATOM      1  C   UNL     1       3.866   4.481  17.898  0.00  0.00    +0.000 A 
ATOM      2  C   UNL     1       3.987   3.333  18.586  0.00  0.00    +0.000 A 
ATOM      3  C   UNL     1       3.636   3.187  20.004  0.00  0.00    +0.000 A 
ATOM      4  O   UNL     1       3.892   2.153  20.610  0.00  0.00    +0.000 OA
ATOM      5  O   UNL     1       2.942   4.236  20.583  0.00  0.00    +0.000 OA
ATOM      6  C   UNL     1       2.780   5.453  19.893  0.00  0.00    +0.000 A 
ATOM      7  C   UNL     1       2.055   6.450  20.560  0.00  0.00    +0.000 A 
ATOM      8  C   UNL     1       1.837   7.704  19.965  0.00  0.00    +0.000 A 
ATOM      9  C   UNL     1       2.438   7.897  18.700  0.00  0.00    +0.000 A 
ATOM     10  C   UNL     1       3.198   6.908  18.061  0.00  0.00    +0.000 A 
ATOM     11  C   UNL     1       3.316   5.640  18.619  0.00  0.00    +0.000 A 
ENDROOT
BRANCH   8  12
ATOM     12  C   UNL     1       1.020   8.740  20.654  0.00  0.00    +0.000 A 
ATOM     13  C   UNL     1       0.240   9.664  19.931  0.00  0.00    +0.000 A 
ATOM     14  C   UNL     1      -0.596  10.583  20.574  0.00  0.00    +0.000 A 
ATOM     15  C   UNL     1      -0.638  10.638  21.962  0.00  0.00    +0.000 A 
ATOM     16  C   UNL     1       0.162   9.776  22.707  0.00  0.00    +0.000 A 
ATOM     17  C   UNL     1       0.971   8.832  22.060  0.00  0.00    +0.000 A 
ENDBRANCH   8  12
BRANCH   9  18
ATOM     18  O   UNL     1       2.262   9.035  17.952  0.00  0.00    +0.000 OA
ATOM     19  H   UNL     1       2.880   9.706  18.290  0.00  0.00    +0.000 HD
ENDBRANCH   9  18
BRANCH   1  20
ATOM     20  C   UNL     1       4.039   4.500  16.383  0.00  0.00    +0.000 C 
BRANCH  20  21
ATOM     21  N   UNL     1       5.410   4.650  15.831  0.00  0.00    +0.000 NA
BRANCH  21  22
ATOM     22  C   UNL     1       5.998   5.937  16.312  0.00  0.00    +0.000 C 
BRANCH  22  24
ATOM     23  C   UNL     1       7.734   4.644  17.677  0.00  0.00    +0.000 C 
ATOM     24  C   UNL     1       6.836   5.880  17.618  0.00  0.00    +0.000 C 
ATOM     25  C   UNL     1       7.702   7.140  17.754  0.00  0.00    +0.000 C 
ENDBRANCH  22  24
ENDBRANCH  21  22
BRANCH  21  26
ATOM     26  C   UNL     1       5.345   4.652  14.347  0.00  0.00    +0.000 C 
BRANCH  26  27
ATOM     27  C   UNL     1       6.457   3.917  13.563  0.00  0.00    +0.000 C 
ATOM     28  C   UNL     1       5.926   3.236  12.302  0.00  0.00    +0.000 C 
ATOM     29  C   UNL     1       7.542   4.937  13.183  0.00  0.00    +0.000 C 
ENDBRANCH  26  27
ENDBRANCH  21  26
ENDBRANCH  20  21
ENDBRANCH   1  20
TORSDOF 8
ENDMDL
MODEL 7
REMARK VINA RESULT:      -7.8      0.805      2.833
REMARK  Name = 
REMARK  12 active torsions:
REMARK  status: ('A' for Active; 'I' for Inactive)
REMARK    1  A    between atoms: C_1  and  C_2
REMARK    2  A    between atoms: C_2  and  C_3
REMARK    3  A    between atoms: C_2  and  C_4
REMARK    4  A    between atoms: C_4  and  N_5
REMARK    5  A    between atoms: N_5  and  C_6
REMARK    6  A    between atoms: N_5  and  C_25
REMARK    7  A    between atoms: C_6  and  C_7
REMARK    8  A    between atoms: C_14  and  C_15
REMARK    9  A    between atoms: C_21  and  O_22
REMARK   10  A    between atoms: C_25  and  C_26
REMARK   11  A    between atoms: C_26  and  C_27
REMARK   12  A    between atoms: C_26  and  C_28
REMARK                            x       y       z     vdW  Elec       q    Type
REMARK                         _______ _______ _______ _____ _____    ______ ____
ROOT
ATOM      1  C   UNL     1       4.041   4.972  18.070  0.00  0.00    +0.000 A 
ATOM      2  C   UNL     1       3.923   3.882  18.848  0.00  0.00    +0.000 A 
ATOM      3  C   UNL     1       3.191   3.858  20.120  0.00  0.00    +0.000 A 
ATOM      4  O   UNL     1       3.229   2.873  20.847  0.00  0.00    +0.000 OA
ATOM      5  O   UNL     1       2.407   4.963  20.405  0.00  0.00    +0.000 OA
ATOM      6  C   UNL     1       2.487   6.122  19.609  0.00  0.00    +0.000 A 
ATOM      7  C   UNL     1       1.647   7.183  19.974  0.00  0.00    +0.000 A 
ATOM      8  C   UNL     1       1.650   8.388  19.252  0.00  0.00    +0.000 A 
ATOM      9  C   UNL     1       2.583   8.466  18.192  0.00  0.00    +0.000 A 
ATOM     10  C   UNL     1       3.450   7.415  17.862  0.00  0.00    +0.000 A 
ATOM     11  C   UNL     1       3.360   6.195  18.523  0.00  0.00    +0.000 A 
ENDROOT
BRANCH   8  12
ATOM     12  C   UNL     1       0.717   9.490  19.609  0.00  0.00    +0.000 A 
ATOM     13  C   UNL     1      -0.187  10.024  18.669  0.00  0.00    +0.000 A 
ATOM     14  C   UNL     1      -1.125  11.000  19.022  0.00  0.00    +0.000 A 
ATOM     15  C   UNL     1      -1.152  11.508  20.316  0.00  0.00    +0.000 A 
ATOM     16  C   UNL     1      -0.237  11.041  21.255  0.00  0.00    +0.000 A 
ATOM     17  C   UNL     1       0.677  10.036  20.908  0.00  0.00    +0.000 A 
ENDBRANCH   8  12
BRANCH   9  18
ATOM     18  O   UNL     1       2.663   9.542  17.342  0.00  0.00    +0.000 OA
ATOM     19  H   UNL     1       2.550  10.346  17.878  0.00  0.00    +0.000 HD
ENDBRANCH   9  18
BRANCH   1  20
ATOM     20  C   UNL     1       4.624   4.864  16.666  0.00  0.00    +0.000 C 
BRANCH  20  21
ATOM     21  N   UNL     1       6.065   4.534  16.523  0.00  0.00    +0.000 NA
BRANCH  21  22
ATOM     22  C   UNL     1       6.859   5.799  16.474  0.00  0.00    +0.000 C 
BRANCH  22  24
ATOM     23  C   UNL     1       7.842   5.743  18.836  0.00  0.00    +0.000 C 
ATOM     24  C   UNL     1       7.049   6.559  17.815  0.00  0.00    +0.000 C 
ATOM     25  C   UNL     1       7.762   7.897  17.575  0.00  0.00    +0.000 C 
ENDBRANCH  22  24
ENDBRANCH  21  22
BRANCH  21  26
ATOM     26  C   UNL     1       6.271   3.764  15.270  0.00  0.00    +0.000 C 
BRANCH  26  27
ATOM     27  C   UNL     1       6.115   4.502  13.920  0.00  0.00    +0.000 C 
ATOM     28  C   UNL     1       7.461   4.890  13.309  0.00  0.00    +0.000 C 
ATOM     29  C   UNL     1       5.351   3.587  12.950  0.00  0.00    +0.000 C 
ENDBRANCH  26  27
ENDBRANCH  21  26
ENDBRANCH  20  21
ENDBRANCH   1  20
TORSDOF 8
ENDMDL
MODEL 8
REMARK VINA RESULT:      -7.7      1.024      1.422
REMARK  Name = 
REMARK  12 active torsions:
REMARK  status: ('A' for Active; 'I' for Inactive)
REMARK    1  A    between atoms: C_1  and  C_2
REMARK    2  A    between atoms: C_2  and  C_3
REMARK    3  A    between atoms: C_2  and  C_4
REMARK    4  A    between atoms: C_4  and  N_5
REMARK    5  A    between atoms: N_5  and  C_6
REMARK    6  A    between atoms: N_5  and  C_25
REMARK    7  A    between atoms: C_6  and  C_7
REMARK    8  A    between atoms: C_14  and  C_15
REMARK    9  A    between atoms: C_21  and  O_22
REMARK   10  A    between atoms: C_25  and  C_26
REMARK   11  A    between atoms: C_26  and  C_27
REMARK   12  A    between atoms: C_26  and  C_28
REMARK                            x       y       z     vdW  Elec       q    Type
REMARK                         _______ _______ _______ _____ _____    ______ ____
ROOT
ATOM      1  C   UNL     1       3.150   5.640  18.544  0.00  0.00    +0.000 A 
ATOM      2  C   UNL     1       3.034   4.671  19.468  0.00  0.00    +0.000 A 
ATOM      3  C   UNL     1       2.413   4.864  20.784  0.00  0.00    +0.000 A 
ATOM      4  O   UNL     1       2.456   3.981  21.632  0.00  0.00    +0.000 OA
ATOM      5  O   UNL     1       1.723   6.048  20.976  0.00  0.00    +0.000 OA
ATOM      6  C   UNL     1       1.804   7.086  20.027  0.00  0.00    +0.000 A 
ATOM      7  C   UNL     1       1.061   8.240  20.309  0.00  0.00    +0.000 A 
ATOM      8  C   UNL     1       1.074   9.338  19.432  0.00  0.00    +0.000 A 
ATOM      9  C   UNL     1       1.915   9.213  18.303  0.00  0.00    +0.000 A 
ATOM     10  C   UNL     1       2.688   8.070  18.053  0.00  0.00    +0.000 A 
ATOM     11  C   UNL     1       2.582   6.956  18.878  0.00  0.00    +0.000 A 
ENDROOT
BRANCH   8  12
ATOM     12  C   UNL     1       0.240  10.540  19.708  0.00  0.00    +0.000 A 
ATOM     13  C   UNL     1       0.725  11.610  20.487  0.00  0.00    +0.000 A 
ATOM     14  C   UNL     1      -0.022  12.778  20.678  0.00  0.00    +0.000 A 
ATOM     15  C   UNL     1      -1.296  12.889  20.136  0.00  0.00    +0.000 A 
ATOM     16  C   UNL     1      -1.827  11.829  19.407  0.00  0.00    +0.000 A 
ATOM     17  C   UNL     1      -1.062  10.674  19.186  0.00  0.00    +0.000 A 
ENDBRANCH   8  12
BRANCH   9  18
ATOM     18  O   UNL     1       1.986  10.161  17.313  0.00  0.00    +0.000 OA
ATOM     19  H   UNL     1       1.915   9.699  16.459  0.00  0.00    +0.000 HD
ENDBRANCH   9  18
BRANCH   1  20
ATOM     20  C   UNL     1       3.603   5.310  17.126  0.00  0.00    +0.000 C 
BRANCH  20  21
ATOM     21  N   UNL     1       5.035   5.503  16.780  0.00  0.00    +0.000 NA
BRANCH  21  22
ATOM     22  C   UNL     1       5.659   4.175  16.502  0.00  0.00    +0.000 C 
BRANCH  22  24
ATOM     23  C   UNL     1       5.072   4.110  14.013  0.00  0.00    +0.000 C 
ATOM     24  C   UNL     1       6.173   3.930  15.058  0.00  0.00    +0.000 C 
ATOM     25  C   UNL     1       7.335   4.880  14.734  0.00  0.00    +0.000 C 
ENDBRANCH  22  24
ENDBRANCH  21  22
BRANCH  21  26
ATOM     26  C   UNL     1       5.732   6.158  17.917  0.00  0.00    +0.000 C 
BRANCH  26  27
ATOM     27  C   UNL     1       7.273   6.282  17.860  0.00  0.00    +0.000 C 
ATOM     28  C   UNL     1       7.732   7.722  17.640  0.00  0.00    +0.000 C 
ATOM     29  C   UNL     1       7.853   5.748  19.179  0.00  0.00    +0.000 C 
ENDBRANCH  26  27
ENDBRANCH  21  26
ENDBRANCH  20  21
ENDBRANCH   1  20
TORSDOF 8
ENDMDL
MODEL 9
REMARK VINA RESULT:      -7.6      0.735      1.195
REMARK  Name = 
REMARK  12 active torsions:
REMARK  status: ('A' for Active; 'I' for Inactive)
REMARK    1  A    between atoms: C_1  and  C_2
REMARK    2  A    between atoms: C_2  and  C_3
REMARK    3  A    between atoms: C_2  and  C_4
REMARK    4  A    between atoms: C_4  and  N_5
REMARK    5  A    between atoms: N_5  and  C_6
REMARK    6  A    between atoms: N_5  and  C_25
REMARK    7  A    between atoms: C_6  and  C_7
REMARK    8  A    between atoms: C_14  and  C_15
REMARK    9  A    between atoms: C_21  and  O_22
REMARK   10  A    between atoms: C_25  and  C_26
REMARK   11  A    between atoms: C_26  and  C_27
REMARK   12  A    between atoms: C_26  and  C_28
REMARK                            x       y       z     vdW  Elec       q    Type
REMARK                         _______ _______ _______ _____ _____    ______ ____
ROOT
ATOM      1  C   UNL     1       3.638   4.973  18.377  0.00  0.00    +0.000 A 
ATOM      2  C   UNL     1       3.533   3.919  19.205  0.00  0.00    +0.000 A 
ATOM      3  C   UNL     1       2.882   3.972  20.520  0.00  0.00    +0.000 A 
ATOM      4  O   UNL     1       2.933   3.016  21.283  0.00  0.00    +0.000 OA
ATOM      5  O   UNL     1       2.155   5.115  20.806  0.00  0.00    +0.000 OA
ATOM      6  C   UNL     1       2.224   6.238  19.959  0.00  0.00    +0.000 A 
ATOM      7  C   UNL     1       1.444   7.342  20.330  0.00  0.00    +0.000 A 
ATOM      8  C   UNL     1       1.442   8.516  19.559  0.00  0.00    +0.000 A 
ATOM      9  C   UNL     1       2.308   8.519  18.442  0.00  0.00    +0.000 A 
ATOM     10  C   UNL     1       3.117   7.425  18.104  0.00  0.00    +0.000 A 
ATOM     11  C   UNL     1       3.028   6.236  18.819  0.00  0.00    +0.000 A 
ENDROOT
BRANCH   8  12
ATOM     12  C   UNL     1       0.570   9.665  19.927  0.00  0.00    +0.000 A 
ATOM     13  C   UNL     1       0.755  10.375  21.130  0.00  0.00    +0.000 A 
ATOM     14  C   UNL     1      -0.006  11.507  21.440  0.00  0.00    +0.000 A 
ATOM     15  C   UNL     1      -1.010  11.932  20.579  0.00  0.00    +0.000 A 
ATOM     16  C   UNL     1      -1.256  11.221  19.408  0.00  0.00    +0.000 A 
ATOM     17  C   UNL     1      -0.467  10.109  19.082  0.00  0.00    +0.000 A 
ENDBRANCH   8  12
BRANCH   9  18
ATOM     18  O   UNL     1       2.371   9.557  17.545  0.00  0.00    +0.000 OA
ATOM     19  H   UNL     1       2.351  10.386  18.055  0.00  0.00    +0.000 HD
ENDBRANCH   9  18
BRANCH   1  20
ATOM     20  C   UNL     1       4.128   4.789  16.945  0.00  0.00    +0.000 C 
BRANCH  20  21
ATOM     21  N   UNL     1       5.191   5.695  16.440  0.00  0.00    +0.000 NA
BRANCH  21  22
ATOM     22  C   UNL     1       5.329   5.521  14.963  0.00  0.00    +0.000 C 
BRANCH  22  24
ATOM     23  C   UNL     1       5.870   3.531  13.448  0.00  0.00    +0.000 C 
ATOM     24  C   UNL     1       6.414   4.524  14.474  0.00  0.00    +0.000 C 
ATOM     25  C   UNL     1       7.600   5.283  13.861  0.00  0.00    +0.000 C 
ENDBRANCH  22  24
ENDBRANCH  21  22
BRANCH  21  26
ATOM     26  C   UNL     1       6.477   5.365  17.107  0.00  0.00    +0.000 C 
BRANCH  26  27
ATOM     27  C   UNL     1       6.996   6.314  18.212  0.00  0.00    +0.000 C 
ATOM     28  C   UNL     1       8.004   5.632  19.137  0.00  0.00    +0.000 C 
ATOM     29  C   UNL     1       7.651   7.531  17.540  0.00  0.00    +0.000 C 
ENDBRANCH  26  27
ENDBRANCH  21  26
ENDBRANCH  20  21
ENDBRANCH   1  20
TORSDOF 8
ENDMDL
