MODEL 1
REMARK VINA RESULT:      -7.6      0.000      0.000
REMARK  Name = 
REMARK  12 active torsions:
REMARK  status: ('A' for Active; 'I' for Inactive)
REMARK    1  A    between atoms: C_1  and  C_2
REMARK    2  A    between atoms: C_2  and  N_3
REMARK    3  A    between atoms: N_3  and  C_4
REMARK    4  A    between atoms: N_3  and  C_6
REMARK    5  A    between atoms: C_4  and  C_5
REMARK    6  A    between atoms: C_6  and  C_7
REMARK    7  A    between atoms: C_7  and  N_8
REMARK    8  A    between atoms: C_10  and  C_11
REMARK    9  A    between atoms: C_14  and  O_15
REMARK   10  A    between atoms: O_15  and  C_16
REMARK   11  A    between atoms: C_17  and  O_18
REMARK   12  A    between atoms: O_18  and  C_19
REMARK                            x       y       z     vdW  Elec       q    Type
REMARK                         _______ _______ _______ _____ _____    ______ ____
ROOT
ATOM      1  N   UNL     1       2.015   5.214  20.299  0.00  0.00    +0.000 N 
ATOM      2  N   UNL     1       2.994   5.426  19.346  0.00  0.00    +0.000 NA
ATOM      3  C   UNL     1       3.209   4.582  18.380  0.00  0.00    +0.000 C 
ATOM      4  C   UNL     1       2.411   3.311  18.103  0.00  0.00    +0.000 C 
ATOM      5  C   UNL     1       1.004   3.301  18.669  0.00  0.00    +0.000 C 
ATOM      6  C   UNL     1       1.041   3.013  20.160  0.00  0.00    +0.000 C 
ATOM      7  C   UNL     1       1.904   3.982  20.936  0.00  0.00    +0.000 C 
ATOM      8  O   UNL     1       2.229   3.760  22.101  0.00  0.00    +0.000 OA
ENDROOT
BRANCH   3   9
ATOM      9  C   UNL     1       4.304   4.897  17.398  0.00  0.00    +0.000 A 
ATOM     10  C   UNL     1       4.640   3.977  16.406  0.00  0.00    +0.000 A 
ATOM     11  C   UNL     1       5.727   4.232  15.563  0.00  0.00    +0.000 A 
ATOM     12  C   UNL     1       6.497   5.402  15.698  0.00  0.00    +0.000 A 
ATOM     13  C   UNL     1       6.146   6.344  16.683  0.00  0.00    +0.000 A 
ATOM     14  C   UNL     1       5.038   6.087  17.506  0.00  0.00    +0.000 A 
BRANCH  12  15
ATOM     15  O   UNL     1       7.533   5.440  14.805  0.00  0.00    +0.000 OA
ATOM     16  C   UNL     1       7.348   4.892  13.509  0.00  0.00    +0.000 C 
ENDBRANCH  12  15
BRANCH  13  17
ATOM     17  O   UNL     1       6.910   7.474  16.811  0.00  0.00    +0.000 OA
ATOM     18  C   UNL     1       7.732   7.613  17.963  0.00  0.00    +0.000 C 
ENDBRANCH  13  17
ENDBRANCH   3   9
BRANCH   1  19
ATOM     19  C   UNL     1       1.635   6.401  21.065  0.00  0.00    +0.000 C 
BRANCH  19  20
ATOM     20  C   UNL     1       1.825   7.637  20.168  0.00  0.00    +0.000 C 
BRANCH  20  21
ATOM     21  N   UNL     1       1.219   8.912  20.603  0.00  0.00    +0.000 NA
BRANCH  21  23
ATOM     22  C   UNL     1      -0.457  10.166  19.187  0.00  0.00    +0.000 C 
ATOM     23  C   UNL     1       0.989   9.742  19.404  0.00  0.00    +0.000 C 
ENDBRANCH  21  23
BRANCH  21  24
ATOM     24  C   UNL     1       0.029   8.743  21.450  0.00  0.00    +0.000 C 
ATOM     25  C   UNL     1       0.000   9.536  22.756  0.00  0.00    +0.000 C 
ENDBRANCH  21  24
ENDBRANCH  20  21
ENDBRANCH  19  20
ENDBRANCH   1  19
TORSDOF 8
ENDMDL
MODEL 2
REMARK VINA RESULT:      -7.5      0.740      1.533
REMARK  Name = 
REMARK  12 active torsions:
REMARK  status: ('A' for Active; 'I' for Inactive)
REMARK    1  A    between atoms: C_1  and  C_2
REMARK    2  A    between atoms: C_2  and  N_3
REMARK    3  A    between atoms: N_3  and  C_4
REMARK    4  A    between atoms: N_3  and  C_6
REMARK    5  A    between atoms: C_4  and  C_5
REMARK    6  A    between atoms: C_6  and  C_7
REMARK    7  A    between atoms: C_7  and  N_8
REMARK    8  A    between atoms: C_10  and  C_11
REMARK    9  A    between atoms: C_14  and  O_15
REMARK   10  A    between atoms: O_15  and  C_16
REMARK   11  A    between atoms: C_17  and  O_18
REMARK   12  A    between atoms: O_18  and  C_19
REMARK                            x       y       z     vdW  Elec       q    Type
REMARK                         _______ _______ _______ _____ _____    ______ ____
ROOT
ATOM      1  N   UNL     1       1.991   4.915  20.259  0.00  0.00    +0.000 N 
ATOM      2  N   UNL     1       3.024   5.159  19.372  0.00  0.00    +0.000 NA
ATOM      3  C   UNL     1       3.320   4.330  18.415  0.00  0.00    +0.000 C 
ATOM      4  C   UNL     1       2.570   3.045  18.076  0.00  0.00    +0.000 C 
ATOM      5  C   UNL     1       1.130   2.999  18.550  0.00  0.00    +0.000 C 
ATOM      6  C   UNL     1       1.077   2.696  20.037  0.00  0.00    +0.000 C 
ATOM      7  C   UNL     1       1.867   3.674  20.876  0.00  0.00    +0.000 C 
ATOM      8  O   UNL     1       2.121   3.447  22.057  0.00  0.00    +0.000 OA
ENDROOT
BRANCH   3   9
ATOM      9  C   UNL     1       4.467   4.679  17.509  0.00  0.00    +0.000 A 
ATOM     10  C   UNL     1       4.548   4.120  16.234  0.00  0.00    +0.000 A 
ATOM     11  C   UNL     1       5.670   4.368  15.437  0.00  0.00    +0.000 A 
ATOM     12  C   UNL     1       6.730   5.171  15.898  0.00  0.00    +0.000 A 
ATOM     13  C   UNL     1       6.642   5.756  17.175  0.00  0.00    +0.000 A 
ATOM     14  C   UNL     1       5.499   5.519  17.954  0.00  0.00    +0.000 A 
BRANCH  12  15
ATOM     15  O   UNL     1       7.746   5.254  14.985  0.00  0.00    +0.000 OA
ATOM     16  C   UNL     1       7.453   5.063  13.609  0.00  0.00    +0.000 C 
ENDBRANCH  12  15
BRANCH  13  17
ATOM     17  O   UNL     1       7.686   6.526  17.616  0.00  0.00    +0.000 OA
ATOM     18  C   UNL     1       7.590   7.940  17.490  0.00  0.00    +0.000 C 
ENDBRANCH  13  17
ENDBRANCH   3   9
BRANCH   1  19
ATOM     19  C   UNL     1       1.536   6.085  21.010  0.00  0.00    +0.000 C 
BRANCH  19  20
ATOM     20  C   UNL     1       2.081   7.348  20.316  0.00  0.00    +0.000 C 
BRANCH  20  21
ATOM     21  N   UNL     1       1.164   8.491  20.134  0.00  0.00    +0.000 NA
BRANCH  21  23
ATOM     22  C   UNL     1      -0.275   9.133  22.111  0.00  0.00    +0.000 C 
ATOM     23  C   UNL     1       1.078   9.217  21.417  0.00  0.00    +0.000 C 
ENDBRANCH  21  23
BRANCH  21  24
ATOM     24  C   UNL     1       1.504   9.345  18.986  0.00  0.00    +0.000 C 
ATOM     25  C   UNL     1       2.054   8.639  17.748  0.00  0.00    +0.000 C 
ENDBRANCH  21  24
ENDBRANCH  20  21
ENDBRANCH  19  20
ENDBRANCH   1  19
TORSDOF 8
ENDMDL
MODEL 3
REMARK VINA RESULT:      -7.5      2.546      6.438
REMARK  Name = 
REMARK  12 active torsions:
REMARK  status: ('A' for Active; 'I' for Inactive)
REMARK    1  A    between atoms: C_1  and  C_2
REMARK    2  A    between atoms: C_2  and  N_3
REMARK    3  A    between atoms: N_3  and  C_4
REMARK    4  A    between atoms: N_3  and  C_6
REMARK    5  A    between atoms: C_4  and  C_5
REMARK    6  A    between atoms: C_6  and  C_7
REMARK    7  A    between atoms: C_7  and  N_8
REMARK    8  A    between atoms: C_10  and  C_11
REMARK    9  A    between atoms: C_14  and  O_15
REMARK   10  A    between atoms: O_15  and  C_16
REMARK   11  A    between atoms: C_17  and  O_18
REMARK   12  A    between atoms: O_18  and  C_19
REMARK                            x       y       z     vdW  Elec       q    Type
REMARK                         _______ _______ _______ _____ _____    ______ ____
ROOT
ATOM      1  N   UNL     1       4.987   4.440  18.798  0.00  0.00    +0.000 N 
ATOM      2  N   UNL     1       4.060   5.443  19.014  0.00  0.00    +0.000 NA
ATOM      3  C   UNL     1       3.845   6.382  18.141  0.00  0.00    +0.000 C 
ATOM      4  C   UNL     1       4.494   6.494  16.764  0.00  0.00    +0.000 C 
ATOM      5  C   UNL     1       5.021   5.191  16.195  0.00  0.00    +0.000 C 
ATOM      6  C   UNL     1       6.346   4.833  16.846  0.00  0.00    +0.000 C 
ATOM      7  C   UNL     1       6.270   4.747  18.353  0.00  0.00    +0.000 C 
ATOM      8  O   UNL     1       7.284   4.698  19.045  0.00  0.00    +0.000 OA
ENDROOT
BRANCH   3   9
ATOM      9  C   UNL     1       2.824   7.434  18.473  0.00  0.00    +0.000 A 
ATOM     10  C   UNL     1       2.562   8.466  17.572  0.00  0.00    +0.000 A 
ATOM     11  C   UNL     1       1.688   9.497  17.931  0.00  0.00    +0.000 A 
ATOM     12  C   UNL     1       1.066   9.519  19.193  0.00  0.00    +0.000 A 
ATOM     13  C   UNL     1       1.309   8.468  20.097  0.00  0.00    +0.000 A 
ATOM     14  C   UNL     1       2.169   7.427  19.713  0.00  0.00    +0.000 A 
BRANCH  12  15
ATOM     15  O   UNL     1       0.284  10.629  19.360  0.00  0.00    +0.000 OA
ATOM     16  C   UNL     1       0.822  11.905  19.047  0.00  0.00    +0.000 C 
ENDBRANCH  12  15
BRANCH  13  17
ATOM     17  O   UNL     1       0.705   8.508  21.326  0.00  0.00    +0.000 OA
ATOM     18  C   UNL     1       1.344   9.223  22.376  0.00  0.00    +0.000 C 
ENDBRANCH  13  17
ENDBRANCH   3   9
BRANCH   1  19
ATOM     19  C   UNL     1       4.840   3.269  19.662  0.00  0.00    +0.000 C 
BRANCH  19  20
ATOM     20  C   UNL     1       3.887   2.275  18.974  0.00  0.00    +0.000 C 
BRANCH  20  21
ATOM     21  N   UNL     1       2.504   2.173  19.480  0.00  0.00    +0.000 NA
BRANCH  21  23
ATOM     22  C   UNL     1       1.510   2.508  21.780  0.00  0.00    +0.000 C 
ATOM     23  C   UNL     1       2.382   3.055  20.659  0.00  0.00    +0.000 C 
ENDBRANCH  21  23
BRANCH  21  24
ATOM     24  C   UNL     1       1.478   2.405  18.452  0.00  0.00    +0.000 C 
ATOM     25  C   UNL     1       1.197   3.861  18.084  0.00  0.00    +0.000 C 
ENDBRANCH  21  24
ENDBRANCH  20  21
ENDBRANCH  19  20
ENDBRANCH   1  19
TORSDOF 8
ENDMDL
MODEL 4
REMARK VINA RESULT:      -7.3      1.180      1.272
REMARK  Name = 
REMARK  12 active torsions:
REMARK  status: ('A' for Active; 'I' for Inactive)
REMARK    1  A    between atoms: C_1  and  C_2
REMARK    2  A    between atoms: C_2  and  N_3
REMARK    3  A    between atoms: N_3  and  C_4
REMARK    4  A    between atoms: N_3  and  C_6
REMARK    5  A    between atoms: C_4  and  C_5
REMARK    6  A    between atoms: C_6  and  C_7
REMARK    7  A    between atoms: C_7  and  N_8
REMARK    8  A    between atoms: C_10  and  C_11
REMARK    9  A    between atoms: C_14  and  O_15
REMARK   10  A    between atoms: O_15  and  C_16
REMARK   11  A    between atoms: C_17  and  O_18
REMARK   12  A    between atoms: O_18  and  C_19
REMARK                            x       y       z     vdW  Elec       q    Type
REMARK                         _______ _______ _______ _____ _____    ______ ____
ROOT
ATOM      1  N   UNL     1       2.798   4.170  20.086  0.00  0.00    +0.000 N 
ATOM      2  N   UNL     1       3.683   4.547  19.093  0.00  0.00    +0.000 NA
ATOM      3  C   UNL     1       3.814   3.865  17.993  0.00  0.00    +0.000 C 
ATOM      4  C   UNL     1       3.004   2.635  17.597  0.00  0.00    +0.000 C 
ATOM      5  C   UNL     1       1.655   2.508  18.279  0.00  0.00    +0.000 C 
ATOM      6  C   UNL     1       1.832   1.996  19.698  0.00  0.00    +0.000 C 
ATOM      7  C   UNL     1       2.756   2.853  20.533  0.00  0.00    +0.000 C 
ATOM      8  O   UNL     1       3.188   2.463  21.616  0.00  0.00    +0.000 OA
ENDROOT
BRANCH   3   9
ATOM      9  C   UNL     1       4.811   4.351  16.977  0.00  0.00    +0.000 A 
ATOM     10  C   UNL     1       4.858   3.770  15.710  0.00  0.00    +0.000 A 
ATOM     11  C   UNL     1       5.854   4.155  14.807  0.00  0.00    +0.000 A 
ATOM     12  C   UNL     1       6.821   5.118  15.153  0.00  0.00    +0.000 A 
ATOM     13  C   UNL     1       6.763   5.723  16.422  0.00  0.00    +0.000 A 
ATOM     14  C   UNL     1       5.742   5.345  17.310  0.00  0.00    +0.000 A 
BRANCH  12  15
ATOM     15  O   UNL     1       7.726   5.321  14.147  0.00  0.00    +0.000 OA
ATOM     16  C   UNL     1       7.403   4.893  12.832  0.00  0.00    +0.000 C 
ENDBRANCH  12  15
BRANCH  13  17
ATOM     17  O   UNL     1       7.716   6.650  16.751  0.00  0.00    +0.000 OA
ATOM     18  C   UNL     1       7.415   7.610  17.755  0.00  0.00    +0.000 C 
ENDBRANCH  13  17
ENDBRANCH   3   9
BRANCH   1  19
ATOM     19  C   UNL     1       2.481   5.218  21.057  0.00  0.00    +0.000 C 
BRANCH  19  20
ATOM     20  C   UNL     1       1.501   6.207  20.400  0.00  0.00    +0.000 C 
BRANCH  20  21
ATOM     21  N   UNL     1       1.903   7.624  20.307  0.00  0.00    +0.000 NA
BRANCH  21  23
ATOM     22  C   UNL     1       1.504   9.174  18.349  0.00  0.00    +0.000 C 
ATOM     23  C   UNL     1       2.189   7.926  18.889  0.00  0.00    +0.000 C 
ENDBRANCH  21  23
BRANCH  21  24
ATOM     24  C   UNL     1       0.950   8.553  20.934  0.00  0.00    +0.000 C 
ATOM     25  C   UNL     1       1.387   9.194  22.251  0.00  0.00    +0.000 C 
ENDBRANCH  21  24
ENDBRANCH  20  21
ENDBRANCH  19  20
ENDBRANCH   1  19
TORSDOF 8
ENDMDL
MODEL 5
REMARK VINA RESULT:      -7.2      2.566      6.552
REMARK  Name = 
REMARK  12 active torsions:
REMARK  status: ('A' for Active; 'I' for Inactive)
REMARK    1  A    between atoms: C_1  and  C_2
REMARK    2  A    between atoms: C_2  and  N_3
REMARK    3  A    between atoms: N_3  and  C_4
REMARK    4  A    between atoms: N_3  and  C_6
REMARK    5  A    between atoms: C_4  and  C_5
REMARK    6  A    between atoms: C_6  and  C_7
REMARK    7  A    between atoms: C_7  and  N_8
REMARK    8  A    between atoms: C_10  and  C_11
REMARK    9  A    between atoms: C_14  and  O_15
REMARK   10  A    between atoms: O_15  and  C_16
REMARK   11  A    between atoms: C_17  and  O_18
REMARK   12  A    between atoms: O_18  and  C_19
REMARK                            x       y       z     vdW  Elec       q    Type
REMARK                         _______ _______ _______ _____ _____    ______ ____
ROOT
ATOM      1  N   UNL     1       3.863   4.275  19.224  0.00  0.00    +0.000 N 
ATOM      2  N   UNL     1       3.378   5.570  19.251  0.00  0.00    +0.000 NA
ATOM      3  C   UNL     1       2.287   5.883  19.886  0.00  0.00    +0.000 C 
ATOM      4  C   UNL     1       1.437   4.939  20.731  0.00  0.00    +0.000 C 
ATOM      5  C   UNL     1       2.167   3.719  21.261  0.00  0.00    +0.000 C 
ATOM      6  C   UNL     1       2.318   2.681  20.163  0.00  0.00    +0.000 C 
ATOM      7  C   UNL     1       3.018   3.209  18.932  0.00  0.00    +0.000 C 
ATOM      8  O   UNL     1       3.017   2.581  17.875  0.00  0.00    +0.000 OA
ENDROOT
BRANCH   3   9
ATOM      9  C   UNL     1       1.835   7.316  19.847  0.00  0.00    +0.000 A 
ATOM     10  C   UNL     1       1.864   8.028  18.648  0.00  0.00    +0.000 A 
ATOM     11  C   UNL     1       1.541   9.388  18.640  0.00  0.00    +0.000 A 
ATOM     12  C   UNL     1       1.190  10.062  19.824  0.00  0.00    +0.000 A 
ATOM     13  C   UNL     1       1.135   9.343  21.033  0.00  0.00    +0.000 A 
ATOM     14  C   UNL     1       1.438   7.972  21.022  0.00  0.00    +0.000 A 
BRANCH  12  15
ATOM     15  O   UNL     1       0.950  11.392  19.607  0.00  0.00    +0.000 OA
ATOM     16  C   UNL     1      -0.372  11.815  19.311  0.00  0.00    +0.000 C 
ENDBRANCH  12  15
BRANCH  13  17
ATOM     17  O   UNL     1       0.802  10.013  22.180  0.00  0.00    +0.000 OA
ATOM     18  C   UNL     1      -0.478   9.783  22.756  0.00  0.00    +0.000 C 
ENDBRANCH  13  17
ENDBRANCH   3   9
BRANCH   1  19
ATOM     19  C   UNL     1       5.263   4.152  18.818  0.00  0.00    +0.000 C 
BRANCH  19  20
ATOM     20  C   UNL     1       5.940   5.524  18.990  0.00  0.00    +0.000 C 
BRANCH  20  21
ATOM     21  N   UNL     1       6.700   6.072  17.849  0.00  0.00    +0.000 NA
BRANCH  21  23
ATOM     22  C   UNL     1       5.319   5.993  15.733  0.00  0.00    +0.000 C 
ATOM     23  C   UNL     1       5.751   6.778  16.964  0.00  0.00    +0.000 C 
ENDBRANCH  21  23
BRANCH  21  24
ATOM     24  C   UNL     1       7.862   6.882  18.246  0.00  0.00    +0.000 C 
ATOM     25  C   UNL     1       7.911   8.313  17.713  0.00  0.00    +0.000 C 
ENDBRANCH  21  24
ENDBRANCH  20  21
ENDBRANCH  19  20
ENDBRANCH   1  19
TORSDOF 8
ENDMDL
MODEL 6
REMARK VINA RESULT:      -7.1      2.527      6.735
REMARK  Name = 
REMARK  12 active torsions:
REMARK  status: ('A' for Active; 'I' for Inactive)
REMARK    1  A    between atoms: C_1  and  C_2
REMARK    2  A    between atoms: C_2  and  N_3
REMARK    3  A    between atoms: N_3  and  C_4
REMARK    4  A    between atoms: N_3  and  C_6
REMARK    5  A    between atoms: C_4  and  C_5
REMARK    6  A    between atoms: C_6  and  C_7
REMARK    7  A    between atoms: C_7  and  N_8
REMARK    8  A    between atoms: C_10  and  C_11
REMARK    9  A    between atoms: C_14  and  O_15
REMARK   10  A    between atoms: O_15  and  C_16
REMARK   11  A    between atoms: C_17  and  O_18
REMARK   12  A    between atoms: O_18  and  C_19
REMARK                            x       y       z     vdW  Elec       q    Type
REMARK                         _______ _______ _______ _____ _____    ______ ____
ROOT
ATOM      1  N   UNL     1       4.691   4.444  18.844  0.00  0.00    +0.000 N 
ATOM      2  N   UNL     1       3.796   5.378  19.334  0.00  0.00    +0.000 NA
ATOM      3  C   UNL     1       3.560   6.497  18.713  0.00  0.00    +0.000 C 
ATOM      4  C   UNL     1       4.144   6.919  17.368  0.00  0.00    +0.000 C 
ATOM      5  C   UNL     1       4.615   5.777  16.487  0.00  0.00    +0.000 C 
ATOM      6  C   UNL     1       5.962   5.267  16.968  0.00  0.00    +0.000 C 
ATOM      7  C   UNL     1       5.957   4.834  18.417  0.00  0.00    +0.000 C 
ATOM      8  O   UNL     1       7.003   4.617  19.025  0.00  0.00    +0.000 OA
ENDROOT
BRANCH   3   9
ATOM      9  C   UNL     1       2.578   7.452  19.332  0.00  0.00    +0.000 A 
ATOM     10  C   UNL     1       2.145   7.260  20.644  0.00  0.00    +0.000 A 
ATOM     11  C   UNL     1       1.155   8.092  21.177  0.00  0.00    +0.000 A 
ATOM     12  C   UNL     1       0.577   9.122  20.412  0.00  0.00    +0.000 A 
ATOM     13  C   UNL     1       1.027   9.334  19.095  0.00  0.00    +0.000 A 
ATOM     14  C   UNL     1       2.040   8.508  18.581  0.00  0.00    +0.000 A 
BRANCH  12  15
ATOM     15  O   UNL     1      -0.397   9.790  21.102  0.00  0.00    +0.000 OA
ATOM     16  C   UNL     1      -0.471   9.637  22.512  0.00  0.00    +0.000 C 
ENDBRANCH  12  15
BRANCH  13  17
ATOM     17  O   UNL     1       0.449  10.333  18.357  0.00  0.00    +0.000 OA
ATOM     18  C   UNL     1      -0.846  10.115  17.812  0.00  0.00    +0.000 C 
ENDBRANCH  13  17
ENDBRANCH   3   9
BRANCH   1  19
ATOM     19  C   UNL     1       4.561   3.107  19.422  0.00  0.00    +0.000 C 
BRANCH  19  20
ATOM     20  C   UNL     1       3.491   2.337  18.625  0.00  0.00    +0.000 C 
BRANCH  20  21
ATOM     21  N   UNL     1       2.188   2.087  19.273  0.00  0.00    +0.000 NA
BRANCH  21  23
ATOM     22  C   UNL     1       1.317   3.428  21.231  0.00  0.00    +0.000 C 
ATOM     23  C   UNL     1       2.321   2.411  20.708  0.00  0.00    +0.000 C 
ENDBRANCH  21  23
BRANCH  21  24
ATOM     24  C   UNL     1       1.060   2.759  18.612  0.00  0.00    +0.000 C 
ATOM     25  C   UNL     1       1.411   3.807  17.557  0.00  0.00    +0.000 C 
ENDBRANCH  21  24
ENDBRANCH  20  21
ENDBRANCH  19  20
ENDBRANCH   1  19
TORSDOF 8
ENDMDL
MODEL 7
REMARK VINA RESULT:      -7.1      2.441      6.411
REMARK  Name = 
REMARK  12 active torsions:
REMARK  status: ('A' for Active; 'I' for Inactive)
REMARK    1  A    between atoms: C_1  and  C_2
REMARK    2  A    between atoms: C_2  and  N_3
REMARK    3  A    between atoms: N_3  and  C_4
REMARK    4  A    between atoms: N_3  and  C_6
REMARK    5  A    between atoms: C_4  and  C_5
REMARK    6  A    between atoms: C_6  and  C_7
REMARK    7  A    between atoms: C_7  and  N_8
REMARK    8  A    between atoms: C_10  and  C_11
REMARK    9  A    between atoms: C_14  and  O_15
REMARK   10  A    between atoms: O_15  and  C_16
REMARK   11  A    between atoms: C_17  and  O_18
REMARK   12  A    between atoms: O_18  and  C_19
REMARK                            x       y       z     vdW  Elec       q    Type
REMARK                         _______ _______ _______ _____ _____    ______ ____
ROOT
ATOM      1  N   UNL     1       5.047   4.615  18.754  0.00  0.00    +0.000 N 
ATOM      2  N   UNL     1       4.076   5.572  18.984  0.00  0.00    +0.000 NA
ATOM      3  C   UNL     1       3.876   6.562  18.164  0.00  0.00    +0.000 C 
ATOM      4  C   UNL     1       4.592   6.787  16.836  0.00  0.00    +0.000 C 
ATOM      5  C   UNL     1       5.193   5.541  16.212  0.00  0.00    +0.000 C 
ATOM      6  C   UNL     1       6.493   5.180  16.909  0.00  0.00    +0.000 C 
ATOM      7  C   UNL     1       6.340   4.990  18.402  0.00  0.00    +0.000 C 
ATOM      8  O   UNL     1       7.318   4.926  19.143  0.00  0.00    +0.000 OA
ENDROOT
BRANCH   3   9
ATOM      9  C   UNL     1       2.803   7.557  18.508  0.00  0.00    +0.000 A 
ATOM     10  C   UNL     1       2.488   8.583  17.617  0.00  0.00    +0.000 A 
ATOM     11  C   UNL     1       1.564   9.565  17.988  0.00  0.00    +0.000 A 
ATOM     12  C   UNL     1       0.943   9.544  19.251  0.00  0.00    +0.000 A 
ATOM     13  C   UNL     1       1.241   8.497  20.144  0.00  0.00    +0.000 A 
ATOM     14  C   UNL     1       2.152   7.505  19.749  0.00  0.00    +0.000 A 
BRANCH  12  15
ATOM     15  O   UNL     1       0.106  10.611  19.430  0.00  0.00    +0.000 OA
ATOM     16  C   UNL     1      -1.146  10.624  18.762  0.00  0.00    +0.000 C 
ENDBRANCH  12  15
BRANCH  13  17
ATOM     17  O   UNL     1       0.638   8.494  21.375  0.00  0.00    +0.000 OA
ATOM     18  C   UNL     1       1.236   9.241  22.427  0.00  0.00    +0.000 C 
ENDBRANCH  13  17
ENDBRANCH   3   9
BRANCH   1  19
ATOM     19  C   UNL     1       4.894   3.385  19.530  0.00  0.00    +0.000 C 
BRANCH  19  20
ATOM     20  C   UNL     1       3.655   2.634  19.009  0.00  0.00    +0.000 C 
BRANCH  20  21
ATOM     21  N   UNL     1       2.324   3.112  19.433  0.00  0.00    +0.000 NA
BRANCH  21  23
ATOM     22  C   UNL     1       2.296   3.272  16.910  0.00  0.00    +0.000 C 
ATOM     23  C   UNL     1       1.527   3.384  18.219  0.00  0.00    +0.000 C 
ENDBRANCH  21  23
BRANCH  21  24
ATOM     24  C   UNL     1       1.656   2.226  20.398  0.00  0.00    +0.000 C 
ATOM     25  C   UNL     1       1.585   2.719  21.843  0.00  0.00    +0.000 C 
ENDBRANCH  21  24
ENDBRANCH  20  21
ENDBRANCH  19  20
ENDBRANCH   1  19
TORSDOF 8
ENDMDL
MODEL 8
REMARK VINA RESULT:      -7.0      2.618      6.394
REMARK  Name = 
REMARK  12 active torsions:
REMARK  status: ('A' for Active; 'I' for Inactive)
REMARK    1  A    between atoms: C_1  and  C_2
REMARK    2  A    between atoms: C_2  and  N_3
REMARK    3  A    between atoms: N_3  and  C_4
REMARK    4  A    between atoms: N_3  and  C_6
REMARK    5  A    between atoms: C_4  and  C_5
REMARK    6  A    between atoms: C_6  and  C_7
REMARK    7  A    between atoms: C_7  and  N_8
REMARK    8  A    between atoms: C_10  and  C_11
REMARK    9  A    between atoms: C_14  and  O_15
REMARK   10  A    between atoms: O_15  and  C_16
REMARK   11  A    between atoms: C_17  and  O_18
REMARK   12  A    between atoms: O_18  and  C_19
REMARK                            x       y       z     vdW  Elec       q    Type
REMARK                         _______ _______ _______ _____ _____    ______ ____
ROOT
ATOM      1  N   UNL     1       4.168   4.400  19.488  0.00  0.00    +0.000 N 
ATOM      2  N   UNL     1       3.642   5.665  19.296  0.00  0.00    +0.000 NA
ATOM      3  C   UNL     1       2.474   6.002  19.760  0.00  0.00    +0.000 C 
ATOM      4  C   UNL     1       1.561   5.129  20.615  0.00  0.00    +0.000 C 
ATOM      5  C   UNL     1       2.261   4.017  21.373  0.00  0.00    +0.000 C 
ATOM      6  C   UNL     1       2.573   2.862  20.438  0.00  0.00    +0.000 C 
ATOM      7  C   UNL     1       3.397   3.269  19.237  0.00  0.00    +0.000 C 
ATOM      8  O   UNL     1       3.541   2.519  18.274  0.00  0.00    +0.000 OA
ENDROOT
BRANCH   3   9
ATOM      9  C   UNL     1       1.985   7.398  19.491  0.00  0.00    +0.000 A 
ATOM     10  C   UNL     1       2.178   7.978  18.237  0.00  0.00    +0.000 A 
ATOM     11  C   UNL     1       1.814   9.311  18.026  0.00  0.00    +0.000 A 
ATOM     12  C   UNL     1       1.258  10.089  19.059  0.00  0.00    +0.000 A 
ATOM     13  C   UNL     1       1.040   9.501  20.319  0.00  0.00    +0.000 A 
ATOM     14  C   UNL     1       1.388   8.154  20.510  0.00  0.00    +0.000 A 
BRANCH  12  15
ATOM     15  O   UNL     1       1.011  11.374  18.658  0.00  0.00    +0.000 OA
ATOM     16  C   UNL     1       2.102  12.269  18.502  0.00  0.00    +0.000 C 
ENDBRANCH  12  15
BRANCH  13  17
ATOM     17  O   UNL     1       0.509  10.272  21.319  0.00  0.00    +0.000 OA
ATOM     18  C   UNL     1       0.000   9.626  22.479  0.00  0.00    +0.000 C 
ENDBRANCH  13  17
ENDBRANCH   3   9
BRANCH   1  19
ATOM     19  C   UNL     1       5.609   4.293  19.261  0.00  0.00    +0.000 C 
BRANCH  19  20
ATOM     20  C   UNL     1       5.908   4.745  17.820  0.00  0.00    +0.000 C 
BRANCH  20  21
ATOM     21  N   UNL     1       6.045   6.192  17.561  0.00  0.00    +0.000 NA
BRANCH  21  23
ATOM     22  C   UNL     1       7.767   8.043  17.602  0.00  0.00    +0.000 C 
ATOM     23  C   UNL     1       7.464   6.558  17.746  0.00  0.00    +0.000 C 
ENDBRANCH  21  23
BRANCH  21  24
ATOM     24  C   UNL     1       5.483   6.618  16.271  0.00  0.00    +0.000 C 
ATOM     25  C   UNL     1       5.440   5.567  15.163  0.00  0.00    +0.000 C 
ENDBRANCH  21  24
ENDBRANCH  20  21
ENDBRANCH  19  20
ENDBRANCH   1  19
TORSDOF 8
ENDMDL
MODEL 9
REMARK VINA RESULT:      -6.9      2.908      7.191
REMARK  Name = 
REMARK  12 active torsions:
REMARK  status: ('A' for Active; 'I' for Inactive)
REMARK    1  A    between atoms: C_1  and  C_2
REMARK    2  A    between atoms: C_2  and  N_3
REMARK    3  A    between atoms: N_3  and  C_4
REMARK    4  A    between atoms: N_3  and  C_6
REMARK    5  A    between atoms: C_4  and  C_5
REMARK    6  A    between atoms: C_6  and  C_7
REMARK    7  A    between atoms: C_7  and  N_8
REMARK    8  A    between atoms: C_10  and  C_11
REMARK    9  A    between atoms: C_14  and  O_15
REMARK   10  A    between atoms: O_15  and  C_16
REMARK   11  A    between atoms: C_17  and  O_18
REMARK   12  A    between atoms: O_18  and  C_19
REMARK                            x       y       z     vdW  Elec       q    Type
REMARK                         _______ _______ _______ _____ _____    ______ ____
ROOT
ATOM      1  N   UNL     1       3.054   5.394  18.092  0.00  0.00    +0.000 N 
ATOM      2  N   UNL     1       2.629   6.689  18.329  0.00  0.00    +0.000 NA
ATOM      3  C   UNL     1       1.967   7.010  19.401  0.00  0.00    +0.000 C 
ATOM      4  C   UNL     1       1.625   6.077  20.559  0.00  0.00    +0.000 C 
ATOM      5  C   UNL     1       2.528   4.866  20.696  0.00  0.00    +0.000 C 
ATOM      6  C   UNL     1       2.150   3.812  19.670  0.00  0.00    +0.000 C 
ATOM      7  C   UNL     1       2.180   4.323  18.247  0.00  0.00    +0.000 C 
ATOM      8  O   UNL     1       1.684   3.680  17.324  0.00  0.00    +0.000 OA
ENDROOT
BRANCH   3   9
ATOM      9  C   UNL     1       1.539   8.442  19.564  0.00  0.00    +0.000 A 
ATOM     10  C   UNL     1       1.663   9.335  18.499  0.00  0.00    +0.000 A 
ATOM     11  C   UNL     1       1.361  10.687  18.688  0.00  0.00    +0.000 A 
ATOM     12  C   UNL     1       0.936  11.172  19.939  0.00  0.00    +0.000 A 
ATOM     13  C   UNL     1       0.787  10.270  21.010  0.00  0.00    +0.000 A 
ATOM     14  C   UNL     1       1.070   8.911  20.799  0.00  0.00    +0.000 A 
BRANCH  12  15
ATOM     15  O   UNL     1       0.732  12.525  19.923  0.00  0.00    +0.000 OA
ATOM     16  C   UNL     1       0.503  13.172  18.681  0.00  0.00    +0.000 C 
ENDBRANCH  12  15
BRANCH  13  17
ATOM     17  O   UNL     1       0.383  10.757  22.225  0.00  0.00    +0.000 OA
ATOM     18  C   UNL     1      -0.360   9.905  23.088  0.00  0.00    +0.000 C 
ENDBRANCH  13  17
ENDBRANCH   3   9
BRANCH   1  19
ATOM     19  C   UNL     1       4.096   5.267  17.073  0.00  0.00    +0.000 C 
BRANCH  19  20
ATOM     20  C   UNL     1       5.233   4.403  17.648  0.00  0.00    +0.000 C 
BRANCH  20  21
ATOM     21  N   UNL     1       6.524   4.386  16.932  0.00  0.00    +0.000 NA
BRANCH  21  23
ATOM     22  C   UNL     1       6.729   4.605  14.422  0.00  0.00    +0.000 C 
ATOM     23  C   UNL     1       6.405   5.268  15.753  0.00  0.00    +0.000 C 
ENDBRANCH  21  23
BRANCH  21  24
ATOM     24  C   UNL     1       7.681   4.689  17.788  0.00  0.00    +0.000 C 
ATOM     25  C   UNL     1       7.622   5.994  18.580  0.00  0.00    +0.000 C 
ENDBRANCH  21  24
ENDBRANCH  20  21
ENDBRANCH  19  20
ENDBRANCH   1  19
TORSDOF 8
ENDMDL
