MODEL 1
REMARK VINA RESULT:      -8.7      0.000      0.000
REMARK  Name = 
REMARK  9 active torsions:
REMARK  status: ('A' for Active; 'I' for Inactive)
REMARK    1  A    between atoms: C_1  and  O_2
REMARK    2  A    between atoms: O_2  and  C_3
REMARK    3  A    between atoms: C_6  and  C_7
REMARK    4  A    between atoms: N_9  and  C_10
REMARK    5  A    between atoms: C_14  and  C_15
REMARK    6  A    between atoms: C_15  and  N_16
REMARK    7  A    between atoms: N_16  and  C_17
REMARK    8  A    between atoms: C_22  and  C_23
REMARK    9  A    between atoms: C_32  and  C_33
REMARK                            x       y       z     vdW  Elec       q    Type
REMARK                         _______ _______ _______ _____ _____    ______ ____
ROOT
ATOM      1  C   UNL     1       1.105  10.091  18.530  0.00  0.00    +0.000 A 
ATOM      2  C   UNL     1       1.863  11.252  18.704  0.00  0.00    +0.000 A 
ATOM      3  C   UNL     1       1.254  12.501  18.825  0.00  0.00    +0.000 A 
ATOM      4  C   UNL     1      -0.134  12.605  18.799  0.00  0.00    +0.000 A 
ATOM      5  C   UNL     1      -0.919  11.454  18.652  0.00  0.00    +0.000 A 
ATOM      6  C   UNL     1      -0.287  10.207  18.461  0.00  0.00    +0.000 A 
ENDROOT
BRANCH   1   9
ATOM      7  C   UNL     1       1.836   7.948  19.521  0.00  0.00    +0.000 C 
ATOM      8  O   UNL     1       1.442   8.158  20.672  0.00  0.00    +0.000 OA
ATOM      9  N   UNL     1       1.689   8.804  18.439  0.00  0.00    +0.000 N 
ATOM     10  H   UNL     1       1.826   8.426  17.511  0.00  0.00    +0.000 HD
BRANCH   7  14
ATOM     11  C   UNL     1       3.680   4.113  19.025  0.00  0.00    +0.000 A 
ATOM     12  C   UNL     1       2.871   4.402  20.129  0.00  0.00    +0.000 A 
ATOM     13  C   UNL     1       2.261   5.646  20.251  0.00  0.00    +0.000 A 
ATOM     14  C   UNL     1       2.453   6.630  19.277  0.00  0.00    +0.000 A 
ATOM     15  C   UNL     1       3.309   6.374  18.205  0.00  0.00    +0.000 A 
ATOM     16  C   UNL     1       3.951   5.120  18.081  0.00  0.00    +0.000 A 
BRANCH  16  17
ATOM     17  C   UNL     1       4.911   4.932  16.926  0.00  0.00    +0.000 C 
ATOM     18  F   UNL     1       6.156   4.486  17.235  0.00  0.00    +0.000 F 
ATOM     19  F   UNL     1       4.420   4.056  16.004  0.00  0.00    +0.000 F 
ATOM     20  F   UNL     1       5.101   6.099  16.242  0.00  0.00    +0.000 F 
ENDBRANCH  16  17
BRANCH  11  22
ATOM     21  C   UNL     1       3.369   1.883  18.302  0.00  0.00    +0.000 C 
ATOM     22  O   UNL     1       4.242   2.881  18.837  0.00  0.00    +0.000 OA
ENDBRANCH  11  22
ENDBRANCH   7  14
ENDBRANCH   1   9
BRANCH   5  23
ATOM     23  C   UNL     1      -2.429  11.530  18.660  0.00  0.00    +0.000 C 
BRANCH  23  24
ATOM     24  N   UNL     1      -2.917  12.826  19.230  0.00  0.00    +0.000 N 
ATOM     25  H   UNL     1      -3.204  13.426  18.460  0.00  0.00    +0.000 HD
BRANCH  24  26
ATOM     26  C   UNL     1      -4.006  12.629  20.117  0.00  0.00    +0.000 A 
ATOM     27  N   UNL     1      -5.186  12.415  19.517  0.00  0.00    +0.000 NA
ATOM     28  C   UNL     1      -6.274  12.394  20.265  0.00  0.00    +0.000 A 
ATOM     29  N   UNL     1      -6.303  12.691  21.553  0.00  0.00    +0.000 NA
ATOM     30  C   UNL     1      -5.132  12.847  22.176  0.00  0.00    +0.000 A 
ATOM     31  C   UNL     1      -5.171  13.196  23.525  0.00  0.00    +0.000 A 
ATOM     32  C   UNL     1      -4.101  12.917  24.376  0.00  0.00    +0.000 A 
ATOM     33  C   UNL     1      -2.920  12.432  23.821  0.00  0.00    +0.000 A 
ATOM     34  C   UNL     1      -2.782  12.380  22.414  0.00  0.00    +0.000 A 
ATOM     35  C   UNL     1      -3.902  12.610  21.546  0.00  0.00    +0.000 A 
BRANCH  31  36
ATOM     36  C   UNL     1      -6.293  14.073  23.952  0.00  0.00    +0.000 C 
ATOM     37  N   UNL     1      -7.433  13.493  24.440  0.00  0.00    +0.000 N 
ATOM     38  O   UNL     1      -6.214  15.294  23.912  0.00  0.00    +0.000 OA
ATOM     39  H   UNL     1      -7.640  12.518  24.367  0.00  0.00    +0.000 HD
ATOM     40  H   UNL     1      -8.198  14.142  24.609  0.00  0.00    +0.000 HD
ENDBRANCH  31  36
ENDBRANCH  24  26
ENDBRANCH  23  24
ENDBRANCH   5  23
TORSDOF 8
ENDMDL
MODEL 2
REMARK VINA RESULT:      -8.7      1.406      1.921
REMARK  Name = 
REMARK  9 active torsions:
REMARK  status: ('A' for Active; 'I' for Inactive)
REMARK    1  A    between atoms: C_1  and  O_2
REMARK    2  A    between atoms: O_2  and  C_3
REMARK    3  A    between atoms: C_6  and  C_7
REMARK    4  A    between atoms: N_9  and  C_10
REMARK    5  A    between atoms: C_14  and  C_15
REMARK    6  A    between atoms: C_15  and  N_16
REMARK    7  A    between atoms: N_16  and  C_17
REMARK    8  A    between atoms: C_22  and  C_23
REMARK    9  A    between atoms: C_32  and  C_33
REMARK                            x       y       z     vdW  Elec       q    Type
REMARK                         _______ _______ _______ _____ _____    ______ ____
ROOT
ATOM      1  C   UNL     1       0.898  10.331  18.296  0.00  0.00    +0.000 A 
ATOM      2  C   UNL     1       1.478  11.480  18.840  0.00  0.00    +0.000 A 
ATOM      3  C   UNL     1       0.698  12.569  19.226  0.00  0.00    +0.000 A 
ATOM      4  C   UNL     1      -0.687  12.515  19.098  0.00  0.00    +0.000 A 
ATOM      5  C   UNL     1      -1.297  11.364  18.579  0.00  0.00    +0.000 A 
ATOM      6  C   UNL     1      -0.490  10.299  18.129  0.00  0.00    +0.000 A 
ENDROOT
BRANCH   1   9
ATOM      7  C   UNL     1       2.068   8.218  18.823  0.00  0.00    +0.000 C 
ATOM      8  O   UNL     1       1.792   8.174  20.025  0.00  0.00    +0.000 OA
ATOM      9  N   UNL     1       1.658   9.194  17.926  0.00  0.00    +0.000 N 
ATOM     10  H   UNL     1       1.735   8.995  16.938  0.00  0.00    +0.000 HD
BRANCH   7  14
ATOM     11  C   UNL     1       4.335   5.021  17.093  0.00  0.00    +0.000 A 
ATOM     12  C   UNL     1       4.659   6.362  16.859  0.00  0.00    +0.000 A 
ATOM     13  C   UNL     1       3.924   7.380  17.456  0.00  0.00    +0.000 A 
ATOM     14  C   UNL     1       2.845   7.080  18.294  0.00  0.00    +0.000 A 
ATOM     15  C   UNL     1       2.473   5.748  18.481  0.00  0.00    +0.000 A 
ATOM     16  C   UNL     1       3.201   4.705  17.863  0.00  0.00    +0.000 A 
BRANCH  16  17
ATOM     17  C   UNL     1       2.708   3.289  18.063  0.00  0.00    +0.000 C 
ATOM     18  F   UNL     1       3.584   2.409  18.615  0.00  0.00    +0.000 F 
ATOM     19  F   UNL     1       1.597   3.252  18.854  0.00  0.00    +0.000 F 
ATOM     20  F   UNL     1       2.321   2.724  16.880  0.00  0.00    +0.000 F 
ENDBRANCH  16  17
BRANCH  11  22
ATOM     21  C   UNL     1       6.462   4.271  16.384  0.00  0.00    +0.000 C 
ATOM     22  O   UNL     1       5.075   3.993  16.577  0.00  0.00    +0.000 OA
ENDBRANCH  11  22
ENDBRANCH   7  14
ENDBRANCH   1   9
BRANCH   5  23
ATOM     23  C   UNL     1      -2.801  11.261  18.465  0.00  0.00    +0.000 C 
BRANCH  23  24
ATOM     24  N   UNL     1      -3.478  12.535  18.863  0.00  0.00    +0.000 N 
ATOM     25  H   UNL     1      -3.957  12.911  18.047  0.00  0.00    +0.000 HD
BRANCH  24  26
ATOM     26  C   UNL     1      -4.411  12.325  19.911  0.00  0.00    +0.000 A 
ATOM     27  N   UNL     1      -5.560  11.751  19.532  0.00  0.00    +0.000 NA
ATOM     28  C   UNL     1      -6.544  11.679  20.411  0.00  0.00    +0.000 A 
ATOM     29  N   UNL     1      -6.522  12.242  21.606  0.00  0.00    +0.000 NA
ATOM     30  C   UNL     1      -5.365  12.765  22.021  0.00  0.00    +0.000 A 
ATOM     31  C   UNL     1      -5.359  13.390  23.267  0.00  0.00    +0.000 A 
ATOM     32  C   UNL     1      -4.181  13.527  24.002  0.00  0.00    +0.000 A 
ATOM     33  C   UNL     1      -2.977  13.179  23.397  0.00  0.00    +0.000 A 
ATOM     34  C   UNL     1      -2.959  12.845  22.023  0.00  0.00    +0.000 A 
ATOM     35  C   UNL     1      -4.175  12.646  21.288  0.00  0.00    +0.000 A 
BRANCH  31  36
ATOM     36  C   UNL     1      -6.607  14.096  23.661  0.00  0.00    +0.000 C 
ATOM     37  N   UNL     1      -7.311  13.634  24.740  0.00  0.00    +0.000 N 
ATOM     38  O   UNL     1      -7.001  15.095  23.073  0.00  0.00    +0.000 OA
ATOM     39  H   UNL     1      -7.149  12.751  25.178  0.00  0.00    +0.000 HD
ATOM     40  H   UNL     1      -8.208  14.093  24.886  0.00  0.00    +0.000 HD
ENDBRANCH  31  36
ENDBRANCH  24  26
ENDBRANCH  23  24
ENDBRANCH   5  23
TORSDOF 8
ENDMDL
MODEL 3
REMARK VINA RESULT:      -8.6      3.870      5.472
REMARK  Name = 
REMARK  9 active torsions:
REMARK  status: ('A' for Active; 'I' for Inactive)
REMARK    1  A    between atoms: C_1  and  O_2
REMARK    2  A    between atoms: O_2  and  C_3
REMARK    3  A    between atoms: C_6  and  C_7
REMARK    4  A    between atoms: N_9  and  C_10
REMARK    5  A    between atoms: C_14  and  C_15
REMARK    6  A    between atoms: C_15  and  N_16
REMARK    7  A    between atoms: N_16  and  C_17
REMARK    8  A    between atoms: C_22  and  C_23
REMARK    9  A    between atoms: C_32  and  C_33
REMARK                            x       y       z     vdW  Elec       q    Type
REMARK                         _______ _______ _______ _____ _____    ______ ____
ROOT
ATOM      1  C   UNL     1       1.477   8.486  19.837  0.00  0.00    +0.000 A 
ATOM      2  C   UNL     1       1.356   8.335  21.221  0.00  0.00    +0.000 A 
ATOM      3  C   UNL     1       0.431   9.082  21.950  0.00  0.00    +0.000 A 
ATOM      4  C   UNL     1      -0.411   9.977  21.298  0.00  0.00    +0.000 A 
ATOM      5  C   UNL     1      -0.329  10.130  19.907  0.00  0.00    +0.000 A 
ATOM      6  C   UNL     1       0.659   9.419  19.193  0.00  0.00    +0.000 A 
ENDROOT
BRANCH   1   9
ATOM      7  C   UNL     1       2.560   6.352  19.217  0.00  0.00    +0.000 C 
ATOM      8  O   UNL     1       1.937   5.622  19.993  0.00  0.00    +0.000 OA
ATOM      9  N   UNL     1       2.382   7.720  19.062  0.00  0.00    +0.000 N 
ATOM     10  H   UNL     1       2.766   8.159  18.237  0.00  0.00    +0.000 HD
BRANCH   7  14
ATOM     11  C   UNL     1       5.286   4.207  16.704  0.00  0.00    +0.000 A 
ATOM     12  C   UNL     1       3.936   3.854  16.791  0.00  0.00    +0.000 A 
ATOM     13  C   UNL     1       3.066   4.586  17.593  0.00  0.00    +0.000 A 
ATOM     14  C   UNL     1       3.529   5.680  18.330  0.00  0.00    +0.000 A 
ATOM     15  C   UNL     1       4.887   6.000  18.301  0.00  0.00    +0.000 A 
ATOM     16  C   UNL     1       5.785   5.251  17.504  0.00  0.00    +0.000 A 
BRANCH  16  17
ATOM     17  C   UNL     1       7.252   5.617  17.565  0.00  0.00    +0.000 C 
ATOM     18  F   UNL     1       7.641   6.408  18.599  0.00  0.00    +0.000 F 
ATOM     19  F   UNL     1       8.042   4.507  17.628  0.00  0.00    +0.000 F 
ATOM     20  F   UNL     1       7.649   6.273  16.434  0.00  0.00    +0.000 F 
ENDBRANCH  16  17
BRANCH  11  22
ATOM     21  C   UNL     1       6.107   3.943  14.503  0.00  0.00    +0.000 C 
ATOM     22  O   UNL     1       6.158   3.554  15.876  0.00  0.00    +0.000 OA
ENDBRANCH  11  22
ENDBRANCH   7  14
ENDBRANCH   1   9
BRANCH   5  23
ATOM     23  C   UNL     1      -1.256  11.065  19.166  0.00  0.00    +0.000 C 
BRANCH  23  24
ATOM     24  N   UNL     1      -0.512  11.940  18.206  0.00  0.00    +0.000 N 
ATOM     25  H   UNL     1      -1.113  12.118  17.403  0.00  0.00    +0.000 HD
BRANCH  24  26
ATOM     26  C   UNL     1      -0.136  13.170  18.804  0.00  0.00    +0.000 A 
ATOM     27  N   UNL     1      -1.083  13.736  19.565  0.00  0.00    +0.000 NA
ATOM     28  C   UNL     1      -0.874  14.961  20.016  0.00  0.00    +0.000 A 
ATOM     29  N   UNL     1       0.150  15.722  19.671  0.00  0.00    +0.000 NA
ATOM     30  C   UNL     1       1.129  15.152  18.963  0.00  0.00    +0.000 A 
ATOM     31  C   UNL     1       2.188  15.970  18.571  0.00  0.00    +0.000 A 
ATOM     32  C   UNL     1       3.444  15.437  18.280  0.00  0.00    +0.000 A 
ATOM     33  C   UNL     1       3.582  14.053  18.225  0.00  0.00    +0.000 A 
ATOM     34  C   UNL     1       2.432  13.235  18.311  0.00  0.00    +0.000 A 
ATOM     35  C   UNL     1       1.154  13.782  18.670  0.00  0.00    +0.000 A 
BRANCH  31  36
ATOM     36  C   UNL     1       1.854  17.385  18.259  0.00  0.00    +0.000 C 
ATOM     37  N   UNL     1       1.547  18.231  19.291  0.00  0.00    +0.000 N 
ATOM     38  O   UNL     1       1.881  17.822  17.116  0.00  0.00    +0.000 OA
ATOM     39  H   UNL     1       1.355  17.929  20.224  0.00  0.00    +0.000 HD
ATOM     40  H   UNL     1       1.222  19.150  19.000  0.00  0.00    +0.000 HD
ENDBRANCH  31  36
ENDBRANCH  24  26
ENDBRANCH  23  24
ENDBRANCH   5  23
TORSDOF 8
ENDMDL
MODEL 4
REMARK VINA RESULT:      -8.6      7.744     11.083
REMARK  Name = 
REMARK  9 active torsions:
REMARK  status: ('A' for Active; 'I' for Inactive)
REMARK    1  A    between atoms: C_1  and  O_2
REMARK    2  A    between atoms: O_2  and  C_3
REMARK    3  A    between atoms: C_6  and  C_7
REMARK    4  A    between atoms: N_9  and  C_10
REMARK    5  A    between atoms: C_14  and  C_15
REMARK    6  A    between atoms: C_15  and  N_16
REMARK    7  A    between atoms: N_16  and  C_17
REMARK    8  A    between atoms: C_22  and  C_23
REMARK    9  A    between atoms: C_32  and  C_33
REMARK                            x       y       z     vdW  Elec       q    Type
REMARK                         _______ _______ _______ _____ _____    ______ ____
ROOT
ATOM      1  C   UNL     1       7.845   8.185  18.055  0.00  0.00    +0.000 A 
ATOM      2  C   UNL     1       8.463   7.148  18.759  0.00  0.00    +0.000 A 
ATOM      3  C   UNL     1       7.859   5.897  18.879  0.00  0.00    +0.000 A 
ATOM      4  C   UNL     1       6.632   5.655  18.270  0.00  0.00    +0.000 A 
ATOM      5  C   UNL     1       6.002   6.669  17.535  0.00  0.00    +0.000 A 
ATOM      6  C   UNL     1       6.592   7.949  17.482  0.00  0.00    +0.000 A 
ENDROOT
BRANCH   1   9
ATOM      7  C   UNL     1       8.985  10.198  18.927  0.00  0.00    +0.000 C 
ATOM      8  O   UNL     1       9.062   9.844  20.106  0.00  0.00    +0.000 OA
ATOM      9  N   UNL     1       8.447   9.456  17.885  0.00  0.00    +0.000 N 
ATOM     10  H   UNL     1       8.661   9.740  16.939  0.00  0.00    +0.000 HD
BRANCH   7  14
ATOM     11  C   UNL     1      10.944  13.888  17.980  0.00  0.00    +0.000 A 
ATOM     12  C   UNL     1      11.315  12.684  17.374  0.00  0.00    +0.000 A 
ATOM     13  C   UNL     1      10.642  11.505  17.678  0.00  0.00    +0.000 A 
ATOM     14  C   UNL     1       9.592  11.503  18.600  0.00  0.00    +0.000 A 
ATOM     15  C   UNL     1       9.257  12.687  19.259  0.00  0.00    +0.000 A 
ATOM     16  C   UNL     1       9.947  13.888  18.972  0.00  0.00    +0.000 A 
BRANCH  16  17
ATOM     17  C   UNL     1       9.571  15.121  19.765  0.00  0.00    +0.000 C 
ATOM     18  F   UNL     1       8.995  16.139  19.075  0.00  0.00    +0.000 F 
ATOM     19  F   UNL     1       8.706  14.822  20.777  0.00  0.00    +0.000 F 
ATOM     20  F   UNL     1      10.662  15.669  20.380  0.00  0.00    +0.000 F 
ENDBRANCH  16  17
BRANCH  11  22
ATOM     21  C   UNL     1      11.035  15.714  16.481  0.00  0.00    +0.000 C 
ATOM     22  O   UNL     1      11.536  15.078  17.658  0.00  0.00    +0.000 OA
ENDBRANCH  11  22
ENDBRANCH   7  14
ENDBRANCH   1   9
BRANCH   5  23
ATOM     23  C   UNL     1       4.688   6.424  16.830  0.00  0.00    +0.000 C 
BRANCH  23  24
ATOM     24  N   UNL     1       3.577   7.232  17.426  0.00  0.00    +0.000 N 
ATOM     25  H   UNL     1       2.946   7.510  16.678  0.00  0.00    +0.000 HD
BRANCH  24  26
ATOM     26  C   UNL     1       2.864   6.495  18.406  0.00  0.00    +0.000 A 
ATOM     27  N   UNL     1       2.389   7.228  19.423  0.00  0.00    +0.000 NA
ATOM     28  C   UNL     1       1.865   6.597  20.458  0.00  0.00    +0.000 A 
ATOM     29  N   UNL     1       1.882   5.286  20.623  0.00  0.00    +0.000 NA
ATOM     30  C   UNL     1       2.295   4.540  19.594  0.00  0.00    +0.000 A 
ATOM     31  C   UNL     1       2.345   3.161  19.788  0.00  0.00    +0.000 A 
ATOM     32  C   UNL     1       2.279   2.277  18.711  0.00  0.00    +0.000 A 
ATOM     33  C   UNL     1       2.330   2.796  17.421  0.00  0.00    +0.000 A 
ATOM     34  C   UNL     1       2.599   4.172  17.234  0.00  0.00    +0.000 A 
ATOM     35  C   UNL     1       2.606   5.086  18.341  0.00  0.00    +0.000 A 
BRANCH  31  36
ATOM     36  C   UNL     1       2.701   2.695  21.154  0.00  0.00    +0.000 C 
ATOM     37  N   UNL     1       1.728   2.675  22.117  0.00  0.00    +0.000 N 
ATOM     38  O   UNL     1       3.825   2.296  21.433  0.00  0.00    +0.000 OA
ATOM     39  H   UNL     1       0.837   3.119  22.021  0.00  0.00    +0.000 HD
ATOM     40  H   UNL     1       2.063   2.453  23.051  0.00  0.00    +0.000 HD
ENDBRANCH  31  36
ENDBRANCH  24  26
ENDBRANCH  23  24
ENDBRANCH   5  23
TORSDOF 8
ENDMDL
MODEL 5
REMARK VINA RESULT:      -8.5      7.603     11.003
REMARK  Name = 
REMARK  9 active torsions:
REMARK  status: ('A' for Active; 'I' for Inactive)
REMARK    1  A    between atoms: C_1  and  O_2
REMARK    2  A    between atoms: O_2  and  C_3
REMARK    3  A    between atoms: C_6  and  C_7
REMARK    4  A    between atoms: N_9  and  C_10
REMARK    5  A    between atoms: C_14  and  C_15
REMARK    6  A    between atoms: C_15  and  N_16
REMARK    7  A    between atoms: N_16  and  C_17
REMARK    8  A    between atoms: C_22  and  C_23
REMARK    9  A    between atoms: C_32  and  C_33
REMARK                            x       y       z     vdW  Elec       q    Type
REMARK                         _______ _______ _______ _____ _____    ______ ____
ROOT
ATOM      1  C   UNL     1       7.769   8.053  17.957  0.00  0.00    +0.000 A 
ATOM      2  C   UNL     1       8.410   7.159  18.819  0.00  0.00    +0.000 A 
ATOM      3  C   UNL     1       7.884   5.892  19.067  0.00  0.00    +0.000 A 
ATOM      4  C   UNL     1       6.714   5.486  18.432  0.00  0.00    +0.000 A 
ATOM      5  C   UNL     1       6.064   6.352  17.542  0.00  0.00    +0.000 A 
ATOM      6  C   UNL     1       6.571   7.656  17.355  0.00  0.00    +0.000 A 
ENDROOT
BRANCH   1   9
ATOM      7  C   UNL     1       8.981  10.117  18.572  0.00  0.00    +0.000 C 
ATOM      8  O   UNL     1       9.271   9.798  19.728  0.00  0.00    +0.000 OA
ATOM      9  N   UNL     1       8.294   9.333  17.656  0.00  0.00    +0.000 N 
ATOM     10  H   UNL     1       8.333   9.596  16.681  0.00  0.00    +0.000 HD
BRANCH   7  14
ATOM     11  C   UNL     1      10.630  13.878  17.351  0.00  0.00    +0.000 A 
ATOM     12  C   UNL     1      11.384  12.701  17.320  0.00  0.00    +0.000 A 
ATOM     13  C   UNL     1      10.816  11.488  17.694  0.00  0.00    +0.000 A 
ATOM     14  C   UNL     1       9.484  11.427  18.115  0.00  0.00    +0.000 A 
ATOM     15  C   UNL     1       8.742  12.605  18.211  0.00  0.00    +0.000 A 
ATOM     16  C   UNL     1       9.315  13.847  17.852  0.00  0.00    +0.000 A 
BRANCH  16  17
ATOM     17  C   UNL     1       8.473  15.091  18.036  0.00  0.00    +0.000 C 
ATOM     18  F   UNL     1       8.737  16.135  17.209  0.00  0.00    +0.000 F 
ATOM     19  F   UNL     1       7.144  14.823  17.885  0.00  0.00    +0.000 F 
ATOM     20  F   UNL     1       8.593  15.590  19.302  0.00  0.00    +0.000 F 
ENDBRANCH  16  17
BRANCH  11  22
ATOM     21  C   UNL     1      12.213  15.598  17.704  0.00  0.00    +0.000 C 
ATOM     22  O   UNL     1      11.133  15.077  16.927  0.00  0.00    +0.000 OA
ENDBRANCH  11  22
ENDBRANCH   7  14
ENDBRANCH   1   9
BRANCH   5  23
ATOM     23  C   UNL     1       4.814   5.926  16.808  0.00  0.00    +0.000 C 
BRANCH  23  24
ATOM     24  N   UNL     1       3.637   6.776  17.172  0.00  0.00    +0.000 N 
ATOM     25  H   UNL     1       3.044   6.871  16.350  0.00  0.00    +0.000 HD
BRANCH  24  26
ATOM     26  C   UNL     1       2.893   6.209  18.238  0.00  0.00    +0.000 A 
ATOM     27  N   UNL     1       2.563   7.069  19.211  0.00  0.00    +0.000 NA
ATOM     28  C   UNL     1       2.021   6.586  20.316  0.00  0.00    +0.000 A 
ATOM     29  N   UNL     1       1.890   5.299  20.585  0.00  0.00    +0.000 NA
ATOM     30  C   UNL     1       2.158   4.434  19.603  0.00  0.00    +0.000 A 
ATOM     31  C   UNL     1       2.053   3.077  19.905  0.00  0.00    +0.000 A 
ATOM     32  C   UNL     1       1.827   2.129  18.908  0.00  0.00    +0.000 A 
ATOM     33  C   UNL     1       1.872   2.540  17.578  0.00  0.00    +0.000 A 
ATOM     34  C   UNL     1       2.292   3.854  17.270  0.00  0.00    +0.000 A 
ATOM     35  C   UNL     1       2.466   4.841  18.298  0.00  0.00    +0.000 A 
BRANCH  31  36
ATOM     36  C   UNL     1       2.421   2.675  21.289  0.00  0.00    +0.000 C 
ATOM     37  N   UNL     1       3.680   2.188  21.520  0.00  0.00    +0.000 N 
ATOM     38  O   UNL     1       1.647   2.798  22.229  0.00  0.00    +0.000 OA
ATOM     39  H   UNL     1       4.315   1.914  20.798  0.00  0.00    +0.000 HD
ATOM     40  H   UNL     1       3.828   1.830  22.461  0.00  0.00    +0.000 HD
ENDBRANCH  31  36
ENDBRANCH  24  26
ENDBRANCH  23  24
ENDBRANCH   5  23
TORSDOF 8
ENDMDL
MODEL 6
REMARK VINA RESULT:      -8.5      2.347      3.302
REMARK  Name = 
REMARK  9 active torsions:
REMARK  status: ('A' for Active; 'I' for Inactive)
REMARK    1  A    between atoms: C_1  and  O_2
REMARK    2  A    between atoms: O_2  and  C_3
REMARK    3  A    between atoms: C_6  and  C_7
REMARK    4  A    between atoms: N_9  and  C_10
REMARK    5  A    between atoms: C_14  and  C_15
REMARK    6  A    between atoms: C_15  and  N_16
REMARK    7  A    between atoms: N_16  and  C_17
REMARK    8  A    between atoms: C_22  and  C_23
REMARK    9  A    between atoms: C_32  and  C_33
REMARK                            x       y       z     vdW  Elec       q    Type
REMARK                         _______ _______ _______ _____ _____    ______ ____
ROOT
ATOM      1  C   UNL     1       0.711   9.174  21.618  0.00  0.00    +0.000 A 
ATOM      2  C   UNL     1      -0.090   9.205  22.763  0.00  0.00    +0.000 A 
ATOM      3  C   UNL     1      -0.712  10.381  23.178  0.00  0.00    +0.000 A 
ATOM      4  C   UNL     1      -0.565  11.548  22.433  0.00  0.00    +0.000 A 
ATOM      5  C   UNL     1       0.211  11.540  21.266  0.00  0.00    +0.000 A 
ATOM      6  C   UNL     1       0.890  10.360  20.898  0.00  0.00    +0.000 A 
ENDROOT
BRANCH   1   9
ATOM      7  C   UNL     1       1.759   7.811  19.842  0.00  0.00    +0.000 C 
ATOM      8  O   UNL     1       1.714   8.654  18.941  0.00  0.00    +0.000 OA
ATOM      9  N   UNL     1       1.329   7.989  21.149  0.00  0.00    +0.000 N 
ATOM     10  H   UNL     1       1.639   7.327  21.847  0.00  0.00    +0.000 HD
BRANCH   7  14
ATOM     11  C   UNL     1       3.682   4.066  19.052  0.00  0.00    +0.000 A 
ATOM     12  C   UNL     1       2.930   4.275  20.212  0.00  0.00    +0.000 A 
ATOM     13  C   UNL     1       2.292   5.491  20.430  0.00  0.00    +0.000 A 
ATOM     14  C   UNL     1       2.399   6.527  19.497  0.00  0.00    +0.000 A 
ATOM     15  C   UNL     1       3.199   6.351  18.368  0.00  0.00    +0.000 A 
ATOM     16  C   UNL     1       3.869   5.125  18.145  0.00  0.00    +0.000 A 
BRANCH  16  17
ATOM     17  C   UNL     1       4.766   5.025  16.931  0.00  0.00    +0.000 C 
ATOM     18  F   UNL     1       4.452   4.069  16.017  0.00  0.00    +0.000 F 
ATOM     19  F   UNL     1       4.808   6.200  16.240  0.00  0.00    +0.000 F 
ATOM     20  F   UNL     1       6.061   4.775  17.288  0.00  0.00    +0.000 F 
ENDBRANCH  16  17
BRANCH  11  22
ATOM     21  C   UNL     1       3.378   1.833  18.335  0.00  0.00    +0.000 C 
ATOM     22  O   UNL     1       4.268   2.863  18.770  0.00  0.00    +0.000 OA
ENDBRANCH  11  22
ENDBRANCH   7  14
ENDBRANCH   1   9
BRANCH   5  23
ATOM     23  C   UNL     1       0.357  12.781  20.416  0.00  0.00    +0.000 C 
BRANCH  23  24
ATOM     24  N   UNL     1      -0.929  13.540  20.313  0.00  0.00    +0.000 N 
ATOM     25  H   UNL     1      -0.759  14.385  19.772  0.00  0.00    +0.000 HD
BRANCH  24  26
ATOM     26  C   UNL     1      -1.943  12.768  19.691  0.00  0.00    +0.000 A 
ATOM     27  N   UNL     1      -1.553  12.115  18.588  0.00  0.00    +0.000 NA
ATOM     28  C   UNL     1      -2.476  11.515  17.857  0.00  0.00    +0.000 A 
ATOM     29  N   UNL     1      -3.777  11.612  18.065  0.00  0.00    +0.000 NA
ATOM     30  C   UNL     1      -4.178  12.207  19.193  0.00  0.00    +0.000 A 
ATOM     31  C   UNL     1      -5.551  12.339  19.389  0.00  0.00    +0.000 A 
ATOM     32  C   UNL     1      -6.090  12.477  20.668  0.00  0.00    +0.000 A 
ATOM     33  C   UNL     1      -5.218  12.649  21.740  0.00  0.00    +0.000 A 
ATOM     34  C   UNL     1      -3.838  12.832  21.493  0.00  0.00    +0.000 A 
ATOM     35  C   UNL     1      -3.282  12.630  20.185  0.00  0.00    +0.000 A 
BRANCH  31  36
ATOM     36  C   UNL     1      -6.378  12.555  18.171  0.00  0.00    +0.000 C 
ATOM     37  N   UNL     1      -6.122  13.648  17.388  0.00  0.00    +0.000 N 
ATOM     38  O   UNL     1      -7.253  11.769  17.833  0.00  0.00    +0.000 OA
ATOM     39  H   UNL     1      -5.539  14.411  17.665  0.00  0.00    +0.000 HD
ATOM     40  H   UNL     1      -6.792  13.795  16.637  0.00  0.00    +0.000 HD
ENDBRANCH  31  36
ENDBRANCH  24  26
ENDBRANCH  23  24
ENDBRANCH   5  23
TORSDOF 8
ENDMDL
MODEL 7
REMARK VINA RESULT:      -8.5      2.189      3.383
REMARK  Name = 
REMARK  9 active torsions:
REMARK  status: ('A' for Active; 'I' for Inactive)
REMARK    1  A    between atoms: C_1  and  O_2
REMARK    2  A    between atoms: O_2  and  C_3
REMARK    3  A    between atoms: C_6  and  C_7
REMARK    4  A    between atoms: N_9  and  C_10
REMARK    5  A    between atoms: C_14  and  C_15
REMARK    6  A    between atoms: C_15  and  N_16
REMARK    7  A    between atoms: N_16  and  C_17
REMARK    8  A    between atoms: C_22  and  C_23
REMARK    9  A    between atoms: C_32  and  C_33
REMARK                            x       y       z     vdW  Elec       q    Type
REMARK                         _______ _______ _______ _____ _____    ______ ____
ROOT
ATOM      1  C   UNL     1       1.475   8.450  19.941  0.00  0.00    +0.000 A 
ATOM      2  C   UNL     1       1.073   8.039  21.215  0.00  0.00    +0.000 A 
ATOM      3  C   UNL     1       0.152   8.780  21.955  0.00  0.00    +0.000 A 
ATOM      4  C   UNL     1      -0.404   9.937  21.418  0.00  0.00    +0.000 A 
ATOM      5  C   UNL     1      -0.038  10.358  20.132  0.00  0.00    +0.000 A 
ATOM      6  C   UNL     1       0.946   9.637  19.425  0.00  0.00    +0.000 A 
ENDROOT
BRANCH   1   9
ATOM      7  C   UNL     1       2.559   6.332  19.270  0.00  0.00    +0.000 C 
ATOM      8  O   UNL     1       1.933   5.583  20.024  0.00  0.00    +0.000 OA
ATOM      9  N   UNL     1       2.381   7.703  19.149  0.00  0.00    +0.000 N 
ATOM     10  H   UNL     1       2.768   8.164  18.337  0.00  0.00    +0.000 HD
BRANCH   7  14
ATOM     11  C   UNL     1       5.288   4.252  16.706  0.00  0.00    +0.000 A 
ATOM     12  C   UNL     1       3.933   3.913  16.764  0.00  0.00    +0.000 A 
ATOM     13  C   UNL     1       3.062   4.624  17.584  0.00  0.00    +0.000 A 
ATOM     14  C   UNL     1       3.530   5.683  18.368  0.00  0.00    +0.000 A 
ATOM     15  C   UNL     1       4.892   5.986  18.367  0.00  0.00    +0.000 A 
ATOM     16  C   UNL     1       5.790   5.258  17.552  0.00  0.00    +0.000 A 
BRANCH  16  17
ATOM     17  C   UNL     1       7.260   5.602  17.644  0.00  0.00    +0.000 C 
ATOM     18  F   UNL     1       7.793   6.289  16.600  0.00  0.00    +0.000 F 
ATOM     19  F   UNL     1       7.533   6.344  18.755  0.00  0.00    +0.000 F 
ATOM     20  F   UNL     1       8.028   4.479  17.769  0.00  0.00    +0.000 F 
ENDBRANCH  16  17
BRANCH  11  22
ATOM     21  C   UNL     1       5.977   3.893  14.473  0.00  0.00    +0.000 C 
ATOM     22  O   UNL     1       6.161   3.620  15.863  0.00  0.00    +0.000 OA
ENDBRANCH  11  22
ENDBRANCH   7  14
ENDBRANCH   1   9
BRANCH   5  23
ATOM     23  C   UNL     1      -0.655  11.588  19.507  0.00  0.00    +0.000 C 
BRANCH  23  24
ATOM     24  N   UNL     1      -1.989  11.292  18.896  0.00  0.00    +0.000 N 
ATOM     25  H   UNL     1      -2.202  10.309  19.053  0.00  0.00    +0.000 HD
BRANCH  24  26
ATOM     26  C   UNL     1      -3.012  12.099  19.459  0.00  0.00    +0.000 A 
ATOM     27  N   UNL     1      -2.579  13.037  20.313  0.00  0.00    +0.000 NA
ATOM     28  C   UNL     1      -3.477  13.713  21.008  0.00  0.00    +0.000 A 
ATOM     29  N   UNL     1      -4.772  13.450  21.014  0.00  0.00    +0.000 NA
ATOM     30  C   UNL     1      -5.225  12.562  20.125  0.00  0.00    +0.000 A 
ATOM     31  C   UNL     1      -6.586  12.262  20.162  0.00  0.00    +0.000 A 
ATOM     32  C   UNL     1      -7.247  11.764  19.039  0.00  0.00    +0.000 A 
ATOM     33  C   UNL     1      -6.492  11.413  17.924  0.00  0.00    +0.000 A 
ATOM     34  C   UNL     1      -5.080  11.422  18.009  0.00  0.00    +0.000 A 
ATOM     35  C   UNL     1      -4.405  11.989  19.141  0.00  0.00    +0.000 A 
BRANCH  31  36
ATOM     36  C   UNL     1      -7.233  12.279  21.500  0.00  0.00    +0.000 C 
ATOM     37  N   UNL     1      -7.916  13.401  21.886  0.00  0.00    +0.000 N 
ATOM     38  O   UNL     1      -7.203  11.311  22.249  0.00  0.00    +0.000 OA
ATOM     39  H   UNL     1      -7.865  14.278  21.411  0.00  0.00    +0.000 HD
ATOM     40  H   UNL     1      -8.239  13.387  22.851  0.00  0.00    +0.000 HD
ENDBRANCH  31  36
ENDBRANCH  24  26
ENDBRANCH  23  24
ENDBRANCH   5  23
TORSDOF 8
ENDMDL
MODEL 8
REMARK VINA RESULT:      -8.5      2.285      3.588
REMARK  Name = 
REMARK  9 active torsions:
REMARK  status: ('A' for Active; 'I' for Inactive)
REMARK    1  A    between atoms: C_1  and  O_2
REMARK    2  A    between atoms: O_2  and  C_3
REMARK    3  A    between atoms: C_6  and  C_7
REMARK    4  A    between atoms: N_9  and  C_10
REMARK    5  A    between atoms: C_14  and  C_15
REMARK    6  A    between atoms: C_15  and  N_16
REMARK    7  A    between atoms: N_16  and  C_17
REMARK    8  A    between atoms: C_22  and  C_23
REMARK    9  A    between atoms: C_32  and  C_33
REMARK                            x       y       z     vdW  Elec       q    Type
REMARK                         _______ _______ _______ _____ _____    ______ ____
ROOT
ATOM      1  C   UNL     1       1.083   8.868  21.059  0.00  0.00    +0.000 A 
ATOM      2  C   UNL     1       0.525   8.616  22.315  0.00  0.00    +0.000 A 
ATOM      3  C   UNL     1      -0.329   9.535  22.924  0.00  0.00    +0.000 A 
ATOM      4  C   UNL     1      -0.661  10.717  22.269  0.00  0.00    +0.000 A 
ATOM      5  C   UNL     1      -0.137  10.984  20.997  0.00  0.00    +0.000 A 
ATOM      6  C   UNL     1       0.780  10.077  20.425  0.00  0.00    +0.000 A 
ENDROOT
BRANCH   1   9
ATOM      7  C   UNL     1       2.088   7.896  19.020  0.00  0.00    +0.000 C 
ATOM      8  O   UNL     1       1.577   8.668  18.203  0.00  0.00    +0.000 OA
ATOM      9  N   UNL     1       1.926   7.942  20.398  0.00  0.00    +0.000 N 
ATOM     10  H   UNL     1       2.578   7.424  20.971  0.00  0.00    +0.000 HD
BRANCH   7  14
ATOM     11  C   UNL     1       4.721   5.038  17.218  0.00  0.00    +0.000 A 
ATOM     12  C   UNL     1       4.694   6.374  16.805  0.00  0.00    +0.000 A 
ATOM     13  C   UNL     1       3.850   7.288  17.427  0.00  0.00    +0.000 A 
ATOM     14  C   UNL     1       3.009   6.884  18.469  0.00  0.00    +0.000 A 
ATOM     15  C   UNL     1       2.981   5.541  18.844  0.00  0.00    +0.000 A 
ATOM     16  C   UNL     1       3.821   4.598  18.206  0.00  0.00    +0.000 A 
BRANCH  16  17
ATOM     17  C   UNL     1       3.696   3.149  18.623  0.00  0.00    +0.000 C 
ATOM     18  F   UNL     1       2.630   2.827  19.401  0.00  0.00    +0.000 F 
ATOM     19  F   UNL     1       3.630   2.321  17.541  0.00  0.00    +0.000 F 
ATOM     20  F   UNL     1       4.795   2.735  19.322  0.00  0.00    +0.000 F 
ENDBRANCH  16  17
BRANCH  11  22
ATOM     21  C   UNL     1       6.958   4.518  16.656  0.00  0.00    +0.000 C 
ATOM     22  O   UNL     1       5.584   4.126  16.677  0.00  0.00    +0.000 OA
ENDBRANCH  11  22
ENDBRANCH   7  14
ENDBRANCH   1   9
BRANCH   5  23
ATOM     23  C   UNL     1      -0.510  12.240  20.245  0.00  0.00    +0.000 C 
BRANCH  23  24
ATOM     24  N   UNL     1      -1.594  11.988  19.244  0.00  0.00    +0.000 N 
ATOM     25  H   UNL     1      -1.624  10.989  19.049  0.00  0.00    +0.000 HD
BRANCH  24  26
ATOM     26  C   UNL     1      -2.858  12.420  19.722  0.00  0.00    +0.000 A 
ATOM     27  N   UNL     1      -2.807  13.216  20.799  0.00  0.00    +0.000 NA
ATOM     28  C   UNL     1      -3.941  13.520  21.406  0.00  0.00    +0.000 A 
ATOM     29  N   UNL     1      -5.116  12.999  21.102  0.00  0.00    +0.000 NA
ATOM     30  C   UNL     1      -5.193  12.253  19.996  0.00  0.00    +0.000 A 
ATOM     31  C   UNL     1      -6.427  11.676  19.702  0.00  0.00    +0.000 A 
ATOM     32  C   UNL     1      -6.763  11.312  18.399  0.00  0.00    +0.000 A 
ATOM     33  C   UNL     1      -5.780  11.379  17.416  0.00  0.00    +0.000 A 
ATOM     34  C   UNL     1      -4.445  11.663  17.785  0.00  0.00    +0.000 A 
ATOM     35  C   UNL     1      -4.115  12.095  19.114  0.00  0.00    +0.000 A 
BRANCH  31  36
ATOM     36  C   UNL     1      -7.260  11.263  20.863  0.00  0.00    +0.000 C 
ATOM     37  N   UNL     1      -7.917  12.228  21.578  0.00  0.00    +0.000 N 
ATOM     38  O   UNL     1      -7.404  10.088  21.174  0.00  0.00    +0.000 OA
ATOM     39  H   UNL     1      -7.738  13.207  21.492  0.00  0.00    +0.000 HD
ATOM     40  H   UNL     1      -8.376  11.890  22.421  0.00  0.00    +0.000 HD
ENDBRANCH  31  36
ENDBRANCH  24  26
ENDBRANCH  23  24
ENDBRANCH   5  23
TORSDOF 8
ENDMDL
MODEL 9
REMARK VINA RESULT:      -8.4      1.324      1.873
REMARK  Name = 
REMARK  9 active torsions:
REMARK  status: ('A' for Active; 'I' for Inactive)
REMARK    1  A    between atoms: C_1  and  O_2
REMARK    2  A    between atoms: O_2  and  C_3
REMARK    3  A    between atoms: C_6  and  C_7
REMARK    4  A    between atoms: N_9  and  C_10
REMARK    5  A    between atoms: C_14  and  C_15
REMARK    6  A    between atoms: C_15  and  N_16
REMARK    7  A    between atoms: N_16  and  C_17
REMARK    8  A    between atoms: C_22  and  C_23
REMARK    9  A    between atoms: C_32  and  C_33
REMARK                            x       y       z     vdW  Elec       q    Type
REMARK                         _______ _______ _______ _____ _____    ______ ____
ROOT
ATOM      1  C   UNL     1       1.324  10.248  18.581  0.00  0.00    +0.000 A 
ATOM      2  C   UNL     1       2.035  11.413  18.283  0.00  0.00    +0.000 A 
ATOM      3  C   UNL     1       1.498  12.674  18.543  0.00  0.00    +0.000 A 
ATOM      4  C   UNL     1       0.243  12.787  19.133  0.00  0.00    +0.000 A 
ATOM      5  C   UNL     1      -0.481  11.635  19.466  0.00  0.00    +0.000 A 
ATOM      6  C   UNL     1       0.045  10.369  19.133  0.00  0.00    +0.000 A 
ENDROOT
BRANCH   1   9
ATOM      7  C   UNL     1       2.032   8.014  19.368  0.00  0.00    +0.000 C 
ATOM      8  O   UNL     1       1.713   8.150  20.553  0.00  0.00    +0.000 OA
ATOM      9  N   UNL     1       1.854   8.953  18.362  0.00  0.00    +0.000 N 
ATOM     10  H   UNL     1       1.923   8.641  17.403  0.00  0.00    +0.000 HD
BRANCH   7  14
ATOM     11  C   UNL     1       3.688   4.163  18.489  0.00  0.00    +0.000 A 
ATOM     12  C   UNL     1       2.892   4.379  19.618  0.00  0.00    +0.000 A 
ATOM     13  C   UNL     1       2.343   5.633  19.865  0.00  0.00    +0.000 A 
ATOM     14  C   UNL     1       2.584   6.698  18.992  0.00  0.00    +0.000 A 
ATOM     15  C   UNL     1       3.429   6.510  17.898  0.00  0.00    +0.000 A 
ATOM     16  C   UNL     1       4.010   5.244  17.648  0.00  0.00    +0.000 A 
BRANCH  16  17
ATOM     17  C   UNL     1       4.962   5.126  16.478  0.00  0.00    +0.000 C 
ATOM     18  F   UNL     1       6.252   4.815  16.770  0.00  0.00    +0.000 F 
ATOM     19  F   UNL     1       4.545   4.181  15.587  0.00  0.00    +0.000 F 
ATOM     20  F   UNL     1       5.020   6.289  15.763  0.00  0.00    +0.000 F 
ENDBRANCH  16  17
BRANCH  11  22
ATOM     21  C   UNL     1       3.222   1.887  18.049  0.00  0.00    +0.000 C 
ATOM     22  O   UNL     1       4.190   2.929  18.177  0.00  0.00    +0.000 OA
ENDBRANCH  11  22
ENDBRANCH   7  14
ENDBRANCH   1   9
BRANCH   5  23
ATOM     23  C   UNL     1      -1.829  11.726  20.144  0.00  0.00    +0.000 C 
BRANCH  23  24
ATOM     24  N   UNL     1      -2.728  12.713  19.465  0.00  0.00    +0.000 N 
ATOM     25  H   UNL     1      -3.247  12.225  18.738  0.00  0.00    +0.000 HD
BRANCH  24  26
ATOM     26  C   UNL     1      -3.631  13.313  20.379  0.00  0.00    +0.000 A 
ATOM     27  N   UNL     1      -3.160  14.404  20.999  0.00  0.00    +0.000 NA
ATOM     28  C   UNL     1      -3.870  14.918  21.987  0.00  0.00    +0.000 A 
ATOM     29  N   UNL     1      -4.957  14.365  22.495  0.00  0.00    +0.000 NA
ATOM     30  C   UNL     1      -5.472  13.314  21.851  0.00  0.00    +0.000 A 
ATOM     31  C   UNL     1      -6.598  12.713  22.412  0.00  0.00    +0.000 A 
ATOM     32  C   UNL     1      -7.485  11.969  21.634  0.00  0.00    +0.000 A 
ATOM     33  C   UNL     1      -7.140  11.694  20.314  0.00  0.00    +0.000 A 
ATOM     34  C   UNL     1      -5.851  12.037  19.845  0.00  0.00    +0.000 A 
ATOM     35  C   UNL     1      -4.966  12.853  20.627  0.00  0.00    +0.000 A 
BRANCH  31  36
ATOM     36  C   UNL     1      -6.678  12.710  23.897  0.00  0.00    +0.000 C 
ATOM     37  N   UNL     1      -7.437  13.666  24.517  0.00  0.00    +0.000 N 
ATOM     38  O   UNL     1      -6.115  11.861  24.576  0.00  0.00    +0.000 OA
ATOM     39  H   UNL     1      -7.800  14.476  24.058  0.00  0.00    +0.000 HD
ATOM     40  H   UNL     1      -7.359  13.674  25.531  0.00  0.00    +0.000 HD
ENDBRANCH  31  36
ENDBRANCH  24  26
ENDBRANCH  23  24
ENDBRANCH   5  23
TORSDOF 8
ENDMDL
