MODEL 1
REMARK VINA RESULT:      -7.7      0.000      0.000
REMARK  Name = 
REMARK  10 active torsions:
REMARK  status: ('A' for Active; 'I' for Inactive)
REMARK    1  A    between atoms: C_1  and  C_2
REMARK    2  A    between atoms: C_3  and  C_4
REMARK    3  A    between atoms: C_4  and  N_5
REMARK    4  A    between atoms: N_5  and  C_6
REMARK    5  A    between atoms: C_6  and  C_7
REMARK    6  A    between atoms: C_12  and  C_13
REMARK    7  A    between atoms: C_13  and  O_15
REMARK    8  A    between atoms: C_16  and  C_17
REMARK    9  A    between atoms: N_18  and  C_19
REMARK   10  A    between atoms: C_19  and  C_20
REMARK                            x       y       z     vdW  Elec       q    Type
REMARK                         _______ _______ _______ _____ _____    ______ ____
ROOT
ATOM      1  C   UNL     1       2.876   7.225  18.111  0.00  0.00    +0.000 C 
ATOM      2  C   UNL     1       2.869   5.927  18.855  0.00  0.00    +0.000 A 
ATOM      3  C   UNL     1       2.089   5.542  19.942  0.00  0.00    +0.000 A 
ATOM      4  C   UNL     1       2.436   4.175  20.254  0.00  0.00    +0.000 A 
ATOM      5  C   UNL     1       3.464   3.805  19.385  0.00  0.00    +0.000 A 
ATOM      6  C   UNL     1       4.280   2.555  19.297  0.00  0.00    +0.000 C 
ATOM      7  N   UNL     1       3.731   4.890  18.558  0.00  0.00    +0.000 N 
ENDROOT
BRANCH   4   8
ATOM      8  C   UNL     1       1.841   3.363  21.325  0.00  0.00    +0.000 C 
ATOM      9  O   UNL     1       2.368   3.180  22.415  0.00  0.00    +0.000 OA
BRANCH   8  10
ATOM     10  O   UNL     1       0.614   2.859  21.045  0.00  0.00    +0.000 OA
ATOM     11  H   UNL     1       0.057   3.528  20.614  0.00  0.00    +0.000 HD
ENDBRANCH   8  10
ENDBRANCH   4   8
BRANCH   3  12
ATOM     12  C   UNL     1       1.041   6.386  20.629  0.00  0.00    +0.000 C 
BRANCH  12  13
ATOM     13  N   UNL     1       1.618   7.457  21.436  0.00  0.00    +0.000 NA
ATOM     14  H   UNL     1       2.618   7.261  21.568  0.00  0.00    +0.000 HD
BRANCH  13  15
ATOM     15  C   UNL     1       1.477   8.784  20.843  0.00  0.00    +0.000 C 
BRANCH  15  16
ATOM     16  C   UNL     1       0.486   9.620  21.611  0.00  0.00    +0.000 A 
ATOM     17  C   UNL     1      -0.106   9.378  22.838  0.00  0.00    +0.000 A 
ATOM     18  C   UNL     1      -0.995  10.420  23.234  0.00  0.00    +0.000 A 
ATOM     19  C   UNL     1      -1.062  11.421  22.293  0.00  0.00    +0.000 A 
ATOM     20  S   UNL     1      -0.063  11.104  20.944  0.00  0.00    +0.000 S 
ENDBRANCH  15  16
ENDBRANCH  13  15
ENDBRANCH  12  13
ENDBRANCH   3  12
BRANCH   7  21
ATOM     21  C   UNL     1       4.755   4.905  17.501  0.00  0.00    +0.000 C 
BRANCH  21  22
ATOM     22  C   UNL     1       5.966   5.771  17.776  0.00  0.00    +0.000 A 
ATOM     23  C   UNL     1       6.287   6.927  17.047  0.00  0.00    +0.000 A 
ATOM     24  C   UNL     1       7.410   7.691  17.380  0.00  0.00    +0.000 A 
ATOM     25  C   UNL     1       8.236   7.308  18.433  0.00  0.00    +0.000 A 
ATOM     26  C   UNL     1       7.949   6.151  19.150  0.00  0.00    +0.000 A 
ATOM     27  C   UNL     1       6.827   5.388  18.822  0.00  0.00    +0.000 A 
ENDBRANCH  21  22
ENDBRANCH   7  21
TORSDOF 8
ENDMDL
MODEL 2
REMARK VINA RESULT:      -7.6      0.960      1.287
REMARK  Name = 
REMARK  10 active torsions:
REMARK  status: ('A' for Active; 'I' for Inactive)
REMARK    1  A    between atoms: C_1  and  C_2
REMARK    2  A    between atoms: C_3  and  C_4
REMARK    3  A    between atoms: C_4  and  N_5
REMARK    4  A    between atoms: N_5  and  C_6
REMARK    5  A    between atoms: C_6  and  C_7
REMARK    6  A    between atoms: C_12  and  C_13
REMARK    7  A    between atoms: C_13  and  O_15
REMARK    8  A    between atoms: C_16  and  C_17
REMARK    9  A    between atoms: N_18  and  C_19
REMARK   10  A    between atoms: C_19  and  C_20
REMARK                            x       y       z     vdW  Elec       q    Type
REMARK                         _______ _______ _______ _____ _____    ______ ____
ROOT
ATOM      1  C   UNL     1       2.836   7.471  18.291  0.00  0.00    +0.000 C 
ATOM      2  C   UNL     1       2.820   6.128  18.951  0.00  0.00    +0.000 A 
ATOM      3  C   UNL     1       2.074   5.696  20.044  0.00  0.00    +0.000 A 
ATOM      4  C   UNL     1       2.392   4.303  20.254  0.00  0.00    +0.000 A 
ATOM      5  C   UNL     1       3.370   3.961  19.319  0.00  0.00    +0.000 A 
ATOM      6  C   UNL     1       4.143   2.697  19.117  0.00  0.00    +0.000 C 
ATOM      7  N   UNL     1       3.636   5.089  18.551  0.00  0.00    +0.000 N 
ENDROOT
BRANCH   4   8
ATOM      8  C   UNL     1       1.817   3.439  21.295  0.00  0.00    +0.000 C 
ATOM      9  O   UNL     1       2.335   3.255  22.390  0.00  0.00    +0.000 OA
BRANCH   8  10
ATOM     10  O   UNL     1       0.618   2.888  20.984  0.00  0.00    +0.000 OA
ATOM     11  H   UNL     1       0.448   2.102  21.530  0.00  0.00    +0.000 HD
ENDBRANCH   8  10
ENDBRANCH   4   8
BRANCH   3  12
ATOM     12  C   UNL     1       1.082   6.523  20.829  0.00  0.00    +0.000 C 
BRANCH  12  13
ATOM     13  N   UNL     1       1.618   7.821  21.225  0.00  0.00    +0.000 NA
ATOM     14  H   UNL     1       2.020   8.274  20.395  0.00  0.00    +0.000 HD
BRANCH  13  15
ATOM     15  C   UNL     1       0.623   8.718  21.809  0.00  0.00    +0.000 C 
BRANCH  15  16
ATOM     16  C   UNL     1       0.266   9.828  20.855  0.00  0.00    +0.000 A 
ATOM     17  C   UNL     1       0.364   9.870  19.476  0.00  0.00    +0.000 A 
ATOM     18  C   UNL     1      -0.082  11.109  18.931  0.00  0.00    +0.000 A 
ATOM     19  C   UNL     1      -0.498  11.980  19.911  0.00  0.00    +0.000 A 
ATOM     20  S   UNL     1      -0.348  11.308  21.475  0.00  0.00    +0.000 S 
ENDBRANCH  15  16
ENDBRANCH  13  15
ENDBRANCH  12  13
ENDBRANCH   3  12
BRANCH   7  21
ATOM     21  C   UNL     1       4.615   5.144  17.454  0.00  0.00    +0.000 C 
BRANCH  21  22
ATOM     22  C   UNL     1       5.896   5.892  17.756  0.00  0.00    +0.000 A 
ATOM     23  C   UNL     1       6.312   7.045  17.074  0.00  0.00    +0.000 A 
ATOM     24  C   UNL     1       7.496   7.697  17.431  0.00  0.00    +0.000 A 
ATOM     25  C   UNL     1       8.290   7.202  18.463  0.00  0.00    +0.000 A 
ATOM     26  C   UNL     1       7.907   6.045  19.133  0.00  0.00    +0.000 A 
ATOM     27  C   UNL     1       6.724   5.394  18.781  0.00  0.00    +0.000 A 
ENDBRANCH  21  22
ENDBRANCH   7  21
TORSDOF 8
ENDMDL
MODEL 3
REMARK VINA RESULT:      -7.1      1.721      2.310
REMARK  Name = 
REMARK  10 active torsions:
REMARK  status: ('A' for Active; 'I' for Inactive)
REMARK    1  A    between atoms: C_1  and  C_2
REMARK    2  A    between atoms: C_3  and  C_4
REMARK    3  A    between atoms: C_4  and  N_5
REMARK    4  A    between atoms: N_5  and  C_6
REMARK    5  A    between atoms: C_6  and  C_7
REMARK    6  A    between atoms: C_12  and  C_13
REMARK    7  A    between atoms: C_13  and  O_15
REMARK    8  A    between atoms: C_16  and  C_17
REMARK    9  A    between atoms: N_18  and  C_19
REMARK   10  A    between atoms: C_19  and  C_20
REMARK                            x       y       z     vdW  Elec       q    Type
REMARK                         _______ _______ _______ _____ _____    ______ ____
ROOT
ATOM      1  C   UNL     1       2.320   6.465  17.777  0.00  0.00    +0.000 C 
ATOM      2  C   UNL     1       2.414   5.179  18.537  0.00  0.00    +0.000 A 
ATOM      3  C   UNL     1       2.075   4.914  19.860  0.00  0.00    +0.000 A 
ATOM      4  C   UNL     1       2.312   3.508  20.089  0.00  0.00    +0.000 A 
ATOM      5  C   UNL     1       2.850   2.987  18.911  0.00  0.00    +0.000 A 
ATOM      6  C   UNL     1       3.373   1.625  18.583  0.00  0.00    +0.000 C 
ATOM      7  N   UNL     1       2.927   4.022  17.986  0.00  0.00    +0.000 N 
ENDROOT
BRANCH   4   8
ATOM      8  C   UNL     1       2.072   2.792  21.349  0.00  0.00    +0.000 C 
ATOM      9  O   UNL     1       2.964   2.384  22.083  0.00  0.00    +0.000 OA
BRANCH   8  10
ATOM     10  O   UNL     1       0.767   2.654  21.689  0.00  0.00    +0.000 OA
ATOM     11  H   UNL     1       0.566   1.731  21.919  0.00  0.00    +0.000 HD
ENDBRANCH   8  10
ENDBRANCH   4   8
BRANCH   3  12
ATOM     12  C   UNL     1       1.517   5.908  20.853  0.00  0.00    +0.000 C 
BRANCH  12  13
ATOM     13  N   UNL     1       2.075   7.246  20.686  0.00  0.00    +0.000 NA
ATOM     14  H   UNL     1       2.027   7.497  19.691  0.00  0.00    +0.000 HD
BRANCH  13  15
ATOM     15  C   UNL     1       1.383   8.275  21.459  0.00  0.00    +0.000 C 
BRANCH  15  16
ATOM     16  C   UNL     1       0.847   9.359  20.562  0.00  0.00    +0.000 A 
ATOM     17  C   UNL     1       0.962   9.507  19.191  0.00  0.00    +0.000 A 
ATOM     18  C   UNL     1       0.306  10.676  18.707  0.00  0.00    +0.000 A 
ATOM     19  C   UNL     1      -0.284  11.391  19.724  0.00  0.00    +0.000 A 
ATOM     20  S   UNL     1      -0.044  10.658  21.249  0.00  0.00    +0.000 S 
ENDBRANCH  15  16
ENDBRANCH  13  15
ENDBRANCH  12  13
ENDBRANCH   3  12
BRANCH   7  21
ATOM     21  C   UNL     1       3.445   3.883  16.616  0.00  0.00    +0.000 C 
BRANCH  21  22
ATOM     22  C   UNL     1       4.906   4.235  16.429  0.00  0.00    +0.000 A 
ATOM     23  C   UNL     1       5.807   4.435  17.485  0.00  0.00    +0.000 A 
ATOM     24  C   UNL     1       7.150   4.729  17.231  0.00  0.00    +0.000 A 
ATOM     25  C   UNL     1       7.612   4.842  15.922  0.00  0.00    +0.000 A 
ATOM     26  C   UNL     1       6.728   4.672  14.862  0.00  0.00    +0.000 A 
ATOM     27  C   UNL     1       5.386   4.375  15.113  0.00  0.00    +0.000 A 
ENDBRANCH  21  22
ENDBRANCH   7  21
TORSDOF 8
ENDMDL
MODEL 4
REMARK VINA RESULT:      -7.1      3.369      6.184
REMARK  Name = 
REMARK  10 active torsions:
REMARK  status: ('A' for Active; 'I' for Inactive)
REMARK    1  A    between atoms: C_1  and  C_2
REMARK    2  A    between atoms: C_3  and  C_4
REMARK    3  A    between atoms: C_4  and  N_5
REMARK    4  A    between atoms: N_5  and  C_6
REMARK    5  A    between atoms: C_6  and  C_7
REMARK    6  A    between atoms: C_12  and  C_13
REMARK    7  A    between atoms: C_13  and  O_15
REMARK    8  A    between atoms: C_16  and  C_17
REMARK    9  A    between atoms: N_18  and  C_19
REMARK   10  A    between atoms: C_19  and  C_20
REMARK                            x       y       z     vdW  Elec       q    Type
REMARK                         _______ _______ _______ _____ _____    ______ ____
ROOT
ATOM      1  C   UNL     1       2.196   4.909  17.487  0.00  0.00    +0.000 C 
ATOM      2  C   UNL     1       3.647   5.269  17.556  0.00  0.00    +0.000 A 
ATOM      3  C   UNL     1       4.741   4.458  17.843  0.00  0.00    +0.000 A 
ATOM      4  C   UNL     1       5.923   5.280  17.734  0.00  0.00    +0.000 A 
ATOM      5  C   UNL     1       5.495   6.577  17.449  0.00  0.00    +0.000 A 
ATOM      6  C   UNL     1       6.252   7.860  17.318  0.00  0.00    +0.000 C 
ATOM      7  N   UNL     1       4.107   6.557  17.368  0.00  0.00    +0.000 N 
ENDROOT
BRANCH   4   8
ATOM      8  C   UNL     1       7.306   4.825  17.940  0.00  0.00    +0.000 C 
ATOM      9  O   UNL     1       7.850   4.771  19.036  0.00  0.00    +0.000 OA
BRANCH   8  10
ATOM     10  O   UNL     1       7.942   4.405  16.819  0.00  0.00    +0.000 OA
ATOM     11  H   UNL     1       7.433   3.707  16.375  0.00  0.00    +0.000 HD
ENDBRANCH   8  10
ENDBRANCH   4   8
BRANCH   3  12
ATOM     12  C   UNL     1       4.695   2.981  18.161  0.00  0.00    +0.000 C 
BRANCH  12  13
ATOM     13  N   UNL     1       5.255   2.668  19.472  0.00  0.00    +0.000 NA
ATOM     14  H   UNL     1       5.554   3.545  19.917  0.00  0.00    +0.000 HD
BRANCH  13  15
ATOM     15  C   UNL     1       4.321   1.987  20.366  0.00  0.00    +0.000 C 
BRANCH  15  16
ATOM     16  C   UNL     1       2.996   2.702  20.413  0.00  0.00    +0.000 A 
ATOM     17  C   UNL     1       2.661   3.899  21.021  0.00  0.00    +0.000 A 
ATOM     18  C   UNL     1       1.292   4.246  20.834  0.00  0.00    +0.000 A 
ATOM     19  C   UNL     1       0.619   3.299  20.097  0.00  0.00    +0.000 A 
ATOM     20  S   UNL     1       1.632   2.002  19.638  0.00  0.00    +0.000 S 
ENDBRANCH  15  16
ENDBRANCH  13  15
ENDBRANCH  12  13
ENDBRANCH   3  12
BRANCH   7  21
ATOM     21  C   UNL     1       3.268   7.732  17.085  0.00  0.00    +0.000 C 
BRANCH  21  22
ATOM     22  C   UNL     1       2.420   8.225  18.239  0.00  0.00    +0.000 A 
ATOM     23  C   UNL     1       2.342   7.585  19.486  0.00  0.00    +0.000 A 
ATOM     24  C   UNL     1       1.558   8.118  20.513  0.00  0.00    +0.000 A 
ATOM     25  C   UNL     1       0.829   9.288  20.309  0.00  0.00    +0.000 A 
ATOM     26  C   UNL     1       0.874   9.921  19.072  0.00  0.00    +0.000 A 
ATOM     27  C   UNL     1       1.659   9.393  18.045  0.00  0.00    +0.000 A 
ENDBRANCH  21  22
ENDBRANCH   7  21
TORSDOF 8
ENDMDL
MODEL 5
REMARK VINA RESULT:      -7.1      0.658      1.431
REMARK  Name = 
REMARK  10 active torsions:
REMARK  status: ('A' for Active; 'I' for Inactive)
REMARK    1  A    between atoms: C_1  and  C_2
REMARK    2  A    between atoms: C_3  and  C_4
REMARK    3  A    between atoms: C_4  and  N_5
REMARK    4  A    between atoms: N_5  and  C_6
REMARK    5  A    between atoms: C_6  and  C_7
REMARK    6  A    between atoms: C_12  and  C_13
REMARK    7  A    between atoms: C_13  and  O_15
REMARK    8  A    between atoms: C_16  and  C_17
REMARK    9  A    between atoms: N_18  and  C_19
REMARK   10  A    between atoms: C_19  and  C_20
REMARK                            x       y       z     vdW  Elec       q    Type
REMARK                         _______ _______ _______ _____ _____    ______ ____
ROOT
ATOM      1  C   UNL     1       2.880   7.380  18.206  0.00  0.00    +0.000 C 
ATOM      2  C   UNL     1       2.856   6.059  18.908  0.00  0.00    +0.000 A 
ATOM      3  C   UNL     1       2.060   5.644  19.971  0.00  0.00    +0.000 A 
ATOM      4  C   UNL     1       2.395   4.266  20.243  0.00  0.00    +0.000 A 
ATOM      5  C   UNL     1       3.432   3.918  19.376  0.00  0.00    +0.000 A 
ATOM      6  C   UNL     1       4.242   2.666  19.259  0.00  0.00    +0.000 C 
ATOM      7  N   UNL     1       3.715   5.027  18.588  0.00  0.00    +0.000 N 
ENDROOT
BRANCH   4   8
ATOM      8  C   UNL     1       1.782   3.423  21.280  0.00  0.00    +0.000 C 
ATOM      9  O   UNL     1       0.741   2.796  21.121  0.00  0.00    +0.000 OA
BRANCH   8  10
ATOM     10  O   UNL     1       2.486   3.333  22.435  0.00  0.00    +0.000 OA
ATOM     11  H   UNL     1       2.169   3.985  23.082  0.00  0.00    +0.000 HD
ENDBRANCH   8  10
ENDBRANCH   4   8
BRANCH   3  12
ATOM     12  C   UNL     1       1.008   6.472  20.672  0.00  0.00    +0.000 C 
BRANCH  12  13
ATOM     13  N   UNL     1       1.540   7.717  21.217  0.00  0.00    +0.000 NA
ATOM     14  H   UNL     1       2.565   7.658  21.221  0.00  0.00    +0.000 HD
BRANCH  13  15
ATOM     15  C   UNL     1       1.144   8.907  20.466  0.00  0.00    +0.000 C 
BRANCH  15  16
ATOM     16  C   UNL     1       0.364   9.860  21.333  0.00  0.00    +0.000 A 
ATOM     17  C   UNL     1       0.131  11.214  21.167  0.00  0.00    +0.000 A 
ATOM     18  C   UNL     1      -0.666  11.767  22.211  0.00  0.00    +0.000 A 
ATOM     19  C   UNL     1      -1.011  10.821  23.148  0.00  0.00    +0.000 A 
ATOM     20  S   UNL     1      -0.375   9.280  22.772  0.00  0.00    +0.000 S 
ENDBRANCH  15  16
ENDBRANCH  13  15
ENDBRANCH  12  13
ENDBRANCH   3  12
BRANCH   7  21
ATOM     21  C   UNL     1       4.753   5.070  17.545  0.00  0.00    +0.000 C 
BRANCH  21  22
ATOM     22  C   UNL     1       6.004   5.846  17.898  0.00  0.00    +0.000 A 
ATOM     23  C   UNL     1       6.882   5.494  18.934  0.00  0.00    +0.000 A 
ATOM     24  C   UNL     1       8.034   6.246  19.180  0.00  0.00    +0.000 A 
ATOM     25  C   UNL     1       8.322   7.369  18.407  0.00  0.00    +0.000 A 
ATOM     26  C   UNL     1       7.450   7.749  17.392  0.00  0.00    +0.000 A 
ATOM     27  C   UNL     1       6.300   6.997  17.142  0.00  0.00    +0.000 A 
ENDBRANCH  21  22
ENDBRANCH   7  21
TORSDOF 8
ENDMDL
MODEL 6
REMARK VINA RESULT:      -7.0      3.398      6.074
REMARK  Name = 
REMARK  10 active torsions:
REMARK  status: ('A' for Active; 'I' for Inactive)
REMARK    1  A    between atoms: C_1  and  C_2
REMARK    2  A    between atoms: C_3  and  C_4
REMARK    3  A    between atoms: C_4  and  N_5
REMARK    4  A    between atoms: N_5  and  C_6
REMARK    5  A    between atoms: C_6  and  C_7
REMARK    6  A    between atoms: C_12  and  C_13
REMARK    7  A    between atoms: C_13  and  O_15
REMARK    8  A    between atoms: C_16  and  C_17
REMARK    9  A    between atoms: N_18  and  C_19
REMARK   10  A    between atoms: C_19  and  C_20
REMARK                            x       y       z     vdW  Elec       q    Type
REMARK                         _______ _______ _______ _____ _____    ______ ____
ROOT
ATOM      1  C   UNL     1       2.341   4.802  17.395  0.00  0.00    +0.000 C 
ATOM      2  C   UNL     1       3.783   5.184  17.518  0.00  0.00    +0.000 A 
ATOM      3  C   UNL     1       4.872   4.397  17.881  0.00  0.00    +0.000 A 
ATOM      4  C   UNL     1       6.048   5.232  17.800  0.00  0.00    +0.000 A 
ATOM      5  C   UNL     1       5.617   6.513  17.454  0.00  0.00    +0.000 A 
ATOM      6  C   UNL     1       6.364   7.802  17.317  0.00  0.00    +0.000 C 
ATOM      7  N   UNL     1       4.235   6.472  17.311  0.00  0.00    +0.000 N 
ENDROOT
BRANCH   4   8
ATOM      8  C   UNL     1       7.425   4.802  18.083  0.00  0.00    +0.000 C 
ATOM      9  O   UNL     1       8.136   4.216  17.276  0.00  0.00    +0.000 OA
BRANCH   8  10
ATOM     10  O   UNL     1       7.894   5.154  19.305  0.00  0.00    +0.000 OA
ATOM     11  H   UNL     1       7.490   5.987  19.602  0.00  0.00    +0.000 HD
ENDBRANCH   8  10
ENDBRANCH   4   8
BRANCH   3  12
ATOM     12  C   UNL     1       4.830   2.930  18.243  0.00  0.00    +0.000 C 
BRANCH  12  13
ATOM     13  N   UNL     1       5.208   2.680  19.630  0.00  0.00    +0.000 NA
ATOM     14  H   UNL     1       5.381   3.583  20.088  0.00  0.00    +0.000 HD
BRANCH  13  15
ATOM     15  C   UNL     1       4.197   1.955  20.396  0.00  0.00    +0.000 C 
BRANCH  15  16
ATOM     16  C   UNL     1       2.885   2.695  20.401  0.00  0.00    +0.000 A 
ATOM     17  C   UNL     1       2.554   3.898  20.999  0.00  0.00    +0.000 A 
ATOM     18  C   UNL     1       1.198   4.271  20.768  0.00  0.00    +0.000 A 
ATOM     19  C   UNL     1       0.531   3.338  20.008  0.00  0.00    +0.000 A 
ATOM     20  S   UNL     1       1.534   2.022  19.580  0.00  0.00    +0.000 S 
ENDBRANCH  15  16
ENDBRANCH  13  15
ENDBRANCH  12  13
ENDBRANCH   3  12
BRANCH   7  21
ATOM     21  C   UNL     1       3.396   7.626  16.953  0.00  0.00    +0.000 C 
BRANCH  21  22
ATOM     22  C   UNL     1       2.550   8.194  18.073  0.00  0.00    +0.000 A 
ATOM     23  C   UNL     1       1.809   9.381  17.974  0.00  0.00    +0.000 A 
ATOM     24  C   UNL     1       1.027   9.826  19.045  0.00  0.00    +0.000 A 
ATOM     25  C   UNL     1       0.984   9.103  20.234  0.00  0.00    +0.000 A 
ATOM     26  C   UNL     1       1.733   7.937  20.360  0.00  0.00    +0.000 A 
ATOM     27  C   UNL     1       2.512   7.489  19.291  0.00  0.00    +0.000 A 
ENDBRANCH  21  22
ENDBRANCH   7  21
TORSDOF 8
ENDMDL
MODEL 7
REMARK VINA RESULT:      -6.8      0.712      1.124
REMARK  Name = 
REMARK  10 active torsions:
REMARK  status: ('A' for Active; 'I' for Inactive)
REMARK    1  A    between atoms: C_1  and  C_2
REMARK    2  A    between atoms: C_3  and  C_4
REMARK    3  A    between atoms: C_4  and  N_5
REMARK    4  A    between atoms: N_5  and  C_6
REMARK    5  A    between atoms: C_6  and  C_7
REMARK    6  A    between atoms: C_12  and  C_13
REMARK    7  A    between atoms: C_13  and  O_15
REMARK    8  A    between atoms: C_16  and  C_17
REMARK    9  A    between atoms: N_18  and  C_19
REMARK   10  A    between atoms: C_19  and  C_20
REMARK                            x       y       z     vdW  Elec       q    Type
REMARK                         _______ _______ _______ _____ _____    ______ ____
ROOT
ATOM      1  C   UNL     1       2.916   7.429  18.258  0.00  0.00    +0.000 C 
ATOM      2  C   UNL     1       2.871   6.095  18.934  0.00  0.00    +0.000 A 
ATOM      3  C   UNL     1       2.099   5.685  20.017  0.00  0.00    +0.000 A 
ATOM      4  C   UNL     1       2.395   4.291  20.249  0.00  0.00    +0.000 A 
ATOM      5  C   UNL     1       3.387   3.926  19.338  0.00  0.00    +0.000 A 
ATOM      6  C   UNL     1       4.149   2.650  19.166  0.00  0.00    +0.000 C 
ATOM      7  N   UNL     1       3.681   5.041  18.562  0.00  0.00    +0.000 N 
ENDROOT
BRANCH   4   8
ATOM      8  C   UNL     1       1.790   3.447  21.290  0.00  0.00    +0.000 C 
ATOM      9  O   UNL     1       0.752   2.815  21.137  0.00  0.00    +0.000 OA
BRANCH   8  10
ATOM     10  O   UNL     1       2.499   3.365  22.442  0.00  0.00    +0.000 OA
ATOM     11  H   UNL     1       3.453   3.426  22.265  0.00  0.00    +0.000 HD
ENDBRANCH   8  10
ENDBRANCH   4   8
BRANCH   3  12
ATOM     12  C   UNL     1       1.102   6.533  20.772  0.00  0.00    +0.000 C 
BRANCH  12  13
ATOM     13  N   UNL     1       1.379   7.962  20.662  0.00  0.00    +0.000 NA
ATOM     14  H   UNL     1       0.651   8.391  20.078  0.00  0.00    +0.000 HD
BRANCH  13  15
ATOM     15  C   UNL     1       1.416   8.657  21.946  0.00  0.00    +0.000 C 
BRANCH  15  16
ATOM     16  C   UNL     1       0.578   9.909  21.909  0.00  0.00    +0.000 A 
ATOM     17  C   UNL     1       0.662  11.001  21.063  0.00  0.00    +0.000 A 
ATOM     18  C   UNL     1      -0.322  11.993  21.347  0.00  0.00    +0.000 A 
ATOM     19  C   UNL     1      -1.121  11.633  22.408  0.00  0.00    +0.000 A 
ATOM     20  S   UNL     1      -0.685  10.113  23.056  0.00  0.00    +0.000 S 
ENDBRANCH  15  16
ENDBRANCH  13  15
ENDBRANCH  12  13
ENDBRANCH   3  12
BRANCH   7  21
ATOM     21  C   UNL     1       4.682   5.070  17.484  0.00  0.00    +0.000 C 
BRANCH  21  22
ATOM     22  C   UNL     1       5.944   5.853  17.781  0.00  0.00    +0.000 A 
ATOM     23  C   UNL     1       6.338   7.004  17.082  0.00  0.00    +0.000 A 
ATOM     24  C   UNL     1       7.504   7.689  17.435  0.00  0.00    +0.000 A 
ATOM     25  C   UNL     1       8.302   7.230  18.481  0.00  0.00    +0.000 A 
ATOM     26  C   UNL     1       7.941   6.077  19.169  0.00  0.00    +0.000 A 
ATOM     27  C   UNL     1       6.775   5.392  18.820  0.00  0.00    +0.000 A 
ENDBRANCH  21  22
ENDBRANCH   7  21
TORSDOF 8
ENDMDL
MODEL 8
REMARK VINA RESULT:      -6.8      1.401      2.062
REMARK  Name = 
REMARK  10 active torsions:
REMARK  status: ('A' for Active; 'I' for Inactive)
REMARK    1  A    between atoms: C_1  and  C_2
REMARK    2  A    between atoms: C_3  and  C_4
REMARK    3  A    between atoms: C_4  and  N_5
REMARK    4  A    between atoms: N_5  and  C_6
REMARK    5  A    between atoms: C_6  and  C_7
REMARK    6  A    between atoms: C_12  and  C_13
REMARK    7  A    between atoms: C_13  and  O_15
REMARK    8  A    between atoms: C_16  and  C_17
REMARK    9  A    between atoms: N_18  and  C_19
REMARK   10  A    between atoms: C_19  and  C_20
REMARK                            x       y       z     vdW  Elec       q    Type
REMARK                         _______ _______ _______ _____ _____    ______ ____
ROOT
ATOM      1  C   UNL     1       4.233   6.873  18.284  0.00  0.00    +0.000 C 
ATOM      2  C   UNL     1       3.790   5.641  19.008  0.00  0.00    +0.000 A 
ATOM      3  C   UNL     1       2.601   5.404  19.692  0.00  0.00    +0.000 A 
ATOM      4  C   UNL     1       2.646   4.042  20.170  0.00  0.00    +0.000 A 
ATOM      5  C   UNL     1       3.893   3.525  19.814  0.00  0.00    +0.000 A 
ATOM      6  C   UNL     1       4.538   2.210  20.116  0.00  0.00    +0.000 C 
ATOM      7  N   UNL     1       4.584   4.518  19.129  0.00  0.00    +0.000 N 
ENDROOT
BRANCH   4   8
ATOM      8  C   UNL     1       1.587   3.365  20.932  0.00  0.00    +0.000 C 
ATOM      9  O   UNL     1       1.713   2.993  22.092  0.00  0.00    +0.000 OA
BRANCH   8  10
ATOM     10  O   UNL     1       0.411   3.223  20.273  0.00  0.00    +0.000 OA
ATOM     11  H   UNL     1       0.546   3.274  19.312  0.00  0.00    +0.000 HD
ENDBRANCH   8  10
ENDBRANCH   4   8
BRANCH   3  12
ATOM     12  C   UNL     1       1.459   6.380  19.857  0.00  0.00    +0.000 C 
BRANCH  12  13
ATOM     13  N   UNL     1       1.578   7.189  21.066  0.00  0.00    +0.000 NA
ATOM     14  H   UNL     1       2.389   6.857  21.601  0.00  0.00    +0.000 HD
BRANCH  13  15
ATOM     15  C   UNL     1       1.742   8.618  20.808  0.00  0.00    +0.000 C 
BRANCH  15  16
ATOM     16  C   UNL     1       0.692   9.424  21.527  0.00  0.00    +0.000 A 
ATOM     17  C   UNL     1       0.232   9.311  22.827  0.00  0.00    +0.000 A 
ATOM     18  C   UNL     1      -0.775  10.271  23.138  0.00  0.00    +0.000 A 
ATOM     19  C   UNL     1      -1.060  11.082  22.064  0.00  0.00    +0.000 A 
ATOM     20  S   UNL     1      -0.121  10.686  20.692  0.00  0.00    +0.000 S 
ENDBRANCH  15  16
ENDBRANCH  13  15
ENDBRANCH  12  13
ENDBRANCH   3  12
BRANCH   7  21
ATOM     21  C   UNL     1       5.943   4.369  18.586  0.00  0.00    +0.000 C 
BRANCH  21  22
ATOM     22  C   UNL     1       6.055   4.419  17.077  0.00  0.00    +0.000 A 
ATOM     23  C   UNL     1       7.151   4.961  16.388  0.00  0.00    +0.000 A 
ATOM     24  C   UNL     1       7.195   4.944  14.991  0.00  0.00    +0.000 A 
ATOM     25  C   UNL     1       6.141   4.402  14.259  0.00  0.00    +0.000 A 
ATOM     26  C   UNL     1       5.034   3.884  14.924  0.00  0.00    +0.000 A 
ATOM     27  C   UNL     1       4.990   3.896  16.320  0.00  0.00    +0.000 A 
ENDBRANCH  21  22
ENDBRANCH   7  21
TORSDOF 8
ENDMDL
MODEL 9
REMARK VINA RESULT:      -6.8      1.775      2.474
REMARK  Name = 
REMARK  10 active torsions:
REMARK  status: ('A' for Active; 'I' for Inactive)
REMARK    1  A    between atoms: C_1  and  C_2
REMARK    2  A    between atoms: C_3  and  C_4
REMARK    3  A    between atoms: C_4  and  N_5
REMARK    4  A    between atoms: N_5  and  C_6
REMARK    5  A    between atoms: C_6  and  C_7
REMARK    6  A    between atoms: C_12  and  C_13
REMARK    7  A    between atoms: C_13  and  O_15
REMARK    8  A    between atoms: C_16  and  C_17
REMARK    9  A    between atoms: N_18  and  C_19
REMARK   10  A    between atoms: C_19  and  C_20
REMARK                            x       y       z     vdW  Elec       q    Type
REMARK                         _______ _______ _______ _____ _____    ______ ____
ROOT
ATOM      1  C   UNL     1       4.756   7.132  17.456  0.00  0.00    +0.000 C 
ATOM      2  C   UNL     1       4.204   6.034  18.310  0.00  0.00    +0.000 A 
ATOM      3  C   UNL     1       3.028   6.009  19.056  0.00  0.00    +0.000 A 
ATOM      4  C   UNL     1       2.934   4.701  19.660  0.00  0.00    +0.000 A 
ATOM      5  C   UNL     1       4.092   4.004  19.311  0.00  0.00    +0.000 A 
ATOM      6  C   UNL     1       4.590   2.653  19.714  0.00  0.00    +0.000 C 
ATOM      7  N   UNL     1       4.863   4.838  18.510  0.00  0.00    +0.000 N 
ENDROOT
BRANCH   4   8
ATOM      8  C   UNL     1       1.839   4.231  20.521  0.00  0.00    +0.000 C 
ATOM      9  O   UNL     1       0.703   4.011  20.120  0.00  0.00    +0.000 OA
BRANCH   8  10
ATOM     10  O   UNL     1       2.186   3.996  21.810  0.00  0.00    +0.000 OA
ATOM     11  H   UNL     1       2.225   4.827  22.313  0.00  0.00    +0.000 HD
ENDBRANCH   8  10
ENDBRANCH   4   8
BRANCH   3  12
ATOM     12  C   UNL     1       2.020   7.129  19.167  0.00  0.00    +0.000 C 
BRANCH  12  13
ATOM     13  N   UNL     1       2.100   7.836  20.441  0.00  0.00    +0.000 NA
ATOM     14  H   UNL     1       2.222   8.839  20.250  0.00  0.00    +0.000 HD
BRANCH  13  15
ATOM     15  C   UNL     1       0.922   7.664  21.288  0.00  0.00    +0.000 C 
BRANCH  15  16
ATOM     16  C   UNL     1       0.354   8.996  21.705  0.00  0.00    +0.000 A 
ATOM     17  C   UNL     1      -0.421   9.318  22.804  0.00  0.00    +0.000 A 
ATOM     18  C   UNL     1      -0.759  10.701  22.852  0.00  0.00    +0.000 A 
ATOM     19  C   UNL     1      -0.240  11.393  21.783  0.00  0.00    +0.000 A 
ATOM     20  S   UNL     1       0.646  10.380  20.730  0.00  0.00    +0.000 S 
ENDBRANCH  15  16
ENDBRANCH  13  15
ENDBRANCH  12  13
ENDBRANCH   3  12
BRANCH   7  21
ATOM     21  C   UNL     1       6.168   4.474  17.935  0.00  0.00    +0.000 C 
BRANCH  21  22
ATOM     22  C   UNL     1       6.219   4.393  16.424  0.00  0.00    +0.000 A 
ATOM     23  C   UNL     1       5.229   3.785  15.636  0.00  0.00    +0.000 A 
ATOM     24  C   UNL     1       5.334   3.775  14.242  0.00  0.00    +0.000 A 
ATOM     25  C   UNL     1       6.431   4.358  13.613  0.00  0.00    +0.000 A 
ATOM     26  C   UNL     1       7.434   4.943  14.379  0.00  0.00    +0.000 A 
ATOM     27  C   UNL     1       7.331   4.957  15.771  0.00  0.00    +0.000 A 
ENDBRANCH  21  22
ENDBRANCH   7  21
TORSDOF 8
ENDMDL
