MODEL 1
REMARK VINA RESULT:      -6.3      0.000      0.000
REMARK  Name = 
REMARK  4 active torsions:
REMARK  status: ('A' for Active; 'I' for Inactive)
REMARK    1  A    between atoms: C_1  and  O_2
REMARK    2  A    between atoms: O_2  and  C_3
REMARK    3  A    between atoms: C_9  and  C_10
REMARK    4  A    between atoms: C_10  and  C_12
REMARK                            x       y       z     vdW  Elec       q    Type
REMARK                         _______ _______ _______ _____ _____    ______ ____
ROOT
ATOM      1  C   UNL     1       2.893   4.560  19.151  0.00  0.00    +0.000 A 
ATOM      2  C   UNL     1       2.533   3.863  17.999  0.00  0.00    +0.000 A 
ATOM      3  C   UNL     1       3.477   3.557  17.014  0.00  0.00    +0.000 A 
ATOM      4  C   UNL     1       4.792   3.985  17.216  0.00  0.00    +0.000 A 
ATOM      5  N   UNL     1       5.899   3.826  16.419  0.00  0.00    +0.000 N 
ATOM      6  C   UNL     1       6.981   4.438  16.986  0.00  0.00    +0.000 A 
ATOM      7  C   UNL     1       6.592   4.990  18.195  0.00  0.00    +0.000 A 
ATOM      8  C   UNL     1       5.194   4.697  18.347  0.00  0.00    +0.000 A 
ATOM      9  C   UNL     1       4.217   4.990  19.326  0.00  0.00    +0.000 A 
ATOM     10  H   UNL     1       5.902   3.330  15.538  0.00  0.00    +0.000 HD
ENDROOT
BRANCH   1  12
ATOM     11  C   UNL     1       0.942   4.020  20.377  0.00  0.00    +0.000 C 
ATOM     12  O   UNL     1       2.029   4.912  20.154  0.00  0.00    +0.000 OA
ENDBRANCH   1  12
BRANCH   7  13
ATOM     13  C   UNL     1       7.458   5.735  19.114  0.00  0.00    +0.000 C 
ATOM     14  O   UNL     1       7.588   5.393  20.292  0.00  0.00    +0.000 OA
BRANCH  13  15
ATOM     15  C   UNL     1       8.161   6.971  18.595  0.00  0.00    +0.000 C 
ATOM     16 CL   UNL     1       7.160   7.792  17.385  0.00  0.00    +0.000 Cl
ENDBRANCH  13  15
ENDBRANCH   7  13
TORSDOF 3
ENDMDL
MODEL 2
REMARK VINA RESULT:      -6.3      2.660      3.109
REMARK  Name = 
REMARK  4 active torsions:
REMARK  status: ('A' for Active; 'I' for Inactive)
REMARK    1  A    between atoms: C_1  and  O_2
REMARK    2  A    between atoms: O_2  and  C_3
REMARK    3  A    between atoms: C_9  and  C_10
REMARK    4  A    between atoms: C_10  and  C_12
REMARK                            x       y       z     vdW  Elec       q    Type
REMARK                         _______ _______ _______ _____ _____    ______ ____
ROOT
ATOM      1  C   UNL     1       2.758   3.551  17.708  0.00  0.00    +0.000 A 
ATOM      2  C   UNL     1       2.047   4.652  18.184  0.00  0.00    +0.000 A 
ATOM      3  C   UNL     1       2.581   5.942  18.114  0.00  0.00    +0.000 A 
ATOM      4  C   UNL     1       3.857   6.091  17.562  0.00  0.00    +0.000 A 
ATOM      5  N   UNL     1       4.607   7.227  17.381  0.00  0.00    +0.000 N 
ATOM      6  C   UNL     1       5.820   6.910  16.837  0.00  0.00    +0.000 A 
ATOM      7  C   UNL     1       5.865   5.542  16.629  0.00  0.00    +0.000 A 
ATOM      8  C   UNL     1       4.609   5.017  17.087  0.00  0.00    +0.000 A 
ATOM      9  C   UNL     1       4.042   3.724  17.171  0.00  0.00    +0.000 A 
ATOM     10  H   UNL     1       4.299   8.160  17.623  0.00  0.00    +0.000 HD
ENDROOT
BRANCH   1  12
ATOM     11  C   UNL     1       1.529   1.908  18.889  0.00  0.00    +0.000 C 
ATOM     12  O   UNL     1       2.315   2.255  17.753  0.00  0.00    +0.000 OA
ENDBRANCH   1  12
BRANCH   7  13
ATOM     13  C   UNL     1       6.995   4.800  16.062  0.00  0.00    +0.000 C 
ATOM     14  O   UNL     1       7.860   4.298  16.785  0.00  0.00    +0.000 OA
BRANCH  13  15
ATOM     15  C   UNL     1       7.106   4.698  14.556  0.00  0.00    +0.000 C 
ATOM     16 CL   UNL     1       5.567   4.170  13.855  0.00  0.00    +0.000 Cl
ENDBRANCH  13  15
ENDBRANCH   7  13
TORSDOF 3
ENDMDL
MODEL 3
REMARK VINA RESULT:      -6.3      3.251      4.944
REMARK  Name = 
REMARK  4 active torsions:
REMARK  status: ('A' for Active; 'I' for Inactive)
REMARK    1  A    between atoms: C_1  and  O_2
REMARK    2  A    between atoms: O_2  and  C_3
REMARK    3  A    between atoms: C_9  and  C_10
REMARK    4  A    between atoms: C_10  and  C_12
REMARK                            x       y       z     vdW  Elec       q    Type
REMARK                         _______ _______ _______ _____ _____    ______ ____
ROOT
ATOM      1  C   UNL     1       3.563   6.681  17.634  0.00  0.00    +0.000 A 
ATOM      2  C   UNL     1       4.799   6.329  17.093  0.00  0.00    +0.000 A 
ATOM      3  C   UNL     1       5.187   4.990  16.992  0.00  0.00    +0.000 A 
ATOM      4  C   UNL     1       4.302   4.016  17.461  0.00  0.00    +0.000 A 
ATOM      5  N   UNL     1       4.434   2.649  17.487  0.00  0.00    +0.000 N 
ATOM      6  C   UNL     1       3.338   2.080  18.072  0.00  0.00    +0.000 A 
ATOM      7  C   UNL     1       2.450   3.086  18.417  0.00  0.00    +0.000 A 
ATOM      8  C   UNL     1       3.062   4.324  18.023  0.00  0.00    +0.000 A 
ATOM      9  C   UNL     1       2.696   5.686  18.111  0.00  0.00    +0.000 A 
ATOM     10  H   UNL     1       5.233   2.146  17.127  0.00  0.00    +0.000 HD
ENDROOT
BRANCH   1  12
ATOM     11  C   UNL     1       2.096   8.158  18.762  0.00  0.00    +0.000 C 
ATOM     12  O   UNL     1       3.113   7.967  17.784  0.00  0.00    +0.000 OA
ENDBRANCH   1  12
BRANCH   7  13
ATOM     13  C   UNL     1       1.152   2.894  19.069  0.00  0.00    +0.000 C 
ATOM     14  O   UNL     1       0.241   2.273  18.515  0.00  0.00    +0.000 OA
BRANCH  13  15
ATOM     15  C   UNL     1       0.932   3.518  20.431  0.00  0.00    +0.000 C 
ATOM     16 CL   UNL     1       2.077   2.854  21.609  0.00  0.00    +0.000 Cl
ENDBRANCH  13  15
ENDBRANCH   7  13
TORSDOF 3
ENDMDL
MODEL 4
REMARK VINA RESULT:      -6.2      3.272      5.479
REMARK  Name = 
REMARK  4 active torsions:
REMARK  status: ('A' for Active; 'I' for Inactive)
REMARK    1  A    between atoms: C_1  and  O_2
REMARK    2  A    between atoms: O_2  and  C_3
REMARK    3  A    between atoms: C_9  and  C_10
REMARK    4  A    between atoms: C_10  and  C_12
REMARK                            x       y       z     vdW  Elec       q    Type
REMARK                         _______ _______ _______ _____ _____    ______ ____
ROOT
ATOM      1  C   UNL     1       6.191   4.609  15.187  0.00  0.00    +0.000 A 
ATOM      2  C   UNL     1       7.322   4.873  15.959  0.00  0.00    +0.000 A 
ATOM      3  C   UNL     1       7.310   4.688  17.344  0.00  0.00    +0.000 A 
ATOM      4  C   UNL     1       6.123   4.243  17.933  0.00  0.00    +0.000 A 
ATOM      5  N   UNL     1       5.840   3.988  19.252  0.00  0.00    +0.000 N 
ATOM      6  C   UNL     1       4.536   3.604  19.390  0.00  0.00    +0.000 A 
ATOM      7  C   UNL     1       3.950   3.577  18.135  0.00  0.00    +0.000 A 
ATOM      8  C   UNL     1       4.964   3.980  17.201  0.00  0.00    +0.000 A 
ATOM      9  C   UNL     1       5.007   4.175  15.802  0.00  0.00    +0.000 A 
ATOM     10  H   UNL     1       6.506   4.079  20.008  0.00  0.00    +0.000 HD
ENDROOT
BRANCH   1  12
ATOM     11  C   UNL     1       6.175   3.587  13.052  0.00  0.00    +0.000 C 
ATOM     12  O   UNL     1       6.114   4.778  13.829  0.00  0.00    +0.000 OA
ENDBRANCH   1  12
BRANCH   7  13
ATOM     13  C   UNL     1       2.558   3.217  17.848  0.00  0.00    +0.000 C 
ATOM     14  O   UNL     1       2.276   2.178  17.245  0.00  0.00    +0.000 OA
BRANCH  13  15
ATOM     15  C   UNL     1       1.466   4.176  18.270  0.00  0.00    +0.000 C 
ATOM     16 CL   UNL     1       0.897   3.788  19.903  0.00  0.00    +0.000 Cl
ENDBRANCH  13  15
ENDBRANCH   7  13
TORSDOF 3
ENDMDL
MODEL 5
REMARK VINA RESULT:      -6.2      2.709      3.227
REMARK  Name = 
REMARK  4 active torsions:
REMARK  status: ('A' for Active; 'I' for Inactive)
REMARK    1  A    between atoms: C_1  and  O_2
REMARK    2  A    between atoms: O_2  and  C_3
REMARK    3  A    between atoms: C_9  and  C_10
REMARK    4  A    between atoms: C_10  and  C_12
REMARK                            x       y       z     vdW  Elec       q    Type
REMARK                         _______ _______ _______ _____ _____    ______ ____
ROOT
ATOM      1  C   UNL     1       2.732   3.494  18.151  0.00  0.00    +0.000 A 
ATOM      2  C   UNL     1       3.287   3.092  19.365  0.00  0.00    +0.000 A 
ATOM      3  C   UNL     1       4.631   3.337  19.661  0.00  0.00    +0.000 A 
ATOM      4  C   UNL     1       5.404   3.986  18.695  0.00  0.00    +0.000 A 
ATOM      5  N   UNL     1       6.731   4.340  18.724  0.00  0.00    +0.000 N 
ATOM      6  C   UNL     1       7.089   4.927  17.543  0.00  0.00    +0.000 A 
ATOM      7  C   UNL     1       5.973   4.990  16.725  0.00  0.00    +0.000 A 
ATOM      8  C   UNL     1       4.893   4.394  17.461  0.00  0.00    +0.000 A 
ATOM      9  C   UNL     1       3.531   4.133  17.191  0.00  0.00    +0.000 A 
ATOM     10  H   UNL     1       7.347   4.179  19.509  0.00  0.00    +0.000 HD
ENDROOT
BRANCH   1  12
ATOM     11  C   UNL     1       0.665   2.450  18.645  0.00  0.00    +0.000 C 
ATOM     12  O   UNL     1       1.430   3.280  17.777  0.00  0.00    +0.000 OA
ENDBRANCH   1  12
BRANCH   7  13
ATOM     13  C   UNL     1       5.936   5.549  15.371  0.00  0.00    +0.000 C 
ATOM     14  O   UNL     1       5.246   6.536  15.104  0.00  0.00    +0.000 OA
BRANCH  13  15
ATOM     15  C   UNL     1       6.732   4.857  14.285  0.00  0.00    +0.000 C 
ATOM     16 CL   UNL     1       5.747   3.620  13.487  0.00  0.00    +0.000 Cl
ENDBRANCH  13  15
ENDBRANCH   7  13
TORSDOF 3
ENDMDL
MODEL 6
REMARK VINA RESULT:      -6.1      3.368      4.708
REMARK  Name = 
REMARK  4 active torsions:
REMARK  status: ('A' for Active; 'I' for Inactive)
REMARK    1  A    between atoms: C_1  and  O_2
REMARK    2  A    between atoms: O_2  and  C_3
REMARK    3  A    between atoms: C_9  and  C_10
REMARK    4  A    between atoms: C_10  and  C_12
REMARK                            x       y       z     vdW  Elec       q    Type
REMARK                         _______ _______ _______ _____ _____    ______ ____
ROOT
ATOM      1  C   UNL     1       2.798   7.096  18.573  0.00  0.00    +0.000 A 
ATOM      2  C   UNL     1       3.862   7.084  17.672  0.00  0.00    +0.000 A 
ATOM      3  C   UNL     1       4.654   5.944  17.506  0.00  0.00    +0.000 A 
ATOM      4  C   UNL     1       4.353   4.821  18.282  0.00  0.00    +0.000 A 
ATOM      5  N   UNL     1       4.964   3.592  18.321  0.00  0.00    +0.000 N 
ATOM      6  C   UNL     1       4.366   2.797  19.257  0.00  0.00    +0.000 A 
ATOM      7  C   UNL     1       3.320   3.501  19.831  0.00  0.00    +0.000 A 
ATOM      8  C   UNL     1       3.307   4.794  19.205  0.00  0.00    +0.000 A 
ATOM      9  C   UNL     1       2.523   5.961  19.350  0.00  0.00    +0.000 A 
ATOM     10  H   UNL     1       5.748   3.325  17.741  0.00  0.00    +0.000 HD
ENDROOT
BRANCH   1  12
ATOM     11  C   UNL     1       1.944   9.155  17.776  0.00  0.00    +0.000 C 
ATOM     12  O   UNL     1       1.984   8.174  18.806  0.00  0.00    +0.000 OA
ENDBRANCH   1  12
BRANCH   7  13
ATOM     13  C   UNL     1       2.427   3.003  20.880  0.00  0.00    +0.000 C 
ATOM     14  O   UNL     1       2.868   2.598  21.959  0.00  0.00    +0.000 OA
BRANCH  13  15
ATOM     15  C   UNL     1       0.941   2.951  20.595  0.00  0.00    +0.000 C 
ATOM     16 CL   UNL     1       0.648   2.439  18.925  0.00  0.00    +0.000 Cl
ENDBRANCH  13  15
ENDBRANCH   7  13
TORSDOF 3
ENDMDL
MODEL 7
REMARK VINA RESULT:      -6.1      3.582      5.452
REMARK  Name = 
REMARK  4 active torsions:
REMARK  status: ('A' for Active; 'I' for Inactive)
REMARK    1  A    between atoms: C_1  and  O_2
REMARK    2  A    between atoms: O_2  and  C_3
REMARK    3  A    between atoms: C_9  and  C_10
REMARK    4  A    between atoms: C_10  and  C_12
REMARK                            x       y       z     vdW  Elec       q    Type
REMARK                         _______ _______ _______ _____ _____    ______ ____
ROOT
ATOM      1  C   UNL     1       5.455   4.472  15.866  0.00  0.00    +0.000 A 
ATOM      2  C   UNL     1       5.493   5.860  15.749  0.00  0.00    +0.000 A 
ATOM      3  C   UNL     1       4.733   6.676  16.593  0.00  0.00    +0.000 A 
ATOM      4  C   UNL     1       3.925   6.054  17.548  0.00  0.00    +0.000 A 
ATOM      5  N   UNL     1       3.087   6.609  18.484  0.00  0.00    +0.000 N 
ATOM      6  C   UNL     1       2.455   5.627  19.193  0.00  0.00    +0.000 A 
ATOM      7  C   UNL     1       2.902   4.397  18.739  0.00  0.00    +0.000 A 
ATOM      8  C   UNL     1       3.846   4.668  17.690  0.00  0.00    +0.000 A 
ATOM      9  C   UNL     1       4.626   3.869  16.824  0.00  0.00    +0.000 A 
ATOM     10  H   UNL     1       2.958   7.603  18.618  0.00  0.00    +0.000 HD
ENDROOT
BRANCH   1  12
ATOM     11  C   UNL     1       6.166   3.904  13.680  0.00  0.00    +0.000 C 
ATOM     12  O   UNL     1       6.155   3.601  15.071  0.00  0.00    +0.000 OA
ENDBRANCH   1  12
BRANCH   7  13
ATOM     13  C   UNL     1       2.468   3.090  19.240  0.00  0.00    +0.000 C 
ATOM     14  O   UNL     1       1.790   2.330  18.544  0.00  0.00    +0.000 OA
BRANCH  13  15
ATOM     15  C   UNL     1       2.833   2.707  20.659  0.00  0.00    +0.000 C 
ATOM     16 CL   UNL     1       1.394   2.712  21.692  0.00  0.00    +0.000 Cl
ENDBRANCH  13  15
ENDBRANCH   7  13
TORSDOF 3
ENDMDL
MODEL 8
REMARK VINA RESULT:      -6.0      3.012      5.532
REMARK  Name = 
REMARK  4 active torsions:
REMARK  status: ('A' for Active; 'I' for Inactive)
REMARK    1  A    between atoms: C_1  and  O_2
REMARK    2  A    between atoms: O_2  and  C_3
REMARK    3  A    between atoms: C_9  and  C_10
REMARK    4  A    between atoms: C_10  and  C_12
REMARK                            x       y       z     vdW  Elec       q    Type
REMARK                         _______ _______ _______ _____ _____    ______ ____
ROOT
ATOM      1  C   UNL     1       6.246   4.245  15.807  0.00  0.00    +0.000 A 
ATOM      2  C   UNL     1       7.143   4.958  16.601  0.00  0.00    +0.000 A 
ATOM      3  C   UNL     1       6.788   5.392  17.881  0.00  0.00    +0.000 A 
ATOM      4  C   UNL     1       5.499   5.099  18.335  0.00  0.00    +0.000 A 
ATOM      5  N   UNL     1       4.899   5.408  19.531  0.00  0.00    +0.000 N 
ATOM      6  C   UNL     1       3.608   4.960  19.541  0.00  0.00    +0.000 A 
ATOM      7  C   UNL     1       3.355   4.317  18.340  0.00  0.00    +0.000 A 
ATOM      8  C   UNL     1       4.564   4.401  17.570  0.00  0.00    +0.000 A 
ATOM      9  C   UNL     1       4.953   3.974  16.280  0.00  0.00    +0.000 A 
ATOM     10  H   UNL     1       5.353   5.902  20.288  0.00  0.00    +0.000 HD
ENDROOT
BRANCH   1  12
ATOM     11  C   UNL     1       7.036   4.764  13.637  0.00  0.00    +0.000 C 
ATOM     12  O   UNL     1       6.509   3.797  14.539  0.00  0.00    +0.000 OA
ENDBRANCH   1  12
BRANCH   7  13
ATOM     13  C   UNL     1       2.085   3.695  17.953  0.00  0.00    +0.000 C 
ATOM     14  O   UNL     1       1.222   4.328  17.341  0.00  0.00    +0.000 OA
BRANCH  13  15
ATOM     15  C   UNL     1       1.834   2.260  18.364  0.00  0.00    +0.000 C 
ATOM     16 CL   UNL     1       3.363   1.377  18.500  0.00  0.00    +0.000 Cl
ENDBRANCH  13  15
ENDBRANCH   7  13
TORSDOF 3
ENDMDL
MODEL 9
REMARK VINA RESULT:      -6.0      3.397      4.966
REMARK  Name = 
REMARK  4 active torsions:
REMARK  status: ('A' for Active; 'I' for Inactive)
REMARK    1  A    between atoms: C_1  and  O_2
REMARK    2  A    between atoms: O_2  and  C_3
REMARK    3  A    between atoms: C_9  and  C_10
REMARK    4  A    between atoms: C_10  and  C_12
REMARK                            x       y       z     vdW  Elec       q    Type
REMARK                         _______ _______ _______ _____ _____    ______ ____
ROOT
ATOM      1  C   UNL     1       5.449   5.680  16.181  0.00  0.00    +0.000 A 
ATOM      2  C   UNL     1       4.902   6.935  16.447  0.00  0.00    +0.000 A 
ATOM      3  C   UNL     1       4.118   7.154  17.584  0.00  0.00    +0.000 A 
ATOM      4  C   UNL     1       3.889   6.071  18.437  0.00  0.00    +0.000 A 
ATOM      5  N   UNL     1       3.162   6.010  19.601  0.00  0.00    +0.000 N 
ATOM      6  C   UNL     1       3.171   4.736  20.096  0.00  0.00    +0.000 A 
ATOM      7  C   UNL     1       3.940   3.943  19.260  0.00  0.00    +0.000 A 
ATOM      8  C   UNL     1       4.405   4.796  18.202  0.00  0.00    +0.000 A 
ATOM      9  C   UNL     1       5.195   4.605  17.046  0.00  0.00    +0.000 A 
ATOM     10  H   UNL     1       2.688   6.798  20.020  0.00  0.00    +0.000 HD
ENDROOT
BRANCH   1  12
ATOM     11  C   UNL     1       6.035   4.073  14.544  0.00  0.00    +0.000 C 
ATOM     12  O   UNL     1       6.214   5.378  15.084  0.00  0.00    +0.000 OA
ENDBRANCH   1  12
BRANCH   7  13
ATOM     13  C   UNL     1       4.200   2.512  19.439  0.00  0.00    +0.000 C 
ATOM     14  O   UNL     1       4.970   2.105  20.314  0.00  0.00    +0.000 OA
BRANCH  13  15
ATOM     15  C   UNL     1       3.535   1.536  18.492  0.00  0.00    +0.000 C 
ATOM     16 CL   UNL     1       1.942   2.138  18.002  0.00  0.00    +0.000 Cl
ENDBRANCH  13  15
ENDBRANCH   7  13
TORSDOF 3
ENDMDL
