MODEL 1
REMARK VINA RESULT:      -8.2      0.000      0.000
REMARK  Name = 
REMARK  8 active torsions:
REMARK  status: ('A' for Active; 'I' for Inactive)
REMARK    1  A    between atoms: C_1  and  C_2
REMARK    2  A    between atoms: C_2  and  C_3
REMARK    3  A    between atoms: C_2  and  C_4
REMARK    4  A    between atoms: C_4  and  C_5
REMARK    5  A    between atoms: C_5  and  N_6
REMARK    6  A    between atoms: C_5  and  C_15
REMARK    7  A    between atoms: C_7  and  C_9
REMARK    8  A    between atoms: C_21  and  C_22
REMARK                            x       y       z     vdW  Elec       q    Type
REMARK                         _______ _______ _______ _____ _____    ______ ____
ROOT
ATOM      1  C   UNL     1       4.979   5.167  17.459  0.00  0.00    +0.000 C 
ENDROOT
BRANCH   1   2
ATOM      2  C   UNL     1       4.093   4.120  18.192  0.00  0.00    +0.000 C 
ATOM      3  O   UNL     1       4.458   2.945  18.308  0.00  0.00    +0.000 OA
ATOM      4  N   UNL     1       2.922   4.526  18.812  0.00  0.00    +0.000 N 
ATOM      5  C   UNL     1       2.348   5.855  18.881  0.00  0.00    +0.000 C 
ATOM      6  C   UNL     1       1.873   5.965  20.320  0.00  0.00    +0.000 C 
ATOM      7  C   UNL     1       1.405   4.554  20.658  0.00  0.00    +0.000 C 
ATOM      8  C   UNL     1       2.247   3.628  19.765  0.00  0.00    +0.000 C 
BRANCH   8   9
ATOM      9  C   UNL     1       1.356   2.546  19.120  0.00  0.00    +0.000 C 
ATOM     10  N   UNL     1       1.978   1.400  18.719  0.00  0.00    +0.000 N 
ATOM     11  O   UNL     1       0.128   2.617  19.078  0.00  0.00    +0.000 OA
ATOM     12  H   UNL     1       2.879   1.167  19.132  0.00  0.00    +0.000 HD
ATOM     13  H   UNL     1       1.378   0.627  18.466  0.00  0.00    +0.000 HD
ENDBRANCH   8   9
ENDBRANCH   1   2
BRANCH   1  14
ATOM     14  N   UNL     1       5.777   4.577  16.386  0.00  0.00    +0.000 N 
ATOM     15  C   UNL     1       6.067   5.209  15.193  0.00  0.00    +0.000 C 
ATOM     16  O   UNL     1       5.654   6.323  14.891  0.00  0.00    +0.000 OA
ATOM     17  H   UNL     1       6.200   3.670  16.541  0.00  0.00    +0.000 HD
BRANCH  15  18
ATOM     18  C   UNL     1       6.866   4.343  14.206  0.00  0.00    +0.000 C 
ATOM     19  C   UNL     1       7.344   5.122  12.985  0.00  0.00    +0.000 C 
ATOM     20  C   UNL     1       7.198   4.153  11.813  0.00  0.00    +0.000 C 
ATOM     21  C   UNL     1       6.169   3.166  12.293  0.00  0.00    +0.000 C 
ATOM     22  O   UNL     1       5.594   2.328  11.623  0.00  0.00    +0.000 OA
ATOM     23  N   UNL     1       5.995   3.340  13.643  0.00  0.00    +0.000 N 
ATOM     24  H   UNL     1       5.474   2.664  14.189  0.00  0.00    +0.000 HD
ENDBRANCH  15  18
ENDBRANCH   1  14
BRANCH   1  25
ATOM     25  C   UNL     1       5.796   6.001  18.476  0.00  0.00    +0.000 C 
BRANCH  25  27
ATOM     26  C   UNL     1       7.706   7.535  17.753  0.00  0.00    +0.000 C 
ATOM     27  C   UNL     1       7.307   6.126  18.195  0.00  0.00    +0.000 C 
ATOM     28  C   UNL     1       8.106   5.753  19.454  0.00  0.00    +0.000 C 
ENDBRANCH  25  27
ENDBRANCH   1  25
TORSDOF 6
ENDMDL
MODEL 2
REMARK VINA RESULT:      -8.1      3.128      7.819
REMARK  Name = 
REMARK  8 active torsions:
REMARK  status: ('A' for Active; 'I' for Inactive)
REMARK    1  A    between atoms: C_1  and  C_2
REMARK    2  A    between atoms: C_2  and  C_3
REMARK    3  A    between atoms: C_2  and  C_4
REMARK    4  A    between atoms: C_4  and  C_5
REMARK    5  A    between atoms: C_5  and  N_6
REMARK    6  A    between atoms: C_5  and  C_15
REMARK    7  A    between atoms: C_7  and  C_9
REMARK    8  A    between atoms: C_21  and  C_22
REMARK                            x       y       z     vdW  Elec       q    Type
REMARK                         _______ _______ _______ _____ _____    ______ ____
ROOT
ATOM      1  C   UNL     1       3.362   5.229  19.179  0.00  0.00    +0.000 C 
ENDROOT
BRANCH   1   2
ATOM      2  C   UNL     1       4.886   5.442  18.962  0.00  0.00    +0.000 C 
ATOM      3  O   UNL     1       5.690   5.304  19.891  0.00  0.00    +0.000 OA
ATOM      4  N   UNL     1       5.368   5.696  17.688  0.00  0.00    +0.000 N 
ATOM      5  C   UNL     1       4.629   5.814  16.446  0.00  0.00    +0.000 C 
ATOM      6  C   UNL     1       5.485   5.054  15.447  0.00  0.00    +0.000 C 
ATOM      7  C   UNL     1       6.912   5.339  15.899  0.00  0.00    +0.000 C 
ATOM      8  C   UNL     1       6.812   5.586  17.413  0.00  0.00    +0.000 C 
BRANCH   8   9
ATOM      9  C   UNL     1       7.646   6.821  17.815  0.00  0.00    +0.000 C 
ATOM     10  N   UNL     1       8.306   6.752  19.005  0.00  0.00    +0.000 N 
ATOM     11  O   UNL     1       7.843   7.777  17.065  0.00  0.00    +0.000 OA
ATOM     12  H   UNL     1       8.493   5.834  19.404  0.00  0.00    +0.000 HD
ATOM     13  H   UNL     1       8.990   7.475  19.184  0.00  0.00    +0.000 HD
ENDBRANCH   8   9
ENDBRANCH   1   2
BRANCH   1  14
ATOM     14  N   UNL     1       2.748   6.305  19.954  0.00  0.00    +0.000 N 
ATOM     15  C   UNL     1       2.229   7.462  19.406  0.00  0.00    +0.000 C 
ATOM     16  O   UNL     1       2.262   7.726  18.210  0.00  0.00    +0.000 OA
ATOM     17  H   UNL     1       2.634   6.178  20.953  0.00  0.00    +0.000 HD
BRANCH  15  18
ATOM     18  C   UNL     1       1.703   8.464  20.446  0.00  0.00    +0.000 C 
ATOM     19  C   UNL     1       0.691   7.847  21.406  0.00  0.00    +0.000 C 
ATOM     20  C   UNL     1      -0.356   8.937  21.634  0.00  0.00    +0.000 C 
ATOM     21  C   UNL     1      -0.216   9.823  20.426  0.00  0.00    +0.000 C 
ATOM     22  O   UNL     1      -0.976  10.709  20.080  0.00  0.00    +0.000 OA
ATOM     23  N   UNL     1       0.944   9.491  19.773  0.00  0.00    +0.000 N 
ATOM     24  H   UNL     1       1.310  10.081  19.034  0.00  0.00    +0.000 HD
ENDBRANCH  15  18
ENDBRANCH   1  14
BRANCH   1  25
ATOM     25  C   UNL     1       3.081   3.808  19.728  0.00  0.00    +0.000 C 
BRANCH  25  27
ATOM     26  C   UNL     1       0.873   2.656  19.163  0.00  0.00    +0.000 C 
ATOM     27  C   UNL     1       1.631   3.523  20.169  0.00  0.00    +0.000 C 
ATOM     28  C   UNL     1       1.629   2.820  21.536  0.00  0.00    +0.000 C 
ENDBRANCH  25  27
ENDBRANCH   1  25
TORSDOF 6
ENDMDL
MODEL 3
REMARK VINA RESULT:      -7.9      3.382      7.830
REMARK  Name = 
REMARK  8 active torsions:
REMARK  status: ('A' for Active; 'I' for Inactive)
REMARK    1  A    between atoms: C_1  and  C_2
REMARK    2  A    between atoms: C_2  and  C_3
REMARK    3  A    between atoms: C_2  and  C_4
REMARK    4  A    between atoms: C_4  and  C_5
REMARK    5  A    between atoms: C_5  and  N_6
REMARK    6  A    between atoms: C_5  and  C_15
REMARK    7  A    between atoms: C_7  and  C_9
REMARK    8  A    between atoms: C_21  and  C_22
REMARK                            x       y       z     vdW  Elec       q    Type
REMARK                         _______ _______ _______ _____ _____    ______ ____
ROOT
ATOM      1  C   UNL     1       2.939   5.574  19.063  0.00  0.00    +0.000 C 
ENDROOT
BRANCH   1   2
ATOM      2  C   UNL     1       4.485   5.408  19.090  0.00  0.00    +0.000 C 
ATOM      3  O   UNL     1       5.048   4.818  20.019  0.00  0.00    +0.000 OA
ATOM      4  N   UNL     1       5.240   5.840  18.012  0.00  0.00    +0.000 N 
ATOM      5  C   UNL     1       4.790   6.474  16.787  0.00  0.00    +0.000 C 
ATOM      6  C   UNL     1       5.616   5.793  15.709  0.00  0.00    +0.000 C 
ATOM      7  C   UNL     1       6.962   5.547  16.380  0.00  0.00    +0.000 C 
ATOM      8  C   UNL     1       6.643   5.411  17.878  0.00  0.00    +0.000 C 
BRANCH   8   9
ATOM      9  C   UNL     1       7.653   6.220  18.720  0.00  0.00    +0.000 C 
ATOM     10  N   UNL     1       8.146   5.612  19.835  0.00  0.00    +0.000 N 
ATOM     11  O   UNL     1       8.118   7.302  18.362  0.00  0.00    +0.000 OA
ATOM     12  H   UNL     1       8.101   4.596  19.894  0.00  0.00    +0.000 HD
ATOM     13  H   UNL     1       8.933   6.061  20.283  0.00  0.00    +0.000 HD
ENDBRANCH   8   9
ENDBRANCH   1   2
BRANCH   1  14
ATOM     14  N   UNL     1       2.483   6.722  19.845  0.00  0.00    +0.000 N 
ATOM     15  C   UNL     1       2.005   7.897  19.297  0.00  0.00    +0.000 C 
ATOM     16  O   UNL     1       1.948   8.116  18.093  0.00  0.00    +0.000 OA
ATOM     17  H   UNL     1       2.453   6.639  20.854  0.00  0.00    +0.000 HD
BRANCH  15  18
ATOM     18  C   UNL     1       1.656   8.973  20.337  0.00  0.00    +0.000 C 
ATOM     19  C   UNL     1       0.854   8.424  21.513  0.00  0.00    +0.000 C 
ATOM     20  C   UNL     1      -0.160   9.518  21.847  0.00  0.00    +0.000 C 
ATOM     21  C   UNL     1      -0.268  10.306  20.571  0.00  0.00    +0.000 C 
ATOM     22  O   UNL     1      -1.100  11.153  20.306  0.00  0.00    +0.000 OA
ATOM     23  N   UNL     1       0.760   9.935  19.740  0.00  0.00    +0.000 N 
ATOM     24  H   UNL     1       0.968  10.468  18.904  0.00  0.00    +0.000 HD
ENDBRANCH  15  18
ENDBRANCH   1  14
BRANCH   1  25
ATOM     25  C   UNL     1       2.239   4.240  19.423  0.00  0.00    +0.000 C 
BRANCH  25  27
ATOM     26  C   UNL     1       2.587   2.953  17.244  0.00  0.00    +0.000 C 
ATOM     27  C   UNL     1       1.571   3.487  18.255  0.00  0.00    +0.000 C 
ATOM     28  C   UNL     1       0.742   2.311  18.797  0.00  0.00    +0.000 C 
ENDBRANCH  25  27
ENDBRANCH   1  25
TORSDOF 6
ENDMDL
MODEL 4
REMARK VINA RESULT:      -7.9      3.419      7.645
REMARK  Name = 
REMARK  8 active torsions:
REMARK  status: ('A' for Active; 'I' for Inactive)
REMARK    1  A    between atoms: C_1  and  C_2
REMARK    2  A    between atoms: C_2  and  C_3
REMARK    3  A    between atoms: C_2  and  C_4
REMARK    4  A    between atoms: C_4  and  C_5
REMARK    5  A    between atoms: C_5  and  N_6
REMARK    6  A    between atoms: C_5  and  C_15
REMARK    7  A    between atoms: C_7  and  C_9
REMARK    8  A    between atoms: C_21  and  C_22
REMARK                            x       y       z     vdW  Elec       q    Type
REMARK                         _______ _______ _______ _____ _____    ______ ____
ROOT
ATOM      1  C   UNL     1       2.915   6.123  18.093  0.00  0.00    +0.000 C 
ENDROOT
BRANCH   1   2
ATOM      2  C   UNL     1       4.343   5.743  18.577  0.00  0.00    +0.000 C 
ATOM      3  O   UNL     1       4.556   5.431  19.754  0.00  0.00    +0.000 OA
ATOM      4  N   UNL     1       5.377   5.657  17.660  0.00  0.00    +0.000 N 
ATOM      5  C   UNL     1       5.342   5.890  16.229  0.00  0.00    +0.000 C 
ATOM      6  C   UNL     1       6.186   4.763  15.662  0.00  0.00    +0.000 C 
ATOM      7  C   UNL     1       7.276   4.561  16.708  0.00  0.00    +0.000 C 
ATOM      8  C   UNL     1       6.641   5.000  18.037  0.00  0.00    +0.000 C 
BRANCH   8   9
ATOM      9  C   UNL     1       7.621   5.885  18.837  0.00  0.00    +0.000 C 
ATOM     10  N   UNL     1       8.130   5.353  19.984  0.00  0.00    +0.000 N 
ATOM     11  O   UNL     1       8.051   6.962  18.423  0.00  0.00    +0.000 OA
ATOM     12  H   UNL     1       8.119   4.341  20.096  0.00  0.00    +0.000 HD
ATOM     13  H   UNL     1       8.900   5.851  20.408  0.00  0.00    +0.000 HD
ENDBRANCH   8   9
ENDBRANCH   1   2
BRANCH   1  14
ATOM     14  N   UNL     1       2.330   7.215  18.869  0.00  0.00    +0.000 N 
ATOM     15  C   UNL     1       2.063   8.473  18.366  0.00  0.00    +0.000 C 
ATOM     16  O   UNL     1       2.324   8.820  17.220  0.00  0.00    +0.000 OA
ATOM     17  H   UNL     1       2.040   7.030  19.823  0.00  0.00    +0.000 HD
BRANCH  15  18
ATOM     18  C   UNL     1       1.512   9.459  19.408  0.00  0.00    +0.000 C 
ATOM     19  C   UNL     1       0.862   8.761  20.599  0.00  0.00    +0.000 C 
ATOM     20  C   UNL     1      -0.353   9.620  20.948  0.00  0.00    +0.000 C 
ATOM     21  C   UNL     1      -0.645  10.359  19.671  0.00  0.00    +0.000 C 
ATOM     22  O   UNL     1      -1.641  11.011  19.418  0.00  0.00    +0.000 OA
ATOM     23  N   UNL     1       0.425  10.207  18.824  0.00  0.00    +0.000 N 
ATOM     24  H   UNL     1       0.502  10.766  17.983  0.00  0.00    +0.000 HD
ENDBRANCH  15  18
ENDBRANCH   1  14
BRANCH   1  25
ATOM     25  C   UNL     1       2.019   4.864  17.989  0.00  0.00    +0.000 C 
BRANCH  25  27
ATOM     26  C   UNL     1       1.078   4.241  20.280  0.00  0.00    +0.000 C 
ATOM     27  C   UNL     1       2.080   3.886  19.179  0.00  0.00    +0.000 C 
ATOM     28  C   UNL     1       1.802   2.454  18.695  0.00  0.00    +0.000 C 
ENDBRANCH  25  27
ENDBRANCH   1  25
TORSDOF 6
ENDMDL
MODEL 5
REMARK VINA RESULT:      -7.8      1.378      1.661
REMARK  Name = 
REMARK  8 active torsions:
REMARK  status: ('A' for Active; 'I' for Inactive)
REMARK    1  A    between atoms: C_1  and  C_2
REMARK    2  A    between atoms: C_2  and  C_3
REMARK    3  A    between atoms: C_2  and  C_4
REMARK    4  A    between atoms: C_4  and  C_5
REMARK    5  A    between atoms: C_5  and  N_6
REMARK    6  A    between atoms: C_5  and  C_15
REMARK    7  A    between atoms: C_7  and  C_9
REMARK    8  A    between atoms: C_21  and  C_22
REMARK                            x       y       z     vdW  Elec       q    Type
REMARK                         _______ _______ _______ _____ _____    ______ ____
ROOT
ATOM      1  C   UNL     1       5.647   4.590  16.257  0.00  0.00    +0.000 C 
ENDROOT
BRANCH   1   2
ATOM      2  C   UNL     1       4.585   3.832  17.103  0.00  0.00    +0.000 C 
ATOM      3  O   UNL     1       4.632   2.604  17.237  0.00  0.00    +0.000 OA
ATOM      4  N   UNL     1       3.625   4.548  17.799  0.00  0.00    +0.000 N 
ATOM      5  C   UNL     1       3.433   5.984  17.860  0.00  0.00    +0.000 C 
ATOM      6  C   UNL     1       3.136   6.243  19.327  0.00  0.00    +0.000 C 
ATOM      7  C   UNL     1       2.342   5.016  19.761  0.00  0.00    +0.000 C 
ATOM      8  C   UNL     1       2.824   3.882  18.841  0.00  0.00    +0.000 C 
BRANCH   8   9
ATOM      9  C   UNL     1       1.622   3.068  18.316  0.00  0.00    +0.000 C 
ATOM     10  N   UNL     1       1.655   1.722  18.531  0.00  0.00    +0.000 N 
ATOM     11  O   UNL     1       0.607   3.584  17.848  0.00  0.00    +0.000 OA
ATOM     12  H   UNL     1       2.255   1.363  19.271  0.00  0.00    +0.000 HD
ATOM     13  H   UNL     1       0.798   1.216  18.352  0.00  0.00    +0.000 HD
ENDBRANCH   8   9
ENDBRANCH   1   2
BRANCH   1  14
ATOM     14  N   UNL     1       5.611   4.218  14.844  0.00  0.00    +0.000 N 
ATOM     15  C   UNL     1       6.598   4.531  13.930  0.00  0.00    +0.000 C 
ATOM     16  O   UNL     1       7.595   5.190  14.200  0.00  0.00    +0.000 OA
ATOM     17  H   UNL     1       4.847   3.639  14.516  0.00  0.00    +0.000 HD
BRANCH  15  18
ATOM     18  C   UNL     1       6.285   4.082  12.494  0.00  0.00    +0.000 C 
ATOM     19  C   UNL     1       4.789   3.951  12.227  0.00  0.00    +0.000 C 
ATOM     20  C   UNL     1       4.652   2.719  11.333  0.00  0.00    +0.000 C 
ATOM     21  C   UNL     1       5.905   1.936  11.611  0.00  0.00    +0.000 C 
ATOM     22  O   UNL     1       6.140   0.791  11.272  0.00  0.00    +0.000 OA
ATOM     23  N   UNL     1       6.779   2.741  12.298  0.00  0.00    +0.000 N 
ATOM     24  H   UNL     1       7.744   2.462  12.432  0.00  0.00    +0.000 HD
ENDBRANCH  15  18
ENDBRANCH   1  14
BRANCH   1  25
ATOM     25  C   UNL     1       7.047   4.479  16.910  0.00  0.00    +0.000 C 
BRANCH  25  27
ATOM     26  C   UNL     1       6.960   7.013  17.218  0.00  0.00    +0.000 C 
ATOM     27  C   UNL     1       7.501   5.687  17.755  0.00  0.00    +0.000 C 
ATOM     28  C   UNL     1       7.037   5.512  19.209  0.00  0.00    +0.000 C 
ENDBRANCH  25  27
ENDBRANCH   1  25
TORSDOF 6
ENDMDL
MODEL 6
REMARK VINA RESULT:      -7.8      3.342      7.407
REMARK  Name = 
REMARK  8 active torsions:
REMARK  status: ('A' for Active; 'I' for Inactive)
REMARK    1  A    between atoms: C_1  and  C_2
REMARK    2  A    between atoms: C_2  and  C_3
REMARK    3  A    between atoms: C_2  and  C_4
REMARK    4  A    between atoms: C_4  and  C_5
REMARK    5  A    between atoms: C_5  and  N_6
REMARK    6  A    between atoms: C_5  and  C_15
REMARK    7  A    between atoms: C_7  and  C_9
REMARK    8  A    between atoms: C_21  and  C_22
REMARK                            x       y       z     vdW  Elec       q    Type
REMARK                         _______ _______ _______ _____ _____    ______ ____
ROOT
ATOM      1  C   UNL     1       2.839   5.721  18.396  0.00  0.00    +0.000 C 
ENDROOT
BRANCH   1   2
ATOM      2  C   UNL     1       4.381   5.668  18.591  0.00  0.00    +0.000 C 
ATOM      3  O   UNL     1       4.883   5.688  19.720  0.00  0.00    +0.000 OA
ATOM      4  N   UNL     1       5.206   5.499  17.490  0.00  0.00    +0.000 N 
ATOM      5  C   UNL     1       4.838   5.364  16.095  0.00  0.00    +0.000 C 
ATOM      6  C   UNL     1       5.746   4.256  15.590  0.00  0.00    +0.000 C 
ATOM      7  C   UNL     1       7.043   4.468  16.361  0.00  0.00    +0.000 C 
ATOM      8  C   UNL     1       6.620   5.132  17.682  0.00  0.00    +0.000 C 
BRANCH   8   9
ATOM      9  C   UNL     1       7.558   6.311  18.017  0.00  0.00    +0.000 C 
ATOM     10  N   UNL     1       7.546   7.367  17.155  0.00  0.00    +0.000 N 
ATOM     11  O   UNL     1       8.193   6.393  19.069  0.00  0.00    +0.000 OA
ATOM     12  H   UNL     1       6.736   7.489  16.549  0.00  0.00    +0.000 HD
ATOM     13  H   UNL     1       8.016   8.207  17.463  0.00  0.00    +0.000 HD
ENDBRANCH   8   9
ENDBRANCH   1   2
BRANCH   1  14
ATOM     14  N   UNL     1       2.267   7.008  18.785  0.00  0.00    +0.000 N 
ATOM     15  C   UNL     1       2.332   8.154  18.016  0.00  0.00    +0.000 C 
ATOM     16  O   UNL     1       2.912   8.222  16.939  0.00  0.00    +0.000 OA
ATOM     17  H   UNL     1       1.731   7.061  19.643  0.00  0.00    +0.000 HD
BRANCH  15  18
ATOM     18  C   UNL     1       1.711   9.391  18.685  0.00  0.00    +0.000 C 
ATOM     19  C   UNL     1       1.040   9.071  20.017  0.00  0.00    +0.000 C 
ATOM     20  C   UNL     1      -0.214   9.944  20.049  0.00  0.00    +0.000 C 
ATOM     21  C   UNL     1      -0.481  10.237  18.598  0.00  0.00    +0.000 C 
ATOM     22  O   UNL     1      -1.488  10.736  18.129  0.00  0.00    +0.000 OA
ATOM     23  N   UNL     1       0.623   9.875  17.869  0.00  0.00    +0.000 N 
ATOM     24  H   UNL     1       0.714  10.147  16.897  0.00  0.00    +0.000 HD
ENDBRANCH  15  18
ENDBRANCH   1  14
BRANCH   1  25
ATOM     25  C   UNL     1       2.162   4.496  19.059  0.00  0.00    +0.000 C 
BRANCH  25  27
ATOM     26  C   UNL     1       2.946   2.485  17.693  0.00  0.00    +0.000 C 
ATOM     27  C   UNL     1       1.755   3.349  18.112  0.00  0.00    +0.000 C 
ATOM     28  C   UNL     1       0.706   2.456  18.793  0.00  0.00    +0.000 C 
ENDBRANCH  25  27
ENDBRANCH   1  25
TORSDOF 6
ENDMDL
MODEL 7
REMARK VINA RESULT:      -7.8      3.217      7.582
REMARK  Name = 
REMARK  8 active torsions:
REMARK  status: ('A' for Active; 'I' for Inactive)
REMARK    1  A    between atoms: C_1  and  C_2
REMARK    2  A    between atoms: C_2  and  C_3
REMARK    3  A    between atoms: C_2  and  C_4
REMARK    4  A    between atoms: C_4  and  C_5
REMARK    5  A    between atoms: C_5  and  N_6
REMARK    6  A    between atoms: C_5  and  C_15
REMARK    7  A    between atoms: C_7  and  C_9
REMARK    8  A    between atoms: C_21  and  C_22
REMARK                            x       y       z     vdW  Elec       q    Type
REMARK                         _______ _______ _______ _____ _____    ______ ____
ROOT
ATOM      1  C   UNL     1       3.394   4.801  19.411  0.00  0.00    +0.000 C 
ENDROOT
BRANCH   1   2
ATOM      2  C   UNL     1       4.908   4.984  19.109  0.00  0.00    +0.000 C 
ATOM      3  O   UNL     1       5.749   4.947  20.014  0.00  0.00    +0.000 OA
ATOM      4  N   UNL     1       5.337   5.094  17.796  0.00  0.00    +0.000 N 
ATOM      5  C   UNL     1       4.547   5.075  16.581  0.00  0.00    +0.000 C 
ATOM      6  C   UNL     1       5.362   4.206  15.638  0.00  0.00    +0.000 C 
ATOM      7  C   UNL     1       6.807   4.535  15.997  0.00  0.00    +0.000 C 
ATOM      8  C   UNL     1       6.768   4.948  17.477  0.00  0.00    +0.000 C 
BRANCH   8   9
ATOM      9  C   UNL     1       7.617   6.217  17.704  0.00  0.00    +0.000 C 
ATOM     10  N   UNL     1       7.642   7.127  16.689  0.00  0.00    +0.000 N 
ATOM     11  O   UNL     1       8.143   6.495  18.782  0.00  0.00    +0.000 OA
ATOM     12  H   UNL     1       6.891   7.108  16.002  0.00  0.00    +0.000 HD
ATOM     13  H   UNL     1       8.044   8.029  16.902  0.00  0.00    +0.000 HD
ENDBRANCH   8   9
ENDBRANCH   1   2
BRANCH   1  14
ATOM     14  N   UNL     1       2.815   5.952  20.103  0.00  0.00    +0.000 N 
ATOM     15  C   UNL     1       2.308   7.069  19.467  0.00  0.00    +0.000 C 
ATOM     16  O   UNL     1       2.325   7.230  18.253  0.00  0.00    +0.000 OA
ATOM     17  H   UNL     1       2.717   5.912  21.111  0.00  0.00    +0.000 HD
BRANCH  15  18
ATOM     18  C   UNL     1       1.821   8.166  20.427  0.00  0.00    +0.000 C 
ATOM     19  C   UNL     1       0.753   7.673  21.398  0.00  0.00    +0.000 C 
ATOM     20  C   UNL     1      -0.231   8.835  21.529  0.00  0.00    +0.000 C 
ATOM     21  C   UNL     1      -0.012   9.630  20.271  0.00  0.00    +0.000 C 
ATOM     22  O   UNL     1      -0.709  10.535  19.850  0.00  0.00    +0.000 OA
ATOM     23  N   UNL     1       1.141   9.189  19.671  0.00  0.00    +0.000 N 
ATOM     24  H   UNL     1       1.557   9.707  18.906  0.00  0.00    +0.000 HD
ENDBRANCH  15  18
ENDBRANCH   1  14
BRANCH   1  25
ATOM     25  C   UNL     1       3.135   3.443  20.108  0.00  0.00    +0.000 C 
BRANCH  25  27
ATOM     26  C   UNL     1       1.206   2.926  18.516  0.00  0.00    +0.000 C 
ATOM     27  C   UNL     1       2.420   2.370  19.262  0.00  0.00    +0.000 C 
ATOM     28  C   UNL     1       3.400   1.768  18.243  0.00  0.00    +0.000 C 
ENDBRANCH  25  27
ENDBRANCH   1  25
TORSDOF 6
ENDMDL
MODEL 8
REMARK VINA RESULT:      -7.8      1.624      2.060
REMARK  Name = 
REMARK  8 active torsions:
REMARK  status: ('A' for Active; 'I' for Inactive)
REMARK    1  A    between atoms: C_1  and  C_2
REMARK    2  A    between atoms: C_2  and  C_3
REMARK    3  A    between atoms: C_2  and  C_4
REMARK    4  A    between atoms: C_4  and  C_5
REMARK    5  A    between atoms: C_5  and  N_6
REMARK    6  A    between atoms: C_5  and  C_15
REMARK    7  A    between atoms: C_7  and  C_9
REMARK    8  A    between atoms: C_21  and  C_22
REMARK                            x       y       z     vdW  Elec       q    Type
REMARK                         _______ _______ _______ _____ _____    ______ ____
ROOT
ATOM      1  C   UNL     1       6.660   5.894  17.723  0.00  0.00    +0.000 C 
ENDROOT
BRANCH   1   2
ATOM      2  C   UNL     1       5.958   4.997  18.782  0.00  0.00    +0.000 C 
ATOM      3  O   UNL     1       6.503   4.737  19.860  0.00  0.00    +0.000 OA
ATOM      4  N   UNL     1       4.662   4.560  18.560  0.00  0.00    +0.000 N 
ATOM      5  C   UNL     1       3.804   4.812  17.419  0.00  0.00    +0.000 C 
ATOM      6  C   UNL     1       2.450   5.096  18.046  0.00  0.00    +0.000 C 
ATOM      7  C   UNL     1       2.410   4.175  19.260  0.00  0.00    +0.000 C 
ATOM      8  C   UNL     1       3.880   3.989  19.670  0.00  0.00    +0.000 C 
BRANCH   8   9
ATOM      9  C   UNL     1       4.171   2.504  19.974  0.00  0.00    +0.000 C 
ATOM     10  N   UNL     1       4.315   1.677  18.901  0.00  0.00    +0.000 N 
ATOM     11  O   UNL     1       4.405   2.078  21.106  0.00  0.00    +0.000 OA
ATOM     12  H   UNL     1       4.548   2.088  17.999  0.00  0.00    +0.000 HD
ATOM     13  H   UNL     1       4.680   0.753  19.089  0.00  0.00    +0.000 HD
ENDBRANCH   8   9
ENDBRANCH   1   2
BRANCH   1  14
ATOM     14  N   UNL     1       7.084   5.143  16.542  0.00  0.00    +0.000 N 
ATOM     15  C   UNL     1       6.612   5.369  15.264  0.00  0.00    +0.000 C 
ATOM     16  O   UNL     1       5.757   6.203  14.989  0.00  0.00    +0.000 OA
ATOM     17  H   UNL     1       7.816   4.450  16.646  0.00  0.00    +0.000 HD
BRANCH  15  18
ATOM     18  C   UNL     1       7.167   4.396  14.212  0.00  0.00    +0.000 C 
ATOM     19  C   UNL     1       7.653   5.101  12.949  0.00  0.00    +0.000 C 
ATOM     20  C   UNL     1       7.246   4.180  11.799  0.00  0.00    +0.000 C 
ATOM     21  C   UNL     1       6.118   3.368  12.375  0.00  0.00    +0.000 C 
ATOM     22  O   UNL     1       5.357   2.642  11.764  0.00  0.00    +0.000 OA
ATOM     23  N   UNL     1       6.097   3.553  13.735  0.00  0.00    +0.000 N 
ATOM     24  H   UNL     1       5.525   2.964  14.329  0.00  0.00    +0.000 HD
ENDBRANCH  15  18
ENDBRANCH   1  14
BRANCH   1  25
ATOM     25  C   UNL     1       7.781   6.738  18.377  0.00  0.00    +0.000 C 
BRANCH  25  27
ATOM     26  C   UNL     1       6.764   8.814  17.291  0.00  0.00    +0.000 C 
ATOM     27  C   UNL     1       8.049   8.119  17.745  0.00  0.00    +0.000 C 
ATOM     28  C   UNL     1       8.776   9.023  18.753  0.00  0.00    +0.000 C 
ENDBRANCH  25  27
ENDBRANCH   1  25
TORSDOF 6
ENDMDL
MODEL 9
REMARK VINA RESULT:      -7.7      3.227      7.676
REMARK  Name = 
REMARK  8 active torsions:
REMARK  status: ('A' for Active; 'I' for Inactive)
REMARK    1  A    between atoms: C_1  and  C_2
REMARK    2  A    between atoms: C_2  and  C_3
REMARK    3  A    between atoms: C_2  and  C_4
REMARK    4  A    between atoms: C_4  and  C_5
REMARK    5  A    between atoms: C_5  and  N_6
REMARK    6  A    between atoms: C_5  and  C_15
REMARK    7  A    between atoms: C_7  and  C_9
REMARK    8  A    between atoms: C_21  and  C_22
REMARK                            x       y       z     vdW  Elec       q    Type
REMARK                         _______ _______ _______ _____ _____    ______ ____
ROOT
ATOM      1  C   UNL     1       3.016   5.607  17.992  0.00  0.00    +0.000 C 
ENDROOT
BRANCH   1   2
ATOM      2  C   UNL     1       4.453   5.423  18.558  0.00  0.00    +0.000 C 
ATOM      3  O   UNL     1       4.643   5.218  19.762  0.00  0.00    +0.000 OA
ATOM      4  N   UNL     1       5.533   5.391  17.691  0.00  0.00    +0.000 N 
ATOM      5  C   UNL     1       5.540   5.520  16.247  0.00  0.00    +0.000 C 
ATOM      6  C   UNL     1       6.528   4.458  15.797  0.00  0.00    +0.000 C 
ATOM      7  C   UNL     1       7.582   4.451  16.897  0.00  0.00    +0.000 C 
ATOM      8  C   UNL     1       6.841   4.906  18.165  0.00  0.00    +0.000 C 
BRANCH   8   9
ATOM      9  C   UNL     1       7.680   5.949  18.935  0.00  0.00    +0.000 C 
ATOM     10  N   UNL     1       8.208   5.549  20.127  0.00  0.00    +0.000 N 
ATOM     11  O   UNL     1       7.993   7.044  18.468  0.00  0.00    +0.000 OA
ATOM     12  H   UNL     1       8.314   4.551  20.301  0.00  0.00    +0.000 HD
ATOM     13  H   UNL     1       8.898   6.161  20.541  0.00  0.00    +0.000 HD
ENDBRANCH   8   9
ENDBRANCH   1   2
BRANCH   1  14
ATOM     14  N   UNL     1       2.139   6.335  18.907  0.00  0.00    +0.000 N 
ATOM     15  C   UNL     1       2.023   7.711  18.945  0.00  0.00    +0.000 C 
ATOM     16  O   UNL     1       2.674   8.472  18.238  0.00  0.00    +0.000 OA
ATOM     17  H   UNL     1       1.527   5.805  19.515  0.00  0.00    +0.000 HD
BRANCH  15  18
ATOM     18  C   UNL     1       1.084   8.228  20.047  0.00  0.00    +0.000 C 
ATOM     19  C   UNL     1       0.755   9.710  19.899  0.00  0.00    +0.000 C 
ATOM     20  C   UNL     1       0.727  10.255  21.326  0.00  0.00    +0.000 C 
ATOM     21  C   UNL     1       1.562   9.271  22.099  0.00  0.00    +0.000 C 
ATOM     22  O   UNL     1       1.979   9.403  23.235  0.00  0.00    +0.000 OA
ATOM     23  N   UNL     1       1.763   8.160  21.318  0.00  0.00    +0.000 N 
ATOM     24  H   UNL     1       2.154   7.313  21.714  0.00  0.00    +0.000 HD
ENDBRANCH  15  18
ENDBRANCH   1  14
BRANCH   1  25
ATOM     25  C   UNL     1       2.444   4.254  17.502  0.00  0.00    +0.000 C 
BRANCH  25  27
ATOM     26  C   UNL     1       0.935   2.638  18.781  0.00  0.00    +0.000 C 
ATOM     27  C   UNL     1       2.367   3.128  18.552  0.00  0.00    +0.000 C 
ATOM     28  C   UNL     1       3.236   1.940  18.111  0.00  0.00    +0.000 C 
ENDBRANCH  25  27
ENDBRANCH   1  25
TORSDOF 6
ENDMDL
