MODEL 1
REMARK VINA RESULT:      -7.2      0.000      0.000
REMARK  Name = 
REMARK  5 active torsions:
REMARK  status: ('A' for Active; 'I' for Inactive)
REMARK    1  A    between atoms: C_1  and  C_2
REMARK    2  A    between atoms: C_2  and  C_3
REMARK    3  A    between atoms: C_2  and  C_4
REMARK    4  A    between atoms: C_2  and  C_5
REMARK    5  A    between atoms: C_8  and  N_9
REMARK                            x       y       z     vdW  Elec       q    Type
REMARK                         _______ _______ _______ _____ _____    ______ ____
ROOT
ATOM      1  N   UNL     1      -0.182  10.738  19.311  0.00  0.00    +0.000 N 
ATOM      2  C   UNL     1      -1.378  10.645  18.578  0.00  0.00    +0.000 A 
ATOM      3  O   UNL     1      -1.799   9.642  18.009  0.00  0.00    +0.000 OA
ATOM      4  O   UNL     1      -2.136  11.817  18.546  0.00  0.00    +0.000 OA
ATOM      5  C   UNL     1      -2.400  12.228  19.842  0.00  0.00    +0.000 A 
ATOM      6  C   UNL     1      -3.674  12.693  20.131  0.00  0.00    +0.000 A 
ATOM      7  C   UNL     1      -4.016  12.928  21.463  0.00  0.00    +0.000 A 
ATOM      8  C   UNL     1      -3.073  12.709  22.472  0.00  0.00    +0.000 A 
ATOM      9 CL   UNL     1      -3.550  12.849  24.119  0.00  0.00    +0.000 Cl
ATOM     10  C   UNL     1      -1.766  12.330  22.164  0.00  0.00    +0.000 A 
ATOM     11  C   UNL     1      -1.428  12.109  20.829  0.00  0.00    +0.000 A 
ATOM     12  C   UNL     1      -0.099  11.655  20.366  0.00  0.00    +0.000 A 
ATOM     13  S   UNL     1       1.317  12.322  21.005  0.00  0.00    +0.000 S 
ENDROOT
BRANCH   1  17
ATOM     14  C   UNL     1       2.502   7.458  18.627  0.00  0.00    +0.000 A 
ATOM     15  C   UNL     1       2.245   8.417  17.637  0.00  0.00    +0.000 A 
ATOM     16  C   UNL     1       1.404   9.512  17.879  0.00  0.00    +0.000 A 
ATOM     17  C   UNL     1       0.780   9.686  19.119  0.00  0.00    +0.000 A 
ATOM     18  C   UNL     1       1.050   8.742  20.116  0.00  0.00    +0.000 A 
ATOM     19  C   UNL     1       1.880   7.649  19.871  0.00  0.00    +0.000 A 
BRANCH  14  21
ATOM     20  C   UNL     1       4.072   5.691  19.606  0.00  0.00    +0.000 C 
ATOM     21  C   UNL     1       3.356   6.212  18.339  0.00  0.00    +0.000 C 
ATOM     22  C   UNL     1       4.425   6.581  17.290  0.00  0.00    +0.000 C 
ATOM     23  C   UNL     1       2.520   5.036  17.787  0.00  0.00    +0.000 C 
ENDBRANCH  14  21
ENDBRANCH   1  17
TORSDOF 2
ENDMDL
MODEL 2
REMARK VINA RESULT:      -6.7      2.575      3.247
REMARK  Name = 
REMARK  5 active torsions:
REMARK  status: ('A' for Active; 'I' for Inactive)
REMARK    1  A    between atoms: C_1  and  C_2
REMARK    2  A    between atoms: C_2  and  C_3
REMARK    3  A    between atoms: C_2  and  C_4
REMARK    4  A    between atoms: C_2  and  C_5
REMARK    5  A    between atoms: C_8  and  N_9
REMARK                            x       y       z     vdW  Elec       q    Type
REMARK                         _______ _______ _______ _____ _____    ______ ____
ROOT
ATOM      1  N   UNL     1       0.423   9.944  20.316  0.00  0.00    +0.000 N 
ATOM      2  C   UNL     1       0.788  10.317  21.622  0.00  0.00    +0.000 A 
ATOM      3  O   UNL     1       1.838  10.027  22.188  0.00  0.00    +0.000 OA
ATOM      4  O   UNL     1      -0.149  11.111  22.286  0.00  0.00    +0.000 OA
ATOM      5  C   UNL     1      -0.418  12.236  21.526  0.00  0.00    +0.000 A 
ATOM      6  C   UNL     1      -0.524  13.454  22.180  0.00  0.00    +0.000 A 
ATOM      7  C   UNL     1      -0.601  14.621  21.418  0.00  0.00    +0.000 A 
ATOM      8  C   UNL     1      -0.586  14.541  20.021  0.00  0.00    +0.000 A 
ATOM      9 CL   UNL     1      -0.522  15.989  19.094  0.00  0.00    +0.000 Cl
ATOM     10  C   UNL     1      -0.572  13.306  19.373  0.00  0.00    +0.000 A 
ATOM     11  C   UNL     1      -0.508  12.145  20.141  0.00  0.00    +0.000 A 
ATOM     12  C   UNL     1      -0.435  10.777  19.585  0.00  0.00    +0.000 A 
ATOM     13  S   UNL     1      -1.415  10.313  18.288  0.00  0.00    +0.000 S 
ENDROOT
BRANCH   1  17
ATOM     14  C   UNL     1       2.893   6.867  18.627  0.00  0.00    +0.000 A 
ATOM     15  C   UNL     1       2.304   6.726  19.891  0.00  0.00    +0.000 A 
ATOM     16  C   UNL     1       1.461   7.713  20.420  0.00  0.00    +0.000 A 
ATOM     17  C   UNL     1       1.180   8.884  19.708  0.00  0.00    +0.000 A 
ATOM     18  C   UNL     1       1.750   9.019  18.437  0.00  0.00    +0.000 A 
ATOM     19  C   UNL     1       2.595   8.040  17.916  0.00  0.00    +0.000 A 
BRANCH  14  21
ATOM     20  C   UNL     1       4.699   6.370  16.883  0.00  0.00    +0.000 C 
ATOM     21  C   UNL     1       3.884   5.826  18.079  0.00  0.00    +0.000 C 
ATOM     22  C   UNL     1       3.089   4.591  17.608  0.00  0.00    +0.000 C 
ATOM     23  C   UNL     1       4.908   5.368  19.141  0.00  0.00    +0.000 C 
ENDBRANCH  14  21
ENDBRANCH   1  17
TORSDOF 2
ENDMDL
MODEL 3
REMARK VINA RESULT:      -6.7      2.764      3.315
REMARK  Name = 
REMARK  5 active torsions:
REMARK  status: ('A' for Active; 'I' for Inactive)
REMARK    1  A    between atoms: C_1  and  C_2
REMARK    2  A    between atoms: C_2  and  C_3
REMARK    3  A    between atoms: C_2  and  C_4
REMARK    4  A    between atoms: C_2  and  C_5
REMARK    5  A    between atoms: C_8  and  N_9
REMARK                            x       y       z     vdW  Elec       q    Type
REMARK                         _______ _______ _______ _____ _____    ______ ____
ROOT
ATOM      1  N   UNL     1       0.682   9.623  20.439  0.00  0.00    +0.000 N 
ATOM      2  C   UNL     1       0.923  10.022  21.766  0.00  0.00    +0.000 A 
ATOM      3  O   UNL     1       1.884   9.692  22.455  0.00  0.00    +0.000 OA
ATOM      4  O   UNL     1      -0.029  10.895  22.295  0.00  0.00    +0.000 OA
ATOM      5  C   UNL     1      -0.141  12.005  21.476  0.00  0.00    +0.000 A 
ATOM      6  C   UNL     1      -0.241  13.250  22.077  0.00  0.00    +0.000 A 
ATOM      7  C   UNL     1      -0.160  14.391  21.276  0.00  0.00    +0.000 A 
ATOM      8  C   UNL     1       0.004  14.258  19.893  0.00  0.00    +0.000 A 
ATOM      9 CL   UNL     1       0.261  15.664  18.935  0.00  0.00    +0.000 Cl
ATOM     10  C   UNL     1       0.011  13.001  19.288  0.00  0.00    +0.000 A 
ATOM     11  C   UNL     1      -0.083  11.867  20.093  0.00  0.00    +0.000 A 
ATOM     12  C   UNL     1      -0.035  10.478  19.591  0.00  0.00    +0.000 A 
ATOM     13  S   UNL     1      -0.893  10.025  18.207  0.00  0.00    +0.000 S 
ENDROOT
BRANCH   1  17
ATOM     14  C   UNL     1       2.720   6.200  18.841  0.00  0.00    +0.000 A 
ATOM     15  C   UNL     1       2.705   7.428  18.166  0.00  0.00    +0.000 A 
ATOM     16  C   UNL     1       2.077   8.556  18.712  0.00  0.00    +0.000 A 
ATOM     17  C   UNL     1       1.434   8.498  19.952  0.00  0.00    +0.000 A 
ATOM     18  C   UNL     1       1.464   7.279  20.639  0.00  0.00    +0.000 A 
ATOM     19  C   UNL     1       2.081   6.155  20.090  0.00  0.00    +0.000 A 
BRANCH  14  21
ATOM     20  C   UNL     1       4.295   5.281  17.045  0.00  0.00    +0.000 C 
ATOM     21  C   UNL     1       3.334   4.940  18.208  0.00  0.00    +0.000 C 
ATOM     22  C   UNL     1       2.193   4.061  17.656  0.00  0.00    +0.000 C 
ATOM     23  C   UNL     1       4.144   4.104  19.222  0.00  0.00    +0.000 C 
ENDBRANCH  14  21
ENDBRANCH   1  17
TORSDOF 2
ENDMDL
MODEL 4
REMARK VINA RESULT:      -6.6      2.411      2.917
REMARK  Name = 
REMARK  5 active torsions:
REMARK  status: ('A' for Active; 'I' for Inactive)
REMARK    1  A    between atoms: C_1  and  C_2
REMARK    2  A    between atoms: C_2  and  C_3
REMARK    3  A    between atoms: C_2  and  C_4
REMARK    4  A    between atoms: C_2  and  C_5
REMARK    5  A    between atoms: C_8  and  N_9
REMARK                            x       y       z     vdW  Elec       q    Type
REMARK                         _______ _______ _______ _____ _____    ______ ____
ROOT
ATOM      1  N   UNL     1      -0.073   9.935  21.070  0.00  0.00    +0.000 N 
ATOM      2  C   UNL     1       0.007  10.121  22.463  0.00  0.00    +0.000 A 
ATOM      3  O   UNL     1       0.938   9.773  23.184  0.00  0.00    +0.000 OA
ATOM      4  O   UNL     1      -1.081  10.790  23.026  0.00  0.00    +0.000 OA
ATOM      5  C   UNL     1      -1.249  12.008  22.391  0.00  0.00    +0.000 A 
ATOM      6  C   UNL     1      -1.543  13.115  23.172  0.00  0.00    +0.000 A 
ATOM      7  C   UNL     1      -1.526  14.379  22.580  0.00  0.00    +0.000 A 
ATOM      8  C   UNL     1      -1.231  14.505  21.219  0.00  0.00    +0.000 A 
ATOM      9 CL   UNL     1      -1.056  16.073  20.534  0.00  0.00    +0.000 Cl
ATOM     10  C   UNL     1      -1.027  13.378  20.421  0.00  0.00    +0.000 A 
ATOM     11  C   UNL     1      -1.059  12.118  21.017  0.00  0.00    +0.000 A 
ATOM     12  C   UNL     1      -0.809  10.848  20.304  0.00  0.00    +0.000 A 
ATOM     13  S   UNL     1      -1.488  10.559  18.783  0.00  0.00    +0.000 S 
ENDROOT
BRANCH   1  17
ATOM     14  C   UNL     1       2.463   7.032  19.182  0.00  0.00    +0.000 A 
ATOM     15  C   UNL     1       2.234   8.291  18.610  0.00  0.00    +0.000 A 
ATOM     16  C   UNL     1       1.442   9.253  19.252  0.00  0.00    +0.000 A 
ATOM     17  C   UNL     1       0.842   8.991  20.488  0.00  0.00    +0.000 A 
ATOM     18  C   UNL     1       1.085   7.743  21.072  0.00  0.00    +0.000 A 
ATOM     19  C   UNL     1       1.866   6.783  20.428  0.00  0.00    +0.000 A 
BRANCH  14  21
ATOM     20  C   UNL     1       2.342   4.866  17.825  0.00  0.00    +0.000 C 
ATOM     21  C   UNL     1       3.260   5.944  18.443  0.00  0.00    +0.000 C 
ATOM     22  C   UNL     1       4.207   5.260  19.450  0.00  0.00    +0.000 C 
ATOM     23  C   UNL     1       4.112   6.517  17.289  0.00  0.00    +0.000 C 
ENDBRANCH  14  21
ENDBRANCH   1  17
TORSDOF 2
ENDMDL
MODEL 5
REMARK VINA RESULT:      -6.6      5.243      9.318
REMARK  Name = 
REMARK  5 active torsions:
REMARK  status: ('A' for Active; 'I' for Inactive)
REMARK    1  A    between atoms: C_1  and  C_2
REMARK    2  A    between atoms: C_2  and  C_3
REMARK    3  A    between atoms: C_2  and  C_4
REMARK    4  A    between atoms: C_2  and  C_5
REMARK    5  A    between atoms: C_8  and  N_9
REMARK                            x       y       z     vdW  Elec       q    Type
REMARK                         _______ _______ _______ _____ _____    ______ ____
ROOT
ATOM      1  N   UNL     1       4.095   6.017  17.752  0.00  0.00    +0.000 N 
ATOM      2  C   UNL     1       3.475   4.787  17.469  0.00  0.00    +0.000 A 
ATOM      3  O   UNL     1       2.267   4.593  17.375  0.00  0.00    +0.000 OA
ATOM      4  O   UNL     1       4.356   3.725  17.254  0.00  0.00    +0.000 OA
ATOM      5  C   UNL     1       5.240   4.059  16.243  0.00  0.00    +0.000 A 
ATOM      6  C   UNL     1       5.546   3.090  15.300  0.00  0.00    +0.000 A 
ATOM      7  C   UNL     1       6.278   3.459  14.170  0.00  0.00    +0.000 A 
ATOM      8  C   UNL     1       6.699   4.785  14.018  0.00  0.00    +0.000 A 
ATOM      9 CL   UNL     1       7.461   5.266  12.553  0.00  0.00    +0.000 Cl
ATOM     10  C   UNL     1       6.466   5.731  15.016  0.00  0.00    +0.000 A 
ATOM     11  C   UNL     1       5.745   5.351  16.148  0.00  0.00    +0.000 A 
ATOM     12  C   UNL     1       5.382   6.262  17.254  0.00  0.00    +0.000 A 
ATOM     13  S   UNL     1       6.505   7.360  17.878  0.00  0.00    +0.000 S 
ENDROOT
BRANCH   1  17
ATOM     14  C   UNL     1       1.393   8.977  19.290  0.00  0.00    +0.000 A 
ATOM     15  C   UNL     1       1.809   7.886  20.066  0.00  0.00    +0.000 A 
ATOM     16  C   UNL     1       2.727   6.947  19.577  0.00  0.00    +0.000 A 
ATOM     17  C   UNL     1       3.260   7.057  18.288  0.00  0.00    +0.000 A 
ATOM     18  C   UNL     1       2.862   8.155  17.517  0.00  0.00    +0.000 A 
ATOM     19  C   UNL     1       1.943   9.084  18.003  0.00  0.00    +0.000 A 
BRANCH  14  21
ATOM     20  C   UNL     1       0.918  11.353  20.113  0.00  0.00    +0.000 C 
ATOM     21  C   UNL     1       0.324   9.962  19.791  0.00  0.00    +0.000 C 
ATOM     22  C   UNL     1      -0.305   9.390  21.078  0.00  0.00    +0.000 C 
ATOM     23  C   UNL     1      -0.802  10.188  18.759  0.00  0.00    +0.000 C 
ENDBRANCH  14  21
ENDBRANCH   1  17
TORSDOF 2
ENDMDL
MODEL 6
REMARK VINA RESULT:      -6.5      5.156      9.203
REMARK  Name = 
REMARK  5 active torsions:
REMARK  status: ('A' for Active; 'I' for Inactive)
REMARK    1  A    between atoms: C_1  and  C_2
REMARK    2  A    between atoms: C_2  and  C_3
REMARK    3  A    between atoms: C_2  and  C_4
REMARK    4  A    between atoms: C_2  and  C_5
REMARK    5  A    between atoms: C_8  and  N_9
REMARK                            x       y       z     vdW  Elec       q    Type
REMARK                         _______ _______ _______ _____ _____    ______ ____
ROOT
ATOM      1  N   UNL     1       3.868   5.996  17.788  0.00  0.00    +0.000 N 
ATOM      2  C   UNL     1       3.330   4.720  17.540  0.00  0.00    +0.000 A 
ATOM      3  O   UNL     1       2.138   4.448  17.431  0.00  0.00    +0.000 OA
ATOM      4  O   UNL     1       4.278   3.707  17.383  0.00  0.00    +0.000 OA
ATOM      5  C   UNL     1       5.162   4.058  16.376  0.00  0.00    +0.000 A 
ATOM      6  C   UNL     1       5.547   3.076  15.477  0.00  0.00    +0.000 A 
ATOM      7  C   UNL     1       6.278   3.448  14.348  0.00  0.00    +0.000 A 
ATOM      8  C   UNL     1       6.620   4.790  14.153  0.00  0.00    +0.000 A 
ATOM      9 CL   UNL     1       7.382   5.263  12.685  0.00  0.00    +0.000 Cl
ATOM     10  C   UNL     1       6.308   5.757  15.109  0.00  0.00    +0.000 A 
ATOM     11  C   UNL     1       5.588   5.374  16.241  0.00  0.00    +0.000 A 
ATOM     12  C   UNL     1       5.147   6.301  17.305  0.00  0.00    +0.000 A 
ATOM     13  S   UNL     1       6.187   7.490  17.907  0.00  0.00    +0.000 S 
ENDROOT
BRANCH   1  17
ATOM     14  C   UNL     1       1.359   9.147  19.273  0.00  0.00    +0.000 A 
ATOM     15  C   UNL     1       1.813   9.131  17.946  0.00  0.00    +0.000 A 
ATOM     16  C   UNL     1       2.594   8.077  17.453  0.00  0.00    +0.000 A 
ATOM     17  C   UNL     1       2.958   7.001  18.268  0.00  0.00    +0.000 A 
ATOM     18  C   UNL     1       2.490   7.003  19.587  0.00  0.00    +0.000 A 
ATOM     19  C   UNL     1       1.720   8.056  20.079  0.00  0.00    +0.000 A 
BRANCH  14  21
ATOM     20  C   UNL     1       1.210  11.695  19.455  0.00  0.00    +0.000 C 
ATOM     21  C   UNL     1       0.573  10.340  19.841  0.00  0.00    +0.000 C 
ATOM     22  C   UNL     1       0.557  10.230  21.380  0.00  0.00    +0.000 C 
ATOM     23  C   UNL     1      -0.888  10.379  19.342  0.00  0.00    +0.000 C 
ENDBRANCH  14  21
ENDBRANCH   1  17
TORSDOF 2
ENDMDL
MODEL 7
REMARK VINA RESULT:      -6.4      2.403      3.580
REMARK  Name = 
REMARK  5 active torsions:
REMARK  status: ('A' for Active; 'I' for Inactive)
REMARK    1  A    between atoms: C_1  and  C_2
REMARK    2  A    between atoms: C_2  and  C_3
REMARK    3  A    between atoms: C_2  and  C_4
REMARK    4  A    between atoms: C_2  and  C_5
REMARK    5  A    between atoms: C_8  and  N_9
REMARK                            x       y       z     vdW  Elec       q    Type
REMARK                         _______ _______ _______ _____ _____    ______ ____
ROOT
ATOM      1  N   UNL     1       1.698   8.802  19.555  0.00  0.00    +0.000 N 
ATOM      2  C   UNL     1       1.897   9.447  18.321  0.00  0.00    +0.000 A 
ATOM      3  O   UNL     1       1.961   8.900  17.223  0.00  0.00    +0.000 OA
ATOM      4  O   UNL     1       1.998  10.837  18.399  0.00  0.00    +0.000 OA
ATOM      5  C   UNL     1       0.873  11.344  19.027  0.00  0.00    +0.000 A 
ATOM      6  C   UNL     1       0.300  12.494  18.507  0.00  0.00    +0.000 A 
ATOM      7  C   UNL     1      -0.937  12.912  19.002  0.00  0.00    +0.000 A 
ATOM      8  C   UNL     1      -1.563  12.178  20.016  0.00  0.00    +0.000 A 
ATOM      9 CL   UNL     1      -3.154  12.606  20.508  0.00  0.00    +0.000 Cl
ATOM     10  C   UNL     1      -0.935  11.075  20.596  0.00  0.00    +0.000 A 
ATOM     11  C   UNL     1       0.306  10.673  20.105  0.00  0.00    +0.000 A 
ATOM     12  C   UNL     1       1.056   9.495  20.589  0.00  0.00    +0.000 A 
ATOM     13  S   UNL     1       1.186   9.169  22.243  0.00  0.00    +0.000 S 
ENDROOT
BRANCH   1  17
ATOM     14  C   UNL     1       2.494   4.592  19.822  0.00  0.00    +0.000 A 
ATOM     15  C   UNL     1       1.615   5.232  20.707  0.00  0.00    +0.000 A 
ATOM     16  C   UNL     1       1.323   6.598  20.588  0.00  0.00    +0.000 A 
ATOM     17  C   UNL     1       1.903   7.379  19.584  0.00  0.00    +0.000 A 
ATOM     18  C   UNL     1       2.766   6.739  18.686  0.00  0.00    +0.000 A 
ATOM     19  C   UNL     1       3.062   5.383  18.810  0.00  0.00    +0.000 A 
BRANCH  14  21
ATOM     20  C   UNL     1       2.120   2.190  19.023  0.00  0.00    +0.000 C 
ATOM     21  C   UNL     1       2.882   3.115  19.999  0.00  0.00    +0.000 C 
ATOM     22  C   UNL     1       2.543   2.687  21.442  0.00  0.00    +0.000 C 
ATOM     23  C   UNL     1       4.388   2.866  19.761  0.00  0.00    +0.000 C 
ENDBRANCH  14  21
ENDBRANCH   1  17
TORSDOF 2
ENDMDL
MODEL 8
REMARK VINA RESULT:      -6.4      2.863      3.499
REMARK  Name = 
REMARK  5 active torsions:
REMARK  status: ('A' for Active; 'I' for Inactive)
REMARK    1  A    between atoms: C_1  and  C_2
REMARK    2  A    between atoms: C_2  and  C_3
REMARK    3  A    between atoms: C_2  and  C_4
REMARK    4  A    between atoms: C_2  and  C_5
REMARK    5  A    between atoms: C_8  and  N_9
REMARK                            x       y       z     vdW  Elec       q    Type
REMARK                         _______ _______ _______ _____ _____    ______ ____
ROOT
ATOM      1  N   UNL     1       0.628   9.595  20.447  0.00  0.00    +0.000 N 
ATOM      2  C   UNL     1       0.886  10.012  21.765  0.00  0.00    +0.000 A 
ATOM      3  O   UNL     1       1.811   9.628  22.475  0.00  0.00    +0.000 OA
ATOM      4  O   UNL     1      -0.001  10.971  22.258  0.00  0.00    +0.000 OA
ATOM      5  C   UNL     1      -0.018  12.062  21.407  0.00  0.00    +0.000 A 
ATOM      6  C   UNL     1      -0.028  13.328  21.971  0.00  0.00    +0.000 A 
ATOM      7  C   UNL     1       0.150  14.435  21.140  0.00  0.00    +0.000 A 
ATOM      8  C   UNL     1       0.317  14.251  19.763  0.00  0.00    +0.000 A 
ATOM      9 CL   UNL     1       0.693  15.604  18.769  0.00  0.00    +0.000 Cl
ATOM     10  C   UNL     1       0.233  12.980  19.193  0.00  0.00    +0.000 A 
ATOM     11  C   UNL     1       0.042  11.880  20.029  0.00  0.00    +0.000 A 
ATOM     12  C   UNL     1      -0.012  10.477  19.567  0.00  0.00    +0.000 A 
ATOM     13  S   UNL     1      -0.889  10.052  18.185  0.00  0.00    +0.000 S 
ENDROOT
BRANCH   1  17
ATOM     14  C   UNL     1       2.813   6.088  19.282  0.00  0.00    +0.000 A 
ATOM     15  C   UNL     1       1.978   6.094  20.408  0.00  0.00    +0.000 A 
ATOM     16  C   UNL     1       1.231   7.227  20.759  0.00  0.00    +0.000 A 
ATOM     17  C   UNL     1       1.295   8.401  20.002  0.00  0.00    +0.000 A 
ATOM     18  C   UNL     1       2.111   8.392  18.865  0.00  0.00    +0.000 A 
ATOM     19  C   UNL     1       2.860   7.267  18.521  0.00  0.00    +0.000 A 
BRANCH  14  21
ATOM     20  C   UNL     1       5.203   5.197  19.082  0.00  0.00    +0.000 C 
ATOM     21  C   UNL     1       3.697   4.878  18.941  0.00  0.00    +0.000 C 
ATOM     22  C   UNL     1       3.421   4.463  17.481  0.00  0.00    +0.000 C 
ATOM     23  C   UNL     1       3.414   3.663  19.852  0.00  0.00    +0.000 C 
ENDBRANCH  14  21
ENDBRANCH   1  17
TORSDOF 2
ENDMDL
MODEL 9
REMARK VINA RESULT:      -6.4      2.422      3.442
REMARK  Name = 
REMARK  5 active torsions:
REMARK  status: ('A' for Active; 'I' for Inactive)
REMARK    1  A    between atoms: C_1  and  C_2
REMARK    2  A    between atoms: C_2  and  C_3
REMARK    3  A    between atoms: C_2  and  C_4
REMARK    4  A    between atoms: C_2  and  C_5
REMARK    5  A    between atoms: C_8  and  N_9
REMARK                            x       y       z     vdW  Elec       q    Type
REMARK                         _______ _______ _______ _____ _____    ______ ____
ROOT
ATOM      1  N   UNL     1       1.664   8.869  19.616  0.00  0.00    +0.000 N 
ATOM      2  C   UNL     1       1.865   9.470  18.361  0.00  0.00    +0.000 A 
ATOM      3  O   UNL     1       1.971   8.881  17.288  0.00  0.00    +0.000 OA
ATOM      4  O   UNL     1       1.913  10.865  18.382  0.00  0.00    +0.000 OA
ATOM      5  C   UNL     1       0.759  11.355  18.967  0.00  0.00    +0.000 A 
ATOM      6  C   UNL     1       0.155  12.461  18.389  0.00  0.00    +0.000 A 
ATOM      7  C   UNL     1      -1.106  12.852  18.842  0.00  0.00    +0.000 A 
ATOM      8  C   UNL     1      -1.726  12.138  19.873  0.00  0.00    +0.000 A 
ATOM      9 CL   UNL     1      -3.342  12.527  20.317  0.00  0.00    +0.000 Cl
ATOM     10  C   UNL     1      -1.071  11.084  20.511  0.00  0.00    +0.000 A 
ATOM     11  C   UNL     1       0.194  10.708  20.061  0.00  0.00    +0.000 A 
ATOM     12  C   UNL     1       0.976   9.580  20.609  0.00  0.00    +0.000 A 
ATOM     13  S   UNL     1       1.084   9.327  22.277  0.00  0.00    +0.000 S 
ENDROOT
BRANCH   1  17
ATOM     14  C   UNL     1       2.219   4.614  19.743  0.00  0.00    +0.000 A 
ATOM     15  C   UNL     1       2.714   5.389  18.685  0.00  0.00    +0.000 A 
ATOM     16  C   UNL     1       2.571   6.784  18.670  0.00  0.00    +0.000 A 
ATOM     17  C   UNL     1       1.920   7.457  19.709  0.00  0.00    +0.000 A 
ATOM     18  C   UNL     1       1.442   6.688  20.776  0.00  0.00    +0.000 A 
ATOM     19  C   UNL     1       1.578   5.301  20.786  0.00  0.00    +0.000 A 
BRANCH  14  21
ATOM     20  C   UNL     1       1.466   2.466  18.575  0.00  0.00    +0.000 C 
ATOM     21  C   UNL     1       2.300   3.079  19.723  0.00  0.00    +0.000 C 
ATOM     22  C   UNL     1       1.757   2.541  21.062  0.00  0.00    +0.000 C 
ATOM     23  C   UNL     1       3.745   2.565  19.544  0.00  0.00    +0.000 C 
ENDBRANCH  14  21
ENDBRANCH   1  17
TORSDOF 2
ENDMDL
