MODEL 1
REMARK VINA RESULT:      -8.1      0.000      0.000
REMARK  Name = 
REMARK  4 active torsions:
REMARK  status: ('A' for Active; 'I' for Inactive)
REMARK    1  A    between atoms: C_6  and  C_7
REMARK    2  A    between atoms: N_19  and  C_20
REMARK    3  A    between atoms: C_20  and  C_21
REMARK    4  A    between atoms: C_21  and  N_22
REMARK                            x       y       z     vdW  Elec       q    Type
REMARK                         _______ _______ _______ _____ _____    ______ ____
ROOT
ATOM      1  O   UNL     1       1.479  11.348  18.634  0.00  0.00    +0.000 OA
ATOM      2  C   UNL     1       1.262  10.543  19.533  0.00  0.00    +0.000 C 
ATOM      3  C   UNL     1       1.590   9.101  19.329  0.00  0.00    +0.000 A 
ATOM      4  C   UNL     1       1.993   8.660  18.070  0.00  0.00    +0.000 A 
ATOM      5  C   UNL     1       2.348   7.321  17.877  0.00  0.00    +0.000 A 
ATOM      6  C   UNL     1       2.337   6.394  18.937  0.00  0.00    +0.000 A 
ATOM      7  C   UNL     1       1.934   6.867  20.200  0.00  0.00    +0.000 A 
ATOM      8  C   UNL     1       1.535   8.196  20.397  0.00  0.00    +0.000 A 
ATOM      9  C   UNL     1       1.098   8.665  21.757  0.00  0.00    +0.000 C 
ATOM     10  C   UNL     1       0.144   9.840  21.603  0.00  0.00    +0.000 C 
ATOM     11  N   UNL     1       0.744  10.888  20.782  0.00  0.00    +0.000 N 
ENDROOT
BRANCH   6  12
ATOM     12  C   UNL     1       2.740   4.982  18.732  0.00  0.00    +0.000 A 
ATOM     13  C   UNL     1       3.874   4.451  19.382  0.00  0.00    +0.000 A 
ATOM     14  C   UNL     1       4.269   3.123  19.187  0.00  0.00    +0.000 A 
ATOM     15  C   UNL     1       3.526   2.300  18.352  0.00  0.00    +0.000 A 
ATOM     16  F   UNL     1       3.905   1.029  18.172  0.00  0.00    +0.000 F 
ATOM     17  C   UNL     1       2.401   2.777  17.706  0.00  0.00    +0.000 A 
ATOM     18  C   UNL     1       2.022   4.105  17.892  0.00  0.00    +0.000 A 
ATOM     19  F   UNL     1       0.940   4.532  17.224  0.00  0.00    +0.000 F 
ENDBRANCH   6  12
BRANCH  11  20
ATOM     20  C   UNL     1       0.415  12.288  21.061  0.00  0.00    +0.000 C 
BRANCH  20  21
ATOM     21  C   UNL     1      -1.053  12.616  20.716  0.00  0.00    +0.000 C 
BRANCH  21  22
ATOM     22  N   UNL     1      -1.740  13.505  21.670  0.00  0.00    +0.000 NA
ATOM     23  C   UNL     1      -1.525  13.033  23.049  0.00  0.00    +0.000 C 
ATOM     24  C   UNL     1      -2.634  12.026  23.287  0.00  0.00    +0.000 C 
ATOM     25  C   UNL     1      -3.817  12.664  22.589  0.00  0.00    +0.000 C 
ATOM     26  C   UNL     1      -3.205  13.521  21.487  0.00  0.00    +0.000 C 
ENDBRANCH  21  22
ENDBRANCH  20  21
ENDBRANCH  11  20
TORSDOF 4
ENDMDL
MODEL 2
REMARK VINA RESULT:      -7.9      1.182      1.632
REMARK  Name = 
REMARK  4 active torsions:
REMARK  status: ('A' for Active; 'I' for Inactive)
REMARK    1  A    between atoms: C_6  and  C_7
REMARK    2  A    between atoms: N_19  and  C_20
REMARK    3  A    between atoms: C_20  and  C_21
REMARK    4  A    between atoms: C_21  and  N_22
REMARK                            x       y       z     vdW  Elec       q    Type
REMARK                         _______ _______ _______ _____ _____    ______ ____
ROOT
ATOM      1  O   UNL     1       1.171  11.521  18.784  0.00  0.00    +0.000 OA
ATOM      2  C   UNL     1       1.013  10.669  19.652  0.00  0.00    +0.000 C 
ATOM      3  C   UNL     1       1.409   9.256  19.379  0.00  0.00    +0.000 A 
ATOM      4  C   UNL     1       1.806   8.889  18.095  0.00  0.00    +0.000 A 
ATOM      5  C   UNL     1       2.223   7.579  17.837  0.00  0.00    +0.000 A 
ATOM      6  C   UNL     1       2.280   6.609  18.856  0.00  0.00    +0.000 A 
ATOM      7  C   UNL     1       1.882   7.007  20.147  0.00  0.00    +0.000 A 
ATOM      8  C   UNL     1       1.422   8.305  20.409  0.00  0.00    +0.000 A 
ATOM      9  C   UNL     1       0.991   8.693  21.795  0.00  0.00    +0.000 C 
ATOM     10  C   UNL     1      -0.023   9.824  21.711  0.00  0.00    +0.000 C 
ATOM     11  N   UNL     1       0.506  10.934  20.924  0.00  0.00    +0.000 N 
ENDROOT
BRANCH   6  12
ATOM     12  C   UNL     1       2.749   5.228  18.583  0.00  0.00    +0.000 A 
ATOM     13  C   UNL     1       1.938   4.316  17.875  0.00  0.00    +0.000 A 
ATOM     14  C   UNL     1       2.365   3.008  17.621  0.00  0.00    +0.000 A 
ATOM     15  C   UNL     1       3.617   2.597  18.058  0.00  0.00    +0.000 A 
ATOM     16  F   UNL     1       4.024   1.346  17.809  0.00  0.00    +0.000 F 
ATOM     17  C   UNL     1       4.447   3.464  18.745  0.00  0.00    +0.000 A 
ATOM     18  C   UNL     1       4.009   4.759  19.007  0.00  0.00    +0.000 A 
ATOM     19  F   UNL     1       4.837   5.557  19.700  0.00  0.00    +0.000 F 
ENDBRANCH   6  12
BRANCH  11  20
ATOM     20  C   UNL     1       0.114  12.303  21.270  0.00  0.00    +0.000 C 
BRANCH  20  21
ATOM     21  C   UNL     1      -0.791  12.347  22.519  0.00  0.00    +0.000 C 
BRANCH  21  22
ATOM     22  N   UNL     1      -2.187  12.751  22.271  0.00  0.00    +0.000 NA
ATOM     23  C   UNL     1      -2.303  14.219  22.305  0.00  0.00    +0.000 C 
ATOM     24  C   UNL     1      -2.534  14.552  23.767  0.00  0.00    +0.000 C 
ATOM     25  C   UNL     1      -3.450  13.434  24.221  0.00  0.00    +0.000 C 
ATOM     26  C   UNL     1      -3.119  12.261  23.306  0.00  0.00    +0.000 C 
ENDBRANCH  21  22
ENDBRANCH  20  21
ENDBRANCH  11  20
TORSDOF 4
ENDMDL
MODEL 3
REMARK VINA RESULT:      -7.9      1.639      1.940
REMARK  Name = 
REMARK  4 active torsions:
REMARK  status: ('A' for Active; 'I' for Inactive)
REMARK    1  A    between atoms: C_6  and  C_7
REMARK    2  A    between atoms: N_19  and  C_20
REMARK    3  A    between atoms: C_20  and  C_21
REMARK    4  A    between atoms: C_21  and  N_22
REMARK                            x       y       z     vdW  Elec       q    Type
REMARK                         _______ _______ _______ _____ _____    ______ ____
ROOT
ATOM      1  O   UNL     1       0.283  12.026  19.543  0.00  0.00    +0.000 OA
ATOM      2  C   UNL     1       0.423  11.013  20.221  0.00  0.00    +0.000 C 
ATOM      3  C   UNL     1       1.086   9.814  19.628  0.00  0.00    +0.000 A 
ATOM      4  C   UNL     1       1.397   9.803  18.270  0.00  0.00    +0.000 A 
ATOM      5  C   UNL     1       2.059   8.704  17.711  0.00  0.00    +0.000 A 
ATOM      6  C   UNL     1       2.452   7.603  18.495  0.00  0.00    +0.000 A 
ATOM      7  C   UNL     1       2.134   7.643  19.866  0.00  0.00    +0.000 A 
ATOM      8  C   UNL     1       1.433   8.718  20.429  0.00  0.00    +0.000 A 
ATOM      9  C   UNL     1       1.097   8.723  21.894  0.00  0.00    +0.000 C 
ATOM     10  C   UNL     1      -0.146   9.571  22.124  0.00  0.00    +0.000 C 
ATOM     11  N   UNL     1       0.027  10.904  21.554  0.00  0.00    +0.000 N 
ENDROOT
BRANCH   6  12
ATOM     12  C   UNL     1       3.178   6.453  17.903  0.00  0.00    +0.000 A 
ATOM     13  C   UNL     1       4.413   6.637  17.247  0.00  0.00    +0.000 A 
ATOM     14  C   UNL     1       5.101   5.561  16.675  0.00  0.00    +0.000 A 
ATOM     15  C   UNL     1       4.571   4.281  16.765  0.00  0.00    +0.000 A 
ATOM     16  F   UNL     1       5.235   3.253  16.221  0.00  0.00    +0.000 F 
ATOM     17  C   UNL     1       3.370   4.056  17.411  0.00  0.00    +0.000 A 
ATOM     18  C   UNL     1       2.683   5.134  17.965  0.00  0.00    +0.000 A 
ATOM     19  F   UNL     1       1.508   4.872  18.558  0.00  0.00    +0.000 F 
ENDBRANCH   6  12
BRANCH  11  20
ATOM     20  C   UNL     1      -0.614  12.047  22.208  0.00  0.00    +0.000 C 
BRANCH  20  21
ATOM     21  C   UNL     1      -1.903  11.639  22.953  0.00  0.00    +0.000 C 
BRANCH  21  22
ATOM     22  N   UNL     1      -3.045  12.555  22.784  0.00  0.00    +0.000 NA
ATOM     23  C   UNL     1      -2.574  13.951  22.750  0.00  0.00    +0.000 C 
ATOM     24  C   UNL     1      -2.531  14.377  24.206  0.00  0.00    +0.000 C 
ATOM     25  C   UNL     1      -3.769  13.719  24.780  0.00  0.00    +0.000 C 
ATOM     26  C   UNL     1      -4.002  12.493  23.906  0.00  0.00    +0.000 C 
ENDBRANCH  21  22
ENDBRANCH  20  21
ENDBRANCH  11  20
TORSDOF 4
ENDMDL
MODEL 4
REMARK VINA RESULT:      -7.9      2.326      3.249
REMARK  Name = 
REMARK  4 active torsions:
REMARK  status: ('A' for Active; 'I' for Inactive)
REMARK    1  A    between atoms: C_6  and  C_7
REMARK    2  A    between atoms: N_19  and  C_20
REMARK    3  A    between atoms: C_20  and  C_21
REMARK    4  A    between atoms: C_21  and  N_22
REMARK                            x       y       z     vdW  Elec       q    Type
REMARK                         _______ _______ _______ _____ _____    ______ ____
ROOT
ATOM      1  O   UNL     1       0.061  10.294  21.204  0.00  0.00    +0.000 OA
ATOM      2  C   UNL     1       0.686  10.055  20.177  0.00  0.00    +0.000 C 
ATOM      3  C   UNL     1       1.270   8.697  19.967  0.00  0.00    +0.000 A 
ATOM      4  C   UNL     1       1.234   7.766  21.003  0.00  0.00    +0.000 A 
ATOM      5  C   UNL     1       1.736   6.476  20.804  0.00  0.00    +0.000 A 
ATOM      6  C   UNL     1       2.262   6.072  19.562  0.00  0.00    +0.000 A 
ATOM      7  C   UNL     1       2.279   7.028  18.529  0.00  0.00    +0.000 A 
ATOM      8  C   UNL     1       1.818   8.337  18.729  0.00  0.00    +0.000 A 
ATOM      9  C   UNL     1       1.864   9.338  17.608  0.00  0.00    +0.000 C 
ATOM     10  C   UNL     1       1.952  10.742  18.188  0.00  0.00    +0.000 C 
ATOM     11  N   UNL     1       0.872  10.974  19.144  0.00  0.00    +0.000 N 
ENDROOT
BRANCH   6  12
ATOM     12  C   UNL     1       2.768   4.694  19.349  0.00  0.00    +0.000 A 
ATOM     13  C   UNL     1       1.880   3.628  19.094  0.00  0.00    +0.000 A 
ATOM     14  C   UNL     1       2.346   2.323  18.903  0.00  0.00    +0.000 A 
ATOM     15  C   UNL     1       3.710   2.067  18.947  0.00  0.00    +0.000 A 
ATOM     16  F   UNL     1       4.153   0.817  18.758  0.00  0.00    +0.000 F 
ATOM     17  C   UNL     1       4.615   3.085  19.182  0.00  0.00    +0.000 A 
ATOM     18  C   UNL     1       4.142   4.380  19.387  0.00  0.00    +0.000 A 
ATOM     19  F   UNL     1       5.054   5.331  19.638  0.00  0.00    +0.000 F 
ENDBRANCH   6  12
BRANCH  11  20
ATOM     20  C   UNL     1       0.311  12.321  19.272  0.00  0.00    +0.000 C 
BRANCH  20  21
ATOM     21  C   UNL     1      -0.999  12.480  18.471  0.00  0.00    +0.000 C 
BRANCH  21  22
ATOM     22  N   UNL     1      -1.944  11.354  18.580  0.00  0.00    +0.000 NA
ATOM     23  C   UNL     1      -1.781  10.443  17.433  0.00  0.00    +0.000 C 
ATOM     24  C   UNL     1      -2.686  11.014  16.358  0.00  0.00    +0.000 C 
ATOM     25  C   UNL     1      -3.894  11.471  17.149  0.00  0.00    +0.000 C 
ATOM     26  C   UNL     1      -3.355  11.783  18.540  0.00  0.00    +0.000 C 
ENDBRANCH  21  22
ENDBRANCH  20  21
ENDBRANCH  11  20
TORSDOF 4
ENDMDL
MODEL 5
REMARK VINA RESULT:      -7.8      1.758      2.064
REMARK  Name = 
REMARK  4 active torsions:
REMARK  status: ('A' for Active; 'I' for Inactive)
REMARK    1  A    between atoms: C_6  and  C_7
REMARK    2  A    between atoms: N_19  and  C_20
REMARK    3  A    between atoms: C_20  and  C_21
REMARK    4  A    between atoms: C_21  and  N_22
REMARK                            x       y       z     vdW  Elec       q    Type
REMARK                         _______ _______ _______ _____ _____    ______ ____
ROOT
ATOM      1  O   UNL     1       0.172  12.092  19.531  0.00  0.00    +0.000 OA
ATOM      2  C   UNL     1       0.290  11.099  20.242  0.00  0.00    +0.000 C 
ATOM      3  C   UNL     1       0.922   9.865  19.688  0.00  0.00    +0.000 A 
ATOM      4  C   UNL     1       1.230   9.801  18.331  0.00  0.00    +0.000 A 
ATOM      5  C   UNL     1       1.864   8.668  17.809  0.00  0.00    +0.000 A 
ATOM      6  C   UNL     1       2.232   7.585  18.629  0.00  0.00    +0.000 A 
ATOM      7  C   UNL     1       1.917   7.678  19.998  0.00  0.00    +0.000 A 
ATOM      8  C   UNL     1       1.244   8.789  20.526  0.00  0.00    +0.000 A 
ATOM      9  C   UNL     1       0.911   8.850  21.990  0.00  0.00    +0.000 C 
ATOM     10  C   UNL     1      -0.310   9.736  22.193  0.00  0.00    +0.000 C 
ATOM     11  N   UNL     1      -0.107  11.044  21.578  0.00  0.00    +0.000 N 
ENDROOT
BRANCH   6  12
ATOM     12  C   UNL     1       2.928   6.399  18.075  0.00  0.00    +0.000 A 
ATOM     13  C   UNL     1       2.295   5.138  18.040  0.00  0.00    +0.000 A 
ATOM     14  C   UNL     1       2.947   4.010  17.530  0.00  0.00    +0.000 A 
ATOM     15  C   UNL     1       4.237   4.129  17.031  0.00  0.00    +0.000 A 
ATOM     16  F   UNL     1       4.856   3.048  16.539  0.00  0.00    +0.000 F 
ATOM     17  C   UNL     1       4.888   5.348  17.035  0.00  0.00    +0.000 A 
ATOM     18  C   UNL     1       4.239   6.464  17.558  0.00  0.00    +0.000 A 
ATOM     19  F   UNL     1       4.920   7.620  17.567  0.00  0.00    +0.000 F 
ENDBRANCH   6  12
BRANCH  11  20
ATOM     20  C   UNL     1      -0.718  12.224  22.194  0.00  0.00    +0.000 C 
BRANCH  20  21
ATOM     21  C   UNL     1      -2.260  12.169  22.143  0.00  0.00    +0.000 C 
BRANCH  21  22
ATOM     22  N   UNL     1      -2.949  13.380  22.625  0.00  0.00    +0.000 NA
ATOM     23  C   UNL     1      -2.943  13.415  24.098  0.00  0.00    +0.000 C 
ATOM     24  C   UNL     1      -4.175  12.629  24.505  0.00  0.00    +0.000 C 
ATOM     25  C   UNL     1      -5.196  13.051  23.468  0.00  0.00    +0.000 C 
ATOM     26  C   UNL     1      -4.373  13.421  22.239  0.00  0.00    +0.000 C 
ENDBRANCH  21  22
ENDBRANCH  20  21
ENDBRANCH  11  20
TORSDOF 4
ENDMDL
MODEL 6
REMARK VINA RESULT:      -7.7      1.049      1.462
REMARK  Name = 
REMARK  4 active torsions:
REMARK  status: ('A' for Active; 'I' for Inactive)
REMARK    1  A    between atoms: C_6  and  C_7
REMARK    2  A    between atoms: N_19  and  C_20
REMARK    3  A    between atoms: C_20  and  C_21
REMARK    4  A    between atoms: C_21  and  N_22
REMARK                            x       y       z     vdW  Elec       q    Type
REMARK                         _______ _______ _______ _____ _____    ______ ____
ROOT
ATOM      1  O   UNL     1       1.679  11.243  18.331  0.00  0.00    +0.000 OA
ATOM      2  C   UNL     1       1.425  10.470  19.248  0.00  0.00    +0.000 C 
ATOM      3  C   UNL     1       1.728   9.016  19.094  0.00  0.00    +0.000 A 
ATOM      4  C   UNL     1       2.150   8.530  17.858  0.00  0.00    +0.000 A 
ATOM      5  C   UNL     1       2.480   7.178  17.712  0.00  0.00    +0.000 A 
ATOM      6  C   UNL     1       2.426   6.284  18.798  0.00  0.00    +0.000 A 
ATOM      7  C   UNL     1       2.005   6.802  20.038  0.00  0.00    +0.000 A 
ATOM      8  C   UNL     1       1.630   8.145  20.187  0.00  0.00    +0.000 A 
ATOM      9  C   UNL     1       1.172   8.662  21.521  0.00  0.00    +0.000 C 
ATOM     10  C   UNL     1       0.247   9.852  21.311  0.00  0.00    +0.000 C 
ATOM     11  N   UNL     1       0.887  10.862  20.474  0.00  0.00    +0.000 N 
ENDROOT
BRANCH   6  12
ATOM     12  C   UNL     1       2.804   4.858  18.644  0.00  0.00    +0.000 A 
ATOM     13  C   UNL     1       1.933   3.942  18.017  0.00  0.00    +0.000 A 
ATOM     14  C   UNL     1       2.274   2.593  17.877  0.00  0.00    +0.000 A 
ATOM     15  C   UNL     1       3.500   2.141  18.347  0.00  0.00    +0.000 A 
ATOM     16  F   UNL     1       3.825   0.850  18.206  0.00  0.00    +0.000 F 
ATOM     17  C   UNL     1       4.388   3.008  18.956  0.00  0.00    +0.000 A 
ATOM     18  C   UNL     1       4.034   4.347  19.106  0.00  0.00    +0.000 A 
ATOM     19  F   UNL     1       4.915   5.147  19.728  0.00  0.00    +0.000 F 
ENDBRANCH   6  12
BRANCH  11  20
ATOM     20  C   UNL     1       0.582  12.276  20.704  0.00  0.00    +0.000 C 
BRANCH  20  21
ATOM     21  C   UNL     1      -0.911  12.499  21.026  0.00  0.00    +0.000 C 
BRANCH  21  22
ATOM     22  N   UNL     1      -1.194  12.997  22.385  0.00  0.00    +0.000 NA
ATOM     23  C   UNL     1      -2.095  12.067  23.088  0.00  0.00    +0.000 C 
ATOM     24  C   UNL     1      -3.491  12.518  22.701  0.00  0.00    +0.000 C 
ATOM     25  C   UNL     1      -3.363  14.028  22.701  0.00  0.00    +0.000 C 
ATOM     26  C   UNL     1      -1.896  14.296  22.386  0.00  0.00    +0.000 C 
ENDBRANCH  21  22
ENDBRANCH  20  21
ENDBRANCH  11  20
TORSDOF 4
ENDMDL
MODEL 7
REMARK VINA RESULT:      -7.7      2.808      3.469
REMARK  Name = 
REMARK  4 active torsions:
REMARK  status: ('A' for Active; 'I' for Inactive)
REMARK    1  A    between atoms: C_6  and  C_7
REMARK    2  A    between atoms: N_19  and  C_20
REMARK    3  A    between atoms: C_20  and  C_21
REMARK    4  A    between atoms: C_21  and  N_22
REMARK                            x       y       z     vdW  Elec       q    Type
REMARK                         _______ _______ _______ _____ _____    ______ ____
ROOT
ATOM      1  O   UNL     1      -0.187   9.030  21.338  0.00  0.00    +0.000 OA
ATOM      2  C   UNL     1       0.364   9.462  20.331  0.00  0.00    +0.000 C 
ATOM      3  C   UNL     1       1.380   8.624  19.628  0.00  0.00    +0.000 A 
ATOM      4  C   UNL     1       1.805   7.430  20.208  0.00  0.00    +0.000 A 
ATOM      5  C   UNL     1       2.723   6.613  19.538  0.00  0.00    +0.000 A 
ATOM      6  C   UNL     1       3.218   6.951  18.264  0.00  0.00    +0.000 A 
ATOM      7  C   UNL     1       2.767   8.157  17.697  0.00  0.00    +0.000 A 
ATOM      8  C   UNL     1       1.881   9.005  18.377  0.00  0.00    +0.000 A 
ATOM      9  C   UNL     1       1.430  10.294  17.748  0.00  0.00    +0.000 C 
ATOM     10  C   UNL     1       1.057  11.285  18.841  0.00  0.00    +0.000 C 
ATOM     11  N   UNL     1       0.082  10.701  19.756  0.00  0.00    +0.000 N 
ENDROOT
BRANCH   6  12
ATOM     12  C   UNL     1       4.170   6.068  17.547  0.00  0.00    +0.000 A 
ATOM     13  C   UNL     1       5.428   6.549  17.127  0.00  0.00    +0.000 A 
ATOM     14  C   UNL     1       6.329   5.728  16.440  0.00  0.00    +0.000 A 
ATOM     15  C   UNL     1       5.992   4.408  16.177  0.00  0.00    +0.000 A 
ATOM     16  F   UNL     1       6.859   3.624  15.524  0.00  0.00    +0.000 F 
ATOM     17  C   UNL     1       4.775   3.893  16.583  0.00  0.00    +0.000 A 
ATOM     18  C   UNL     1       3.877   4.720  17.253  0.00  0.00    +0.000 A 
ATOM     19  F   UNL     1       2.697   4.186  17.604  0.00  0.00    +0.000 F 
ENDBRANCH   6  12
BRANCH  11  20
ATOM     20  C   UNL     1      -0.919  11.570  20.381  0.00  0.00    +0.000 C 
BRANCH  20  21
ATOM     21  C   UNL     1      -1.967  12.069  19.363  0.00  0.00    +0.000 C 
BRANCH  21  22
ATOM     22  N   UNL     1      -2.955  11.063  18.933  0.00  0.00    +0.000 NA
ATOM     23  C   UNL     1      -2.402  10.244  17.841  0.00  0.00    +0.000 C 
ATOM     24  C   UNL     1      -2.733  11.015  16.577  0.00  0.00    +0.000 C 
ATOM     25  C   UNL     1      -4.122  11.546  16.867  0.00  0.00    +0.000 C 
ATOM     26  C   UNL     1      -4.186  11.665  18.385  0.00  0.00    +0.000 C 
ENDBRANCH  21  22
ENDBRANCH  20  21
ENDBRANCH  11  20
TORSDOF 4
ENDMDL
MODEL 8
REMARK VINA RESULT:      -7.6      2.331      3.717
REMARK  Name = 
REMARK  4 active torsions:
REMARK  status: ('A' for Active; 'I' for Inactive)
REMARK    1  A    between atoms: C_6  and  C_7
REMARK    2  A    between atoms: N_19  and  C_20
REMARK    3  A    between atoms: C_20  and  C_21
REMARK    4  A    between atoms: C_21  and  N_22
REMARK                            x       y       z     vdW  Elec       q    Type
REMARK                         _______ _______ _______ _____ _____    ______ ____
ROOT
ATOM      1  O   UNL     1       0.122  10.474  21.472  0.00  0.00    +0.000 OA
ATOM      2  C   UNL     1       0.725  10.349  20.411  0.00  0.00    +0.000 C 
ATOM      3  C   UNL     1       1.267   9.013  20.024  0.00  0.00    +0.000 A 
ATOM      4  C   UNL     1       1.218   7.961  20.936  0.00  0.00    +0.000 A 
ATOM      5  C   UNL     1       1.680   6.692  20.568  0.00  0.00    +0.000 A 
ATOM      6  C   UNL     1       2.176   6.433  19.276  0.00  0.00    +0.000 A 
ATOM      7  C   UNL     1       2.207   7.511  18.371  0.00  0.00    +0.000 A 
ATOM      8  C   UNL     1       1.787   8.797  18.740  0.00  0.00    +0.000 A 
ATOM      9  C   UNL     1       1.846   9.928  17.753  0.00  0.00    +0.000 C 
ATOM     10  C   UNL     1       1.982  11.245  18.502  0.00  0.00    +0.000 C 
ATOM     11  N   UNL     1       0.923  11.384  19.498  0.00  0.00    +0.000 N 
ENDROOT
BRANCH   6  12
ATOM     12  C   UNL     1       2.640   5.080  18.884  0.00  0.00    +0.000 A 
ATOM     13  C   UNL     1       1.773   4.179  18.231  0.00  0.00    +0.000 A 
ATOM     14  C   UNL     1       2.196   2.896  17.867  0.00  0.00    +0.000 A 
ATOM     15  C   UNL     1       3.499   2.501  18.135  0.00  0.00    +0.000 A 
ATOM     16  F   UNL     1       3.903   1.274  17.780  0.00  0.00    +0.000 F 
ATOM     17  C   UNL     1       4.385   3.358  18.762  0.00  0.00    +0.000 A 
ATOM     18  C   UNL     1       3.952   4.628  19.136  0.00  0.00    +0.000 A 
ATOM     19  F   UNL     1       4.837   5.416  19.766  0.00  0.00    +0.000 F 
ENDBRANCH   6  12
BRANCH  11  20
ATOM     20  C   UNL     1       0.403  12.719  19.803  0.00  0.00    +0.000 C 
BRANCH  20  21
ATOM     21  C   UNL     1       0.787  13.750  18.720  0.00  0.00    +0.000 C 
BRANCH  21  22
ATOM     22  N   UNL     1       1.528  14.928  19.207  0.00  0.00    +0.000 NA
ATOM     23  C   UNL     1       2.566  15.311  18.234  0.00  0.00    +0.000 C 
ATOM     24  C   UNL     1       3.774  14.475  18.611  0.00  0.00    +0.000 C 
ATOM     25  C   UNL     1       3.725  14.486  20.125  0.00  0.00    +0.000 C 
ATOM     26  C   UNL     1       2.251  14.670  20.467  0.00  0.00    +0.000 C 
ENDBRANCH  21  22
ENDBRANCH  20  21
ENDBRANCH  11  20
TORSDOF 4
ENDMDL
MODEL 9
REMARK VINA RESULT:      -7.6      1.857      2.988
REMARK  Name = 
REMARK  4 active torsions:
REMARK  status: ('A' for Active; 'I' for Inactive)
REMARK    1  A    between atoms: C_6  and  C_7
REMARK    2  A    between atoms: N_19  and  C_20
REMARK    3  A    between atoms: C_20  and  C_21
REMARK    4  A    between atoms: C_21  and  N_22
REMARK                            x       y       z     vdW  Elec       q    Type
REMARK                         _______ _______ _______ _____ _____    ______ ____
ROOT
ATOM      1  O   UNL     1       1.684  11.286  18.235  0.00  0.00    +0.000 OA
ATOM      2  C   UNL     1       1.413  10.539  19.169  0.00  0.00    +0.000 C 
ATOM      3  C   UNL     1       1.711   9.080  19.058  0.00  0.00    +0.000 A 
ATOM      4  C   UNL     1       2.148   8.559  17.842  0.00  0.00    +0.000 A 
ATOM      5  C   UNL     1       2.474   7.202  17.737  0.00  0.00    +0.000 A 
ATOM      6  C   UNL     1       2.400   6.338  18.846  0.00  0.00    +0.000 A 
ATOM      7  C   UNL     1       1.964   6.891  20.065  0.00  0.00    +0.000 A 
ATOM      8  C   UNL     1       1.593   8.239  20.172  0.00  0.00    +0.000 A 
ATOM      9  C   UNL     1       1.119   8.794  21.486  0.00  0.00    +0.000 C 
ATOM     10  C   UNL     1       0.202   9.982  21.230  0.00  0.00    +0.000 C 
ATOM     11  N   UNL     1       0.859  10.966  20.376  0.00  0.00    +0.000 N 
ENDROOT
BRANCH   6  12
ATOM     12  C   UNL     1       2.773   4.907  18.736  0.00  0.00    +0.000 A 
ATOM     13  C   UNL     1       3.893   4.395  19.425  0.00  0.00    +0.000 A 
ATOM     14  C   UNL     1       4.260   3.050  19.319  0.00  0.00    +0.000 A 
ATOM     15  C   UNL     1       3.503   2.190  18.535  0.00  0.00    +0.000 A 
ATOM     16  F   UNL     1       3.854   0.902  18.440  0.00  0.00    +0.000 F 
ATOM     17  C   UNL     1       2.391   2.648  17.853  0.00  0.00    +0.000 A 
ATOM     18  C   UNL     1       2.040   3.993  17.951  0.00  0.00    +0.000 A 
ATOM     19  F   UNL     1       0.970   4.399  17.250  0.00  0.00    +0.000 F 
ENDBRANCH   6  12
BRANCH  11  20
ATOM     20  C   UNL     1       0.557  12.387  20.563  0.00  0.00    +0.000 C 
BRANCH  20  21
ATOM     21  C   UNL     1       1.827  13.214  20.858  0.00  0.00    +0.000 C 
BRANCH  21  22
ATOM     22  N   UNL     1       1.766  14.629  20.448  0.00  0.00    +0.000 NA
ATOM     23  C   UNL     1       1.397  14.729  19.025  0.00  0.00    +0.000 C 
ATOM     24  C   UNL     1       2.715  14.636  18.279  0.00  0.00    +0.000 C 
ATOM     25  C   UNL     1       3.652  15.437  19.160  0.00  0.00    +0.000 C 
ATOM     26  C   UNL     1       3.067  15.316  20.563  0.00  0.00    +0.000 C 
ENDBRANCH  21  22
ENDBRANCH  20  21
ENDBRANCH  11  20
TORSDOF 4
ENDMDL
