MODEL 1
REMARK VINA RESULT:      -7.7      0.000      0.000
REMARK  Name = 
REMARK  10 active torsions:
REMARK  status: ('A' for Active; 'I' for Inactive)
REMARK    1  A    between atoms: C_1  and  O_2
REMARK    2  A    between atoms: O_2  and  C_3
REMARK    3  A    between atoms: C_5  and  C_6
REMARK    4  A    between atoms: N_8  and  C_9
REMARK    5  A    between atoms: C_9  and  C_10
REMARK    6  A    between atoms: C_18  and  O_19
REMARK    7  A    between atoms: O_19  and  C_20
REMARK    8  A    between atoms: C_20  and  C_21
REMARK    9  A    between atoms: C_22  and  C_23
REMARK   10  A    between atoms: C_26  and  C_27
REMARK                            x       y       z     vdW  Elec       q    Type
REMARK                         _______ _______ _______ _____ _____    ______ ____
ROOT
ATOM      1  C   UNL     1       2.789   4.651  19.067  0.00  0.00    +0.000 A 
ATOM      2  C   UNL     1       2.307   5.618  19.954  0.00  0.00    +0.000 A 
ATOM      3  C   UNL     1       2.271   6.967  19.589  0.00  0.00    +0.000 A 
ATOM      4  C   UNL     1       2.812   7.376  18.370  0.00  0.00    +0.000 A 
ATOM      5  C   UNL     1       3.383   6.424  17.523  0.00  0.00    +0.000 A 
ATOM      6  C   UNL     1       3.383   5.062  17.863  0.00  0.00    +0.000 A 
ENDROOT
BRANCH   3   7
ATOM      7  C   UNL     1       1.575   7.894  20.514  0.00  0.00    +0.000 C 
ATOM      8  O   UNL     1       1.127   7.482  21.576  0.00  0.00    +0.000 OA
ATOM      9  N   UNL     1       1.408   9.182  20.049  0.00  0.00    +0.000 N 
ATOM     10  H   UNL     1       1.697   9.423  19.113  0.00  0.00    +0.000 HD
BRANCH   9  11
ATOM     11  C   UNL     1       0.596  10.134  20.779  0.00  0.00    +0.000 C 
BRANCH  11  12
ATOM     12  C   UNL     1       0.594  11.528  20.126  0.00  0.00    +0.000 C 
ATOM     13  C   UNL     1       0.096  11.496  18.673  0.00  0.00    +0.000 C 
ATOM     14  C   UNL     1      -1.368  11.071  18.582  0.00  0.00    +0.000 C 
ATOM     15  C   UNL     1      -2.272  11.952  19.442  0.00  0.00    +0.000 C 
ATOM     16  C   UNL     1      -1.762  12.154  20.871  0.00  0.00    +0.000 C 
ATOM     17  C   UNL     1      -0.277  12.512  20.925  0.00  0.00    +0.000 C 
ENDBRANCH  11  12
ENDBRANCH   9  11
ENDBRANCH   3   7
BRANCH   1  19
ATOM     18  C   UNL     1       1.468   2.690  18.905  0.00  0.00    +0.000 C 
ATOM     19  O   UNL     1       2.680   3.313  19.336  0.00  0.00    +0.000 OA
ENDBRANCH   1  19
BRANCH   6  20
ATOM     20  O   UNL     1       3.929   4.263  16.894  0.00  0.00    +0.000 OA
BRANCH  20  21
ATOM     21  C   UNL     1       5.264   3.798  17.105  0.00  0.00    +0.000 C 
BRANCH  21  22
ATOM     22  C   UNL     1       6.221   4.638  16.336  0.00  0.00    +0.000 A 
ATOM     23  C   UNL     1       6.536   4.610  14.950  0.00  0.00    +0.000 A 
ATOM     24  C   UNL     1       5.973   3.758  13.876  0.00  0.00    +0.000 C 
ATOM     25  N   UNL     1       7.474   5.517  14.642  0.00  0.00    +0.000 NA
ATOM     26  O   UNL     1       7.756   6.182  15.819  0.00  0.00    +0.000 OA
ATOM     27  C   UNL     1       6.997   5.671  16.821  0.00  0.00    +0.000 A 
ATOM     28  C   UNL     1       7.132   6.303  18.145  0.00  0.00    +0.000 C 
ENDBRANCH  21  22
ENDBRANCH  20  21
ENDBRANCH   6  20
TORSDOF 7
ENDMDL
MODEL 2
REMARK VINA RESULT:      -7.5      1.590      2.075
REMARK  Name = 
REMARK  10 active torsions:
REMARK  status: ('A' for Active; 'I' for Inactive)
REMARK    1  A    between atoms: C_1  and  O_2
REMARK    2  A    between atoms: O_2  and  C_3
REMARK    3  A    between atoms: C_5  and  C_6
REMARK    4  A    between atoms: N_8  and  C_9
REMARK    5  A    between atoms: C_9  and  C_10
REMARK    6  A    between atoms: C_18  and  O_19
REMARK    7  A    between atoms: O_19  and  C_20
REMARK    8  A    between atoms: C_20  and  C_21
REMARK    9  A    between atoms: C_22  and  C_23
REMARK   10  A    between atoms: C_26  and  C_27
REMARK                            x       y       z     vdW  Elec       q    Type
REMARK                         _______ _______ _______ _____ _____    ______ ____
ROOT
ATOM      1  C   UNL     1       2.830   5.971  19.557  0.00  0.00    +0.000 A 
ATOM      2  C   UNL     1       2.254   7.242  19.640  0.00  0.00    +0.000 A 
ATOM      3  C   UNL     1       2.378   8.152  18.586  0.00  0.00    +0.000 A 
ATOM      4  C   UNL     1       3.166   7.837  17.479  0.00  0.00    +0.000 A 
ATOM      5  C   UNL     1       3.821   6.605  17.437  0.00  0.00    +0.000 A 
ATOM      6  C   UNL     1       3.667   5.669  18.471  0.00  0.00    +0.000 A 
ENDROOT
BRANCH   3   7
ATOM      7  C   UNL     1       1.584   9.401  18.681  0.00  0.00    +0.000 C 
ATOM      8  O   UNL     1       1.919  10.392  18.046  0.00  0.00    +0.000 OA
ATOM      9  N   UNL     1       0.536   9.372  19.578  0.00  0.00    +0.000 N 
ATOM     10  H   UNL     1       0.390   8.558  20.157  0.00  0.00    +0.000 HD
BRANCH   9  11
ATOM     11  C   UNL     1      -0.206  10.576  19.890  0.00  0.00    +0.000 C 
BRANCH  11  12
ATOM     12  C   UNL     1       0.424  11.372  21.047  0.00  0.00    +0.000 C 
ATOM     13  C   UNL     1      -0.460  12.544  21.505  0.00  0.00    +0.000 C 
ATOM     14  C   UNL     1      -1.781  12.062  22.098  0.00  0.00    +0.000 C 
ATOM     15  C   UNL     1      -1.566  11.072  23.240  0.00  0.00    +0.000 C 
ATOM     16  C   UNL     1      -0.578   9.950  22.910  0.00  0.00    +0.000 C 
ATOM     17  C   UNL     1       0.704  10.464  22.256  0.00  0.00    +0.000 C 
ENDBRANCH  11  12
ENDBRANCH   9  11
ENDBRANCH   3   7
BRANCH   1  19
ATOM     18  C   UNL     1       1.348   4.303  20.356  0.00  0.00    +0.000 C 
ATOM     19  O   UNL     1       2.582   5.009  20.500  0.00  0.00    +0.000 OA
ENDBRANCH   1  19
BRANCH   6  20
ATOM     20  O   UNL     1       4.331   4.493  18.241  0.00  0.00    +0.000 OA
BRANCH  20  21
ATOM     21  C   UNL     1       5.736   4.474  18.500  0.00  0.00    +0.000 C 
BRANCH  21  22
ATOM     22  C   UNL     1       6.474   5.032  17.335  0.00  0.00    +0.000 A 
ATOM     23  C   UNL     1       6.469   4.611  15.977  0.00  0.00    +0.000 A 
ATOM     24  C   UNL     1       5.699   3.520  15.335  0.00  0.00    +0.000 C 
ATOM     25  N   UNL     1       7.292   5.360  15.229  0.00  0.00    +0.000 NA
ATOM     26  O   UNL     1       7.815   6.311  16.082  0.00  0.00    +0.000 OA
ATOM     27  C   UNL     1       7.314   6.126  17.329  0.00  0.00    +0.000 A 
ATOM     28  C   UNL     1       7.730   7.093  18.362  0.00  0.00    +0.000 C 
ENDBRANCH  21  22
ENDBRANCH  20  21
ENDBRANCH   6  20
TORSDOF 7
ENDMDL
MODEL 3
REMARK VINA RESULT:      -7.5      0.862      2.152
REMARK  Name = 
REMARK  10 active torsions:
REMARK  status: ('A' for Active; 'I' for Inactive)
REMARK    1  A    between atoms: C_1  and  O_2
REMARK    2  A    between atoms: O_2  and  C_3
REMARK    3  A    between atoms: C_5  and  C_6
REMARK    4  A    between atoms: N_8  and  C_9
REMARK    5  A    between atoms: C_9  and  C_10
REMARK    6  A    between atoms: C_18  and  O_19
REMARK    7  A    between atoms: O_19  and  C_20
REMARK    8  A    between atoms: C_20  and  C_21
REMARK    9  A    between atoms: C_22  and  C_23
REMARK   10  A    between atoms: C_26  and  C_27
REMARK                            x       y       z     vdW  Elec       q    Type
REMARK                         _______ _______ _______ _____ _____    ______ ____
ROOT
ATOM      1  C   UNL     1       2.552   4.838  19.147  0.00  0.00    +0.000 A 
ATOM      2  C   UNL     1       2.112   5.869  19.984  0.00  0.00    +0.000 A 
ATOM      3  C   UNL     1       2.211   7.204  19.583  0.00  0.00    +0.000 A 
ATOM      4  C   UNL     1       2.842   7.530  18.382  0.00  0.00    +0.000 A 
ATOM      5  C   UNL     1       3.368   6.508  17.589  0.00  0.00    +0.000 A 
ATOM      6  C   UNL     1       3.235   5.161  17.965  0.00  0.00    +0.000 A 
ENDROOT
BRANCH   3   7
ATOM      7  C   UNL     1       1.554   8.214  20.448  0.00  0.00    +0.000 C 
ATOM      8  O   UNL     1       1.475   8.031  21.656  0.00  0.00    +0.000 OA
ATOM      9  N   UNL     1       0.987   9.284  19.787  0.00  0.00    +0.000 N 
ATOM     10  H   UNL     1       0.985   9.311  18.778  0.00  0.00    +0.000 HD
BRANCH   9  11
ATOM     11  C   UNL     1       0.170  10.246  20.497  0.00  0.00    +0.000 C 
BRANCH  11  12
ATOM     12  C   UNL     1      -0.150  11.488  19.646  0.00  0.00    +0.000 C 
ATOM     13  C   UNL     1      -1.134  12.441  20.343  0.00  0.00    +0.000 C 
ATOM     14  C   UNL     1      -0.542  13.040  21.616  0.00  0.00    +0.000 C 
ATOM     15  C   UNL     1       0.789  13.740  21.351  0.00  0.00    +0.000 C 
ATOM     16  C   UNL     1       1.776  12.905  20.529  0.00  0.00    +0.000 C 
ATOM     17  C   UNL     1       1.130  12.267  19.300  0.00  0.00    +0.000 C 
ENDBRANCH  11  12
ENDBRANCH   9  11
ENDBRANCH   3   7
BRANCH   1  19
ATOM     18  C   UNL     1       1.434   3.284  20.545  0.00  0.00    +0.000 C 
ATOM     19  O   UNL     1       2.315   3.522  19.445  0.00  0.00    +0.000 OA
ENDBRANCH   1  19
BRANCH   6  20
ATOM     20  O   UNL     1       3.755   4.289  17.045  0.00  0.00    +0.000 OA
BRANCH  20  21
ATOM     21  C   UNL     1       5.071   3.788  17.290  0.00  0.00    +0.000 C 
BRANCH  21  22
ATOM     22  C   UNL     1       6.078   4.664  16.632  0.00  0.00    +0.000 A 
ATOM     23  C   UNL     1       6.974   5.603  17.212  0.00  0.00    +0.000 A 
ATOM     24  C   UNL     1       7.180   5.947  18.638  0.00  0.00    +0.000 C 
ATOM     25  N   UNL     1       7.712   6.217  16.276  0.00  0.00    +0.000 NA
ATOM     26  O   UNL     1       7.338   5.656  15.072  0.00  0.00    +0.000 OA
ATOM     27  C   UNL     1       6.380   4.719  15.287  0.00  0.00    +0.000 A 
ATOM     28  C   UNL     1       5.899   3.978  14.107  0.00  0.00    +0.000 C 
ENDBRANCH  21  22
ENDBRANCH  20  21
ENDBRANCH   6  20
TORSDOF 7
ENDMDL
MODEL 4
REMARK VINA RESULT:      -7.4      1.062      1.116
REMARK  Name = 
REMARK  10 active torsions:
REMARK  status: ('A' for Active; 'I' for Inactive)
REMARK    1  A    between atoms: C_1  and  O_2
REMARK    2  A    between atoms: O_2  and  C_3
REMARK    3  A    between atoms: C_5  and  C_6
REMARK    4  A    between atoms: N_8  and  C_9
REMARK    5  A    between atoms: C_9  and  C_10
REMARK    6  A    between atoms: C_18  and  O_19
REMARK    7  A    between atoms: O_19  and  C_20
REMARK    8  A    between atoms: C_20  and  C_21
REMARK    9  A    between atoms: C_22  and  C_23
REMARK   10  A    between atoms: C_26  and  C_27
REMARK                            x       y       z     vdW  Elec       q    Type
REMARK                         _______ _______ _______ _____ _____    ______ ____
ROOT
ATOM      1  C   UNL     1       2.844   5.107  19.630  0.00  0.00    +0.000 A 
ATOM      2  C   UNL     1       2.231   6.186  20.272  0.00  0.00    +0.000 A 
ATOM      3  C   UNL     1       2.127   7.428  19.639  0.00  0.00    +0.000 A 
ATOM      4  C   UNL     1       2.725   7.632  18.395  0.00  0.00    +0.000 A 
ATOM      5  C   UNL     1       3.421   6.582  17.794  0.00  0.00    +0.000 A 
ATOM      6  C   UNL     1       3.494   5.320  18.404  0.00  0.00    +0.000 A 
ENDROOT
BRANCH   3   7
ATOM      7  C   UNL     1       1.301   8.459  20.315  0.00  0.00    +0.000 C 
ATOM      8  O   UNL     1       1.068   8.371  21.513  0.00  0.00    +0.000 OA
ATOM      9  N   UNL     1       0.769   9.428  19.490  0.00  0.00    +0.000 N 
ATOM     10  H   UNL     1       0.904   9.372  18.491  0.00  0.00    +0.000 HD
BRANCH   9  11
ATOM     11  C   UNL     1      -0.191  10.387  19.996  0.00  0.00    +0.000 C 
BRANCH  11  12
ATOM     12  C   UNL     1       0.482  11.572  20.712  0.00  0.00    +0.000 C 
ATOM     13  C   UNL     1       0.629  12.802  19.803  0.00  0.00    +0.000 C 
ATOM     14  C   UNL     1      -0.726  13.372  19.394  0.00  0.00    +0.000 C 
ATOM     15  C   UNL     1      -1.597  13.700  20.605  0.00  0.00    +0.000 C 
ATOM     16  C   UNL     1      -1.674  12.570  21.636  0.00  0.00    +0.000 C 
ATOM     17  C   UNL     1      -0.305  11.979  21.969  0.00  0.00    +0.000 C 
ENDBRANCH  11  12
ENDBRANCH   9  11
ENDBRANCH   3   7
BRANCH   1  19
ATOM     18  C   UNL     1       1.925   3.658  21.264  0.00  0.00    +0.000 C 
ATOM     19  O   UNL     1       2.811   3.844  20.159  0.00  0.00    +0.000 OA
ENDBRANCH   1  19
BRANCH   6  20
ATOM     20  O   UNL     1       4.164   4.393  17.651  0.00  0.00    +0.000 OA
BRANCH  20  21
ATOM     21  C   UNL     1       5.551   4.198  17.934  0.00  0.00    +0.000 C 
BRANCH  21  22
ATOM     22  C   UNL     1       6.380   4.908  16.923  0.00  0.00    +0.000 A 
ATOM     23  C   UNL     1       6.485   4.684  15.523  0.00  0.00    +0.000 A 
ATOM     24  C   UNL     1       5.768   3.705  14.673  0.00  0.00    +0.000 C 
ATOM     25  N   UNL     1       7.364   5.522  14.957  0.00  0.00    +0.000 NA
ATOM     26  O   UNL     1       7.818   6.337  15.976  0.00  0.00    +0.000 OA
ATOM     27  C   UNL     1       7.218   5.982  17.140  0.00  0.00    +0.000 A 
ATOM     28  C   UNL     1       7.550   6.787  18.330  0.00  0.00    +0.000 C 
ENDBRANCH  21  22
ENDBRANCH  20  21
ENDBRANCH   6  20
TORSDOF 7
ENDMDL
MODEL 5
REMARK VINA RESULT:      -7.4      3.026      8.850
REMARK  Name = 
REMARK  10 active torsions:
REMARK  status: ('A' for Active; 'I' for Inactive)
REMARK    1  A    between atoms: C_1  and  O_2
REMARK    2  A    between atoms: O_2  and  C_3
REMARK    3  A    between atoms: C_5  and  C_6
REMARK    4  A    between atoms: N_8  and  C_9
REMARK    5  A    between atoms: C_9  and  C_10
REMARK    6  A    between atoms: C_18  and  O_19
REMARK    7  A    between atoms: O_19  and  C_20
REMARK    8  A    between atoms: C_20  and  C_21
REMARK    9  A    between atoms: C_22  and  C_23
REMARK   10  A    between atoms: C_26  and  C_27
REMARK                            x       y       z     vdW  Elec       q    Type
REMARK                         _______ _______ _______ _____ _____    ______ ____
ROOT
ATOM      1  C   UNL     1       0.750  10.022  21.056  0.00  0.00    +0.000 A 
ATOM      2  C   UNL     1       1.096   8.672  20.947  0.00  0.00    +0.000 A 
ATOM      3  C   UNL     1       1.644   8.169  19.764  0.00  0.00    +0.000 A 
ATOM      4  C   UNL     1       1.759   8.989  18.642  0.00  0.00    +0.000 A 
ATOM      5  C   UNL     1       1.324  10.313  18.718  0.00  0.00    +0.000 A 
ATOM      6  C   UNL     1       0.812  10.838  19.916  0.00  0.00    +0.000 A 
ENDROOT
BRANCH   3   7
ATOM      7  C   UNL     1       2.152   6.775  19.799  0.00  0.00    +0.000 C 
ATOM      8  O   UNL     1       1.935   6.066  20.773  0.00  0.00    +0.000 OA
ATOM      9  N   UNL     1       2.932   6.400  18.725  0.00  0.00    +0.000 N 
ATOM     10  H   UNL     1       3.169   7.076  18.013  0.00  0.00    +0.000 HD
BRANCH   9  11
ATOM     11  C   UNL     1       3.628   5.130  18.721  0.00  0.00    +0.000 C 
BRANCH  11  12
ATOM     12  C   UNL     1       3.145   4.198  17.595  0.00  0.00    +0.000 C 
ATOM     13  C   UNL     1       3.813   2.815  17.649  0.00  0.00    +0.000 C 
ATOM     14  C   UNL     1       3.435   2.050  18.915  0.00  0.00    +0.000 C 
ATOM     15  C   UNL     1       1.921   1.923  19.074  0.00  0.00    +0.000 C 
ATOM     16  C   UNL     1       1.166   3.242  18.886  0.00  0.00    +0.000 C 
ATOM     17  C   UNL     1       1.620   4.012  17.646  0.00  0.00    +0.000 C 
ENDBRANCH  11  12
ENDBRANCH   9  11
ENDBRANCH   3   7
BRANCH   1  19
ATOM     18  C   UNL     1      -0.129   9.651  23.226  0.00  0.00    +0.000 C 
ATOM     19  O   UNL     1       0.369  10.570  22.252  0.00  0.00    +0.000 OA
ENDBRANCH   1  19
BRANCH   6  20
ATOM     20  O   UNL     1       0.488  12.166  19.831  0.00  0.00    +0.000 OA
BRANCH  20  21
ATOM     21  C   UNL     1      -0.240  12.589  18.677  0.00  0.00    +0.000 C 
BRANCH  21  22
ATOM     22  C   UNL     1      -1.687  12.288  18.851  0.00  0.00    +0.000 A 
ATOM     23  C   UNL     1      -2.518  11.396  18.119  0.00  0.00    +0.000 A 
ATOM     24  C   UNL     1      -2.167  10.491  17.000  0.00  0.00    +0.000 C 
ATOM     25  N   UNL     1      -3.780  11.424  18.568  0.00  0.00    +0.000 NA
ATOM     26  O   UNL     1      -3.784  12.305  19.631  0.00  0.00    +0.000 OA
ATOM     27  C   UNL     1      -2.535  12.803  19.810  0.00  0.00    +0.000 A 
ATOM     28  C   UNL     1      -2.343  13.727  20.942  0.00  0.00    +0.000 C 
ENDBRANCH  21  22
ENDBRANCH  20  21
ENDBRANCH   6  20
TORSDOF 7
ENDMDL
MODEL 6
REMARK VINA RESULT:      -7.4      0.923      1.447
REMARK  Name = 
REMARK  10 active torsions:
REMARK  status: ('A' for Active; 'I' for Inactive)
REMARK    1  A    between atoms: C_1  and  O_2
REMARK    2  A    between atoms: O_2  and  C_3
REMARK    3  A    between atoms: C_5  and  C_6
REMARK    4  A    between atoms: N_8  and  C_9
REMARK    5  A    between atoms: C_9  and  C_10
REMARK    6  A    between atoms: C_18  and  O_19
REMARK    7  A    between atoms: O_19  and  C_20
REMARK    8  A    between atoms: C_20  and  C_21
REMARK    9  A    between atoms: C_22  and  C_23
REMARK   10  A    between atoms: C_26  and  C_27
REMARK                            x       y       z     vdW  Elec       q    Type
REMARK                         _______ _______ _______ _____ _____    ______ ____
ROOT
ATOM      1  C   UNL     1       2.637   5.092  19.506  0.00  0.00    +0.000 A 
ATOM      2  C   UNL     1       2.090   6.108  20.295  0.00  0.00    +0.000 A 
ATOM      3  C   UNL     1       2.002   7.416  19.812  0.00  0.00    +0.000 A 
ATOM      4  C   UNL     1       2.551   7.744  18.572  0.00  0.00    +0.000 A 
ATOM      5  C   UNL     1       3.184   6.750  17.823  0.00  0.00    +0.000 A 
ATOM      6  C   UNL     1       3.239   5.425  18.282  0.00  0.00    +0.000 A 
ENDROOT
BRANCH   3   7
ATOM      7  C   UNL     1       1.243   8.387  20.639  0.00  0.00    +0.000 C 
ATOM      8  O   UNL     1       0.542   7.992  21.561  0.00  0.00    +0.000 OA
ATOM      9  N   UNL     1       1.324   9.703  20.234  0.00  0.00    +0.000 N 
ATOM     10  H   UNL     1       1.825   9.942  19.391  0.00  0.00    +0.000 HD
BRANCH   9  11
ATOM     11  C   UNL     1       0.496  10.720  20.848  0.00  0.00    +0.000 C 
BRANCH  11  12
ATOM     12  C   UNL     1      -0.803  10.975  20.062  0.00  0.00    +0.000 C 
ATOM     13  C   UNL     1      -1.690  12.043  20.722  0.00  0.00    +0.000 C 
ATOM     14  C   UNL     1      -1.019  13.413  20.731  0.00  0.00    +0.000 C 
ATOM     15  C   UNL     1      -0.599  13.853  19.331  0.00  0.00    +0.000 C 
ATOM     16  C   UNL     1       0.167  12.782  18.548  0.00  0.00    +0.000 C 
ATOM     17  C   UNL     1      -0.500  11.409  18.618  0.00  0.00    +0.000 C 
ENDBRANCH  11  12
ENDBRANCH   9  11
ENDBRANCH   3   7
BRANCH   1  19
ATOM     18  C   UNL     1       2.310   3.546  21.273  0.00  0.00    +0.000 C 
ATOM     19  O   UNL     1       2.583   3.778  19.889  0.00  0.00    +0.000 OA
ENDBRANCH   1  19
BRANCH   6  20
ATOM     20  O   UNL     1       3.843   4.570  17.398  0.00  0.00    +0.000 OA
BRANCH  20  21
ATOM     21  C   UNL     1       5.182   4.166  17.689  0.00  0.00    +0.000 C 
BRANCH  21  22
ATOM     22  C   UNL     1       6.133   4.876  16.791  0.00  0.00    +0.000 A 
ATOM     23  C   UNL     1       6.250   4.822  15.375  0.00  0.00    +0.000 A 
ATOM     24  C   UNL     1       5.432   4.070  14.394  0.00  0.00    +0.000 C 
ATOM     25  N   UNL     1       7.254   5.594  14.937  0.00  0.00    +0.000 NA
ATOM     26  O   UNL     1       7.783   6.198  16.060  0.00  0.00    +0.000 OA
ATOM     27  C   UNL     1       7.104   5.785  17.159  0.00  0.00    +0.000 A 
ATOM     28  C   UNL     1       7.505   6.375  18.448  0.00  0.00    +0.000 C 
ENDBRANCH  21  22
ENDBRANCH  20  21
ENDBRANCH   6  20
TORSDOF 7
ENDMDL
MODEL 7
REMARK VINA RESULT:      -7.4      1.092      1.875
REMARK  Name = 
REMARK  10 active torsions:
REMARK  status: ('A' for Active; 'I' for Inactive)
REMARK    1  A    between atoms: C_1  and  O_2
REMARK    2  A    between atoms: O_2  and  C_3
REMARK    3  A    between atoms: C_5  and  C_6
REMARK    4  A    between atoms: N_8  and  C_9
REMARK    5  A    between atoms: C_9  and  C_10
REMARK    6  A    between atoms: C_18  and  O_19
REMARK    7  A    between atoms: O_19  and  C_20
REMARK    8  A    between atoms: C_20  and  C_21
REMARK    9  A    between atoms: C_22  and  C_23
REMARK   10  A    between atoms: C_26  and  C_27
REMARK                            x       y       z     vdW  Elec       q    Type
REMARK                         _______ _______ _______ _____ _____    ______ ____
ROOT
ATOM      1  C   UNL     1       2.816   5.022  19.550  0.00  0.00    +0.000 A 
ATOM      2  C   UNL     1       2.266   6.128  20.205  0.00  0.00    +0.000 A 
ATOM      3  C   UNL     1       2.213   7.375  19.578  0.00  0.00    +0.000 A 
ATOM      4  C   UNL     1       2.802   7.555  18.326  0.00  0.00    +0.000 A 
ATOM      5  C   UNL     1       3.438   6.475  17.711  0.00  0.00    +0.000 A 
ATOM      6  C   UNL     1       3.457   5.208  18.315  0.00  0.00    +0.000 A 
ENDROOT
BRANCH   3   7
ATOM      7  C   UNL     1       1.449   8.442  20.270  0.00  0.00    +0.000 C 
ATOM      8  O   UNL     1       1.260   8.379  21.477  0.00  0.00    +0.000 OA
ATOM      9  N   UNL     1       0.919   9.418  19.451  0.00  0.00    +0.000 N 
ATOM     10  H   UNL     1       1.013   9.344  18.449  0.00  0.00    +0.000 HD
BRANCH   9  11
ATOM     11  C   UNL     1       0.011  10.416  19.980  0.00  0.00    +0.000 C 
BRANCH  11  12
ATOM     12  C   UNL     1       0.745  11.677  20.473  0.00  0.00    +0.000 C 
ATOM     13  C   UNL     1       0.921  12.726  19.364  0.00  0.00    +0.000 C 
ATOM     14  C   UNL     1      -0.419  13.274  18.881  0.00  0.00    +0.000 C 
ATOM     15  C   UNL     1      -1.251  13.840  20.030  0.00  0.00    +0.000 C 
ATOM     16  C   UNL     1      -1.351  12.907  21.240  0.00  0.00    +0.000 C 
ATOM     17  C   UNL     1       0.001  12.325  21.652  0.00  0.00    +0.000 C 
ENDBRANCH  11  12
ENDBRANCH   9  11
ENDBRANCH   3   7
BRANCH   1  19
ATOM     18  C   UNL     1       1.758   3.584  21.109  0.00  0.00    +0.000 C 
ATOM     19  O   UNL     1       2.729   3.760  20.075  0.00  0.00    +0.000 OA
ENDBRANCH   1  19
BRANCH   6  20
ATOM     20  O   UNL     1       4.070   4.252  17.549  0.00  0.00    +0.000 OA
BRANCH  20  21
ATOM     21  C   UNL     1       5.447   3.981  17.819  0.00  0.00    +0.000 C 
BRANCH  21  22
ATOM     22  C   UNL     1       6.310   4.854  16.979  0.00  0.00    +0.000 A 
ATOM     23  C   UNL     1       7.230   5.864  17.375  0.00  0.00    +0.000 A 
ATOM     24  C   UNL     1       7.612   6.303  18.737  0.00  0.00    +0.000 C 
ATOM     25  N   UNL     1       7.802   6.449  16.313  0.00  0.00    +0.000 NA
ATOM     26  O   UNL     1       7.294   5.799  15.206  0.00  0.00    +0.000 OA
ATOM     27  C   UNL     1       6.422   4.840  15.604  0.00  0.00    +0.000 A 
ATOM     28  C   UNL     1       5.821   4.008  14.546  0.00  0.00    +0.000 C 
ENDBRANCH  21  22
ENDBRANCH  20  21
ENDBRANCH   6  20
TORSDOF 7
ENDMDL
MODEL 8
REMARK VINA RESULT:      -7.3      1.449      2.389
REMARK  Name = 
REMARK  10 active torsions:
REMARK  status: ('A' for Active; 'I' for Inactive)
REMARK    1  A    between atoms: C_1  and  O_2
REMARK    2  A    between atoms: O_2  and  C_3
REMARK    3  A    between atoms: C_5  and  C_6
REMARK    4  A    between atoms: N_8  and  C_9
REMARK    5  A    between atoms: C_9  and  C_10
REMARK    6  A    between atoms: C_18  and  O_19
REMARK    7  A    between atoms: O_19  and  C_20
REMARK    8  A    between atoms: C_20  and  C_21
REMARK    9  A    between atoms: C_22  and  C_23
REMARK   10  A    between atoms: C_26  and  C_27
REMARK                            x       y       z     vdW  Elec       q    Type
REMARK                         _______ _______ _______ _____ _____    ______ ____
ROOT
ATOM      1  C   UNL     1       2.421   5.592  19.972  0.00  0.00    +0.000 A 
ATOM      2  C   UNL     1       1.824   6.652  20.660  0.00  0.00    +0.000 A 
ATOM      3  C   UNL     1       1.686   7.906  20.058  0.00  0.00    +0.000 A 
ATOM      4  C   UNL     1       2.234   8.141  18.797  0.00  0.00    +0.000 A 
ATOM      5  C   UNL     1       2.915   7.110  18.147  0.00  0.00    +0.000 A 
ATOM      6  C   UNL     1       3.021   5.836  18.726  0.00  0.00    +0.000 A 
ENDROOT
BRANCH   3   7
ATOM      7  C   UNL     1       0.878   8.915  20.787  0.00  0.00    +0.000 C 
ATOM      8  O   UNL     1       0.394   8.643  21.877  0.00  0.00    +0.000 OA
ATOM      9  N   UNL     1       0.658  10.098  20.113  0.00  0.00    +0.000 N 
ATOM     10  H   UNL     1       0.988  10.209  19.165  0.00  0.00    +0.000 HD
BRANCH   9  11
ATOM     11  C   UNL     1      -0.254  11.092  20.639  0.00  0.00    +0.000 C 
BRANCH  11  12
ATOM     12  C   UNL     1      -1.219  11.633  19.567  0.00  0.00    +0.000 C 
ATOM     13  C   UNL     1      -2.344  12.489  20.167  0.00  0.00    +0.000 C 
ATOM     14  C   UNL     1      -1.807  13.761  20.819  0.00  0.00    +0.000 C 
ATOM     15  C   UNL     1      -0.962  14.584  19.850  0.00  0.00    +0.000 C 
ATOM     16  C   UNL     1       0.093  13.767  19.098  0.00  0.00    +0.000 C 
ATOM     17  C   UNL     1      -0.468  12.469  18.518  0.00  0.00    +0.000 C 
ENDBRANCH  11  12
ENDBRANCH   9  11
ENDBRANCH   3   7
BRANCH   1  19
ATOM     18  C   UNL     1       1.159   3.643  20.447  0.00  0.00    +0.000 C 
ATOM     19  O   UNL     1       2.418   4.318  20.474  0.00  0.00    +0.000 OA
ENDBRANCH   1  19
BRANCH   6  20
ATOM     20  O   UNL     1       3.670   4.931  17.929  0.00  0.00    +0.000 OA
BRANCH  20  21
ATOM     21  C   UNL     1       4.378   5.444  16.798  0.00  0.00    +0.000 C 
BRANCH  21  22
ATOM     22  C   UNL     1       5.800   5.012  16.852  0.00  0.00    +0.000 A 
ATOM     23  C   UNL     1       6.708   5.024  17.947  0.00  0.00    +0.000 A 
ATOM     24  C   UNL     1       6.478   5.439  19.351  0.00  0.00    +0.000 C 
ATOM     25  N   UNL     1       7.917   4.574  17.587  0.00  0.00    +0.000 NA
ATOM     26  O   UNL     1       7.806   4.219  16.257  0.00  0.00    +0.000 OA
ATOM     27  C   UNL     1       6.543   4.463  15.827  0.00  0.00    +0.000 A 
ATOM     28  C   UNL     1       6.232   4.091  14.435  0.00  0.00    +0.000 C 
ENDBRANCH  21  22
ENDBRANCH  20  21
ENDBRANCH   6  20
TORSDOF 7
ENDMDL
MODEL 9
REMARK VINA RESULT:      -7.3      2.595      9.012
REMARK  Name = 
REMARK  10 active torsions:
REMARK  status: ('A' for Active; 'I' for Inactive)
REMARK    1  A    between atoms: C_1  and  O_2
REMARK    2  A    between atoms: O_2  and  C_3
REMARK    3  A    between atoms: C_5  and  C_6
REMARK    4  A    between atoms: N_8  and  C_9
REMARK    5  A    between atoms: C_9  and  C_10
REMARK    6  A    between atoms: C_18  and  O_19
REMARK    7  A    between atoms: O_19  and  C_20
REMARK    8  A    between atoms: C_20  and  C_21
REMARK    9  A    between atoms: C_22  and  C_23
REMARK   10  A    between atoms: C_26  and  C_27
REMARK                            x       y       z     vdW  Elec       q    Type
REMARK                         _______ _______ _______ _____ _____    ______ ____
ROOT
ATOM      1  C   UNL     1       1.215   8.775  20.500  0.00  0.00    +0.000 A 
ATOM      2  C   UNL     1       1.883   7.573  20.248  0.00  0.00    +0.000 A 
ATOM      3  C   UNL     1       2.389   7.292  18.976  0.00  0.00    +0.000 A 
ATOM      4  C   UNL     1       2.145   8.166  17.916  0.00  0.00    +0.000 A 
ATOM      5  C   UNL     1       1.396   9.321  18.145  0.00  0.00    +0.000 A 
ATOM      6  C   UNL     1       0.920   9.632  19.429  0.00  0.00    +0.000 A 
ENDROOT
BRANCH   3   7
ATOM      7  C   UNL     1       3.240   6.084  18.845  0.00  0.00    +0.000 C 
ATOM      8  O   UNL     1       3.906   5.695  19.795  0.00  0.00    +0.000 OA
ATOM      9  N   UNL     1       3.282   5.521  17.586  0.00  0.00    +0.000 N 
ATOM     10  H   UNL     1       2.801   5.965  16.818  0.00  0.00    +0.000 HD
BRANCH   9  11
ATOM     11  C   UNL     1       4.205   4.447  17.285  0.00  0.00    +0.000 C 
BRANCH  11  12
ATOM     12  C   UNL     1       5.112   4.770  16.083  0.00  0.00    +0.000 C 
ATOM     13  C   UNL     1       5.300   6.281  15.878  0.00  0.00    +0.000 C 
ATOM     14  C   UNL     1       6.036   6.927  17.049  0.00  0.00    +0.000 C 
ATOM     15  C   UNL     1       7.378   6.251  17.322  0.00  0.00    +0.000 C 
ATOM     16  C   UNL     1       7.298   4.723  17.394  0.00  0.00    +0.000 C 
ATOM     17  C   UNL     1       6.496   4.118  16.243  0.00  0.00    +0.000 C 
ENDBRANCH  11  12
ENDBRANCH   9  11
ENDBRANCH   3   7
BRANCH   1  19
ATOM     18  C   UNL     1      -0.466   8.789  22.171  0.00  0.00    +0.000 C 
ATOM     19  O   UNL     1       0.858   9.145  21.770  0.00  0.00    +0.000 OA
ENDBRANCH   1  19
BRANCH   6  20
ATOM     20  O   UNL     1       0.256  10.829  19.485  0.00  0.00    +0.000 OA
BRANCH  20  21
ATOM     21  C   UNL     1      -0.582  11.165  18.377  0.00  0.00    +0.000 C 
BRANCH  21  22
ATOM     22  C   UNL     1      -1.903  11.642  18.867  0.00  0.00    +0.000 A 
ATOM     23  C   UNL     1      -2.207  12.482  19.974  0.00  0.00    +0.000 A 
ATOM     24  C   UNL     1      -1.288  13.145  20.929  0.00  0.00    +0.000 C 
ATOM     25  N   UNL     1      -3.528  12.663  20.103  0.00  0.00    +0.000 NA
ATOM     26  O   UNL     1      -4.108  11.978  19.054  0.00  0.00    +0.000 OA
ATOM     27  C   UNL     1      -3.140  11.387  18.310  0.00  0.00    +0.000 A 
ATOM     28  C   UNL     1      -3.580  10.651  17.111  0.00  0.00    +0.000 C 
ENDBRANCH  21  22
ENDBRANCH  20  21
ENDBRANCH   6  20
TORSDOF 7
ENDMDL
