MODEL 1
REMARK VINA RESULT:      -8.5      0.000      0.000
REMARK  Name = 
REMARK  4 active torsions:
REMARK  status: ('A' for Active; 'I' for Inactive)
REMARK    1  A    between atoms: C_2  and  C_11
REMARK    2  A    between atoms: N_3  and  C_4
REMARK    3  A    between atoms: C_4  and  C_5
REMARK    4  A    between atoms: C_16  and  C_17
REMARK                            x       y       z     vdW  Elec       q    Type
REMARK                         _______ _______ _______ _____ _____    ______ ____
ROOT
ATOM      1  C   UNL     1       2.232   5.045  19.644  0.00  0.00    +0.000 A 
ATOM      2  C   UNL     1       1.195   4.471  20.407  0.00  0.00    +0.000 A 
ATOM      3  C   UNL     1       1.061   3.090  20.505  0.00  0.00    +0.000 A 
ATOM      4  C   UNL     1       1.967   2.270  19.848  0.00  0.00    +0.000 A 
ATOM      5  C   UNL     1       3.020   2.833  19.118  0.00  0.00    +0.000 A 
ATOM      6  C   UNL     1       3.198   4.229  18.995  0.00  0.00    +0.000 A 
ENDROOT
BRANCH   6   7
ATOM      7  C   UNL     1       4.365   4.740  18.219  0.00  0.00    +0.000 A 
ATOM      8  C   UNL     1       4.305   4.866  16.815  0.00  0.00    +0.000 A 
ATOM      9  C   UNL     1       5.366   5.401  16.076  0.00  0.00    +0.000 A 
ATOM     10  C   UNL     1       6.502   5.868  16.730  0.00  0.00    +0.000 A 
ATOM     11  C   UNL     1       6.590   5.746  18.111  0.00  0.00    +0.000 A 
ATOM     12 CL   UNL     1       7.954   6.391  18.938  0.00  0.00    +0.000 Cl
ATOM     13  C   UNL     1       5.561   5.145  18.840  0.00  0.00    +0.000 A 
ENDBRANCH   6   7
BRANCH   1  15
ATOM     14  O   UNL     1       2.432   7.120  18.528  0.00  0.00    +0.000 OA
ATOM     15  C   UNL     1       2.199   6.539  19.582  0.00  0.00    +0.000 C 
ATOM     16  N   UNL     1       1.904   7.179  20.762  0.00  0.00    +0.000 N 
ATOM     17  H   UNL     1       1.760   6.625  21.597  0.00  0.00    +0.000 HD
BRANCH  16  18
ATOM     18  C   UNL     1       1.639   8.601  20.846  0.00  0.00    +0.000 C 
BRANCH  18  19
ATOM     19  C   UNL     1       0.133   8.890  20.858  0.00  0.00    +0.000 C 
ATOM     20  C   UNL     1      -0.183  10.342  20.459  0.00  0.00    +0.000 C 
ATOM     21  C   UNL     1       0.199  11.339  21.553  0.00  0.00    +0.000 C 
ATOM     22  N   UNL     1      -0.434  11.014  22.830  0.00  0.00    +0.000 NA
ATOM     23  C   UNL     1      -0.091   9.661  23.274  0.00  0.00    +0.000 C 
ATOM     24  C   UNL     1      -0.481   8.606  22.237  0.00  0.00    +0.000 C 
ATOM     25  H   UNL     1      -1.446  11.075  22.719  0.00  0.00    +0.000 HD
ENDBRANCH  18  19
ENDBRANCH  16  18
ENDBRANCH   1  15
TORSDOF 4
ENDMDL
MODEL 2
REMARK VINA RESULT:      -8.5      1.064      1.458
REMARK  Name = 
REMARK  4 active torsions:
REMARK  status: ('A' for Active; 'I' for Inactive)
REMARK    1  A    between atoms: C_2  and  C_11
REMARK    2  A    between atoms: N_3  and  C_4
REMARK    3  A    between atoms: C_4  and  C_5
REMARK    4  A    between atoms: C_16  and  C_17
REMARK                            x       y       z     vdW  Elec       q    Type
REMARK                         _______ _______ _______ _____ _____    ______ ____
ROOT
ATOM      1  C   UNL     1       2.275   5.068  19.729  0.00  0.00    +0.000 A 
ATOM      2  C   UNL     1       1.196   4.503  20.438  0.00  0.00    +0.000 A 
ATOM      3  C   UNL     1       1.047   3.124  20.533  0.00  0.00    +0.000 A 
ATOM      4  C   UNL     1       1.982   2.296  19.928  0.00  0.00    +0.000 A 
ATOM      5  C   UNL     1       3.076   2.849  19.253  0.00  0.00    +0.000 A 
ATOM      6  C   UNL     1       3.269   4.244  19.135  0.00  0.00    +0.000 A 
ENDROOT
BRANCH   6   7
ATOM      7  C   UNL     1       4.479   4.745  18.420  0.00  0.00    +0.000 A 
ATOM      8  C   UNL     1       5.600   5.219  19.134  0.00  0.00    +0.000 A 
ATOM      9  C   UNL     1       6.767   5.635  18.481  0.00  0.00    +0.000 A 
ATOM     10  C   UNL     1       6.859   5.543  17.096  0.00  0.00    +0.000 A 
ATOM     11  C   UNL     1       5.765   5.089  16.371  0.00  0.00    +0.000 A 
ATOM     12 CL   UNL     1       5.894   4.897  14.665  0.00  0.00    +0.000 Cl
ATOM     13  C   UNL     1       4.575   4.744  17.016  0.00  0.00    +0.000 A 
ENDBRANCH   6   7
BRANCH   1  15
ATOM     14  O   UNL     1       2.580   7.138  18.629  0.00  0.00    +0.000 OA
ATOM     15  C   UNL     1       2.255   6.562  19.660  0.00  0.00    +0.000 C 
ATOM     16  N   UNL     1       1.864   7.207  20.810  0.00  0.00    +0.000 N 
ATOM     17  H   UNL     1       1.648   6.656  21.631  0.00  0.00    +0.000 HD
BRANCH  16  18
ATOM     18  C   UNL     1       1.601   8.630  20.867  0.00  0.00    +0.000 C 
BRANCH  18  19
ATOM     19  C   UNL     1       0.094   8.920  20.891  0.00  0.00    +0.000 C 
ATOM     20  C   UNL     1      -0.222  10.379  20.519  0.00  0.00    +0.000 C 
ATOM     21  C   UNL     1       0.166  11.357  21.628  0.00  0.00    +0.000 C 
ATOM     22  N   UNL     1      -0.461  11.010  22.903  0.00  0.00    +0.000 NA
ATOM     23  C   UNL     1      -0.117   9.649  23.321  0.00  0.00    +0.000 C 
ATOM     24  C   UNL     1      -0.512   8.613  22.268  0.00  0.00    +0.000 C 
ATOM     25  H   UNL     1      -1.474  11.074  22.798  0.00  0.00    +0.000 HD
ENDBRANCH  18  19
ENDBRANCH  16  18
ENDBRANCH   1  15
TORSDOF 4
ENDMDL
MODEL 3
REMARK VINA RESULT:      -8.0      4.269      6.107
REMARK  Name = 
REMARK  4 active torsions:
REMARK  status: ('A' for Active; 'I' for Inactive)
REMARK    1  A    between atoms: C_2  and  C_11
REMARK    2  A    between atoms: N_3  and  C_4
REMARK    3  A    between atoms: C_4  and  C_5
REMARK    4  A    between atoms: C_16  and  C_17
REMARK                            x       y       z     vdW  Elec       q    Type
REMARK                         _______ _______ _______ _____ _____    ______ ____
ROOT
ATOM      1  C   UNL     1       5.276   4.680  15.578  0.00  0.00    +0.000 A 
ATOM      2  C   UNL     1       4.862   4.019  14.404  0.00  0.00    +0.000 A 
ATOM      3  C   UNL     1       5.731   3.858  13.330  0.00  0.00    +0.000 A 
ATOM      4  C   UNL     1       7.026   4.347  13.424  0.00  0.00    +0.000 A 
ATOM      5  C   UNL     1       7.455   4.972  14.601  0.00  0.00    +0.000 A 
ATOM      6  C   UNL     1       6.608   5.154  15.717  0.00  0.00    +0.000 A 
ENDROOT
BRANCH   6   7
ATOM      7  C   UNL     1       7.160   5.808  16.939  0.00  0.00    +0.000 A 
ATOM      8  C   UNL     1       7.510   5.047  18.075  0.00  0.00    +0.000 A 
ATOM      9  C   UNL     1       8.086   5.635  19.207  0.00  0.00    +0.000 A 
ATOM     10  C   UNL     1       8.369   6.997  19.215  0.00  0.00    +0.000 A 
ATOM     11  C   UNL     1       8.024   7.769  18.113  0.00  0.00    +0.000 A 
ATOM     12 CL   UNL     1       8.440   9.439  18.080  0.00  0.00    +0.000 Cl
ATOM     13  C   UNL     1       7.382   7.195  17.013  0.00  0.00    +0.000 A 
ENDBRANCH   6   7
BRANCH   1  15
ATOM     14  O   UNL     1       4.087   5.886  17.228  0.00  0.00    +0.000 OA
ATOM     15  C   UNL     1       4.206   4.834  16.611  0.00  0.00    +0.000 C 
ATOM     16  N   UNL     1       3.402   3.735  16.805  0.00  0.00    +0.000 N 
ATOM     17  H   UNL     1       3.590   2.891  16.279  0.00  0.00    +0.000 HD
BRANCH  16  18
ATOM     18  C   UNL     1       2.202   3.767  17.617  0.00  0.00    +0.000 C 
BRANCH  18  19
ATOM     19  C   UNL     1       1.944   2.411  18.287  0.00  0.00    +0.000 C 
ATOM     20  C   UNL     1       0.809   2.483  19.324  0.00  0.00    +0.000 C 
ATOM     21  C   UNL     1       1.228   3.231  20.589  0.00  0.00    +0.000 C 
ATOM     22  N   UNL     1       2.430   2.653  21.191  0.00  0.00    +0.000 NA
ATOM     23  C   UNL     1       3.552   2.641  20.248  0.00  0.00    +0.000 C 
ATOM     24  C   UNL     1       3.211   1.874  18.969  0.00  0.00    +0.000 C 
ATOM     25  H   UNL     1       2.227   1.694  21.471  0.00  0.00    +0.000 HD
ENDBRANCH  18  19
ENDBRANCH  16  18
ENDBRANCH   1  15
TORSDOF 4
ENDMDL
MODEL 4
REMARK VINA RESULT:      -7.8      3.638      5.745
REMARK  Name = 
REMARK  4 active torsions:
REMARK  status: ('A' for Active; 'I' for Inactive)
REMARK    1  A    between atoms: C_2  and  C_11
REMARK    2  A    between atoms: N_3  and  C_4
REMARK    3  A    between atoms: C_4  and  C_5
REMARK    4  A    between atoms: C_16  and  C_17
REMARK                            x       y       z     vdW  Elec       q    Type
REMARK                         _______ _______ _______ _____ _____    ______ ____
ROOT
ATOM      1  C   UNL     1       5.542   4.128  15.724  0.00  0.00    +0.000 A 
ATOM      2  C   UNL     1       5.142   3.470  14.544  0.00  0.00    +0.000 A 
ATOM      3  C   UNL     1       5.786   3.714  13.336  0.00  0.00    +0.000 A 
ATOM      4  C   UNL     1       6.843   4.612  13.298  0.00  0.00    +0.000 A 
ATOM      5  C   UNL     1       7.270   5.242  14.473  0.00  0.00    +0.000 A 
ATOM      6  C   UNL     1       6.648   5.021  15.722  0.00  0.00    +0.000 A 
ENDROOT
BRANCH   6   7
ATOM      7  C   UNL     1       7.186   5.716  16.927  0.00  0.00    +0.000 A 
ATOM      8  C   UNL     1       7.604   4.987  18.061  0.00  0.00    +0.000 A 
ATOM      9  C   UNL     1       8.169   5.617  19.176  0.00  0.00    +0.000 A 
ATOM     10  C   UNL     1       8.374   6.993  19.166  0.00  0.00    +0.000 A 
ATOM     11  C   UNL     1       7.962   7.734  18.067  0.00  0.00    +0.000 A 
ATOM     12 CL   UNL     1       8.282   9.425  18.011  0.00  0.00    +0.000 Cl
ATOM     13  C   UNL     1       7.331   7.114  16.985  0.00  0.00    +0.000 A 
ENDBRANCH   6   7
BRANCH   1  15
ATOM     14  O   UNL     1       4.446   2.648  17.206  0.00  0.00    +0.000 OA
ATOM     15  C   UNL     1       4.706   3.811  16.923  0.00  0.00    +0.000 C 
ATOM     16  N   UNL     1       4.267   4.894  17.647  0.00  0.00    +0.000 N 
ATOM     17  H   UNL     1       4.497   5.825  17.323  0.00  0.00    +0.000 HD
BRANCH  16  18
ATOM     18  C   UNL     1       3.616   4.773  18.936  0.00  0.00    +0.000 C 
BRANCH  18  19
ATOM     19  C   UNL     1       2.128   5.135  18.848  0.00  0.00    +0.000 C 
ATOM     20  C   UNL     1       1.453   5.157  20.230  0.00  0.00    +0.000 C 
ATOM     21  C   UNL     1       1.262   3.753  20.803  0.00  0.00    +0.000 C 
ATOM     22  N   UNL     1       0.518   2.888  19.888  0.00  0.00    +0.000 NA
ATOM     23  C   UNL     1       1.178   2.787  18.584  0.00  0.00    +0.000 C 
ATOM     24  C   UNL     1       1.368   4.160  17.936  0.00  0.00    +0.000 C 
ATOM     25  H   UNL     1      -0.415   3.279  19.754  0.00  0.00    +0.000 HD
ENDBRANCH  18  19
ENDBRANCH  16  18
ENDBRANCH   1  15
TORSDOF 4
ENDMDL
MODEL 5
REMARK VINA RESULT:      -7.8      3.533      5.942
REMARK  Name = 
REMARK  4 active torsions:
REMARK  status: ('A' for Active; 'I' for Inactive)
REMARK    1  A    between atoms: C_2  and  C_11
REMARK    2  A    between atoms: N_3  and  C_4
REMARK    3  A    between atoms: C_4  and  C_5
REMARK    4  A    between atoms: C_16  and  C_17
REMARK                            x       y       z     vdW  Elec       q    Type
REMARK                         _______ _______ _______ _____ _____    ______ ____
ROOT
ATOM      1  C   UNL     1       5.442   4.274  15.438  0.00  0.00    +0.000 A 
ATOM      2  C   UNL     1       5.083   3.624  14.240  0.00  0.00    +0.000 A 
ATOM      3  C   UNL     1       5.894   3.704  13.113  0.00  0.00    +0.000 A 
ATOM      4  C   UNL     1       7.076   4.428  13.175  0.00  0.00    +0.000 A 
ATOM      5  C   UNL     1       7.457   5.046  14.372  0.00  0.00    +0.000 A 
ATOM      6  C   UNL     1       6.667   4.988  15.542  0.00  0.00    +0.000 A 
ENDROOT
BRANCH   6   7
ATOM      7  C   UNL     1       7.165   5.655  16.780  0.00  0.00    +0.000 A 
ATOM      8  C   UNL     1       7.555   4.899  17.905  0.00  0.00    +0.000 A 
ATOM      9  C   UNL     1       8.082   5.504  19.052  0.00  0.00    +0.000 A 
ATOM     10  C   UNL     1       8.276   6.881  19.085  0.00  0.00    +0.000 A 
ATOM     11  C   UNL     1       7.890   7.648  17.994  0.00  0.00    +0.000 A 
ATOM     12 CL   UNL     1       8.196   9.342  17.992  0.00  0.00    +0.000 Cl
ATOM     13  C   UNL     1       7.296   7.052  16.879  0.00  0.00    +0.000 A 
ENDBRANCH   6   7
BRANCH   1  15
ATOM     14  O   UNL     1       3.570   5.007  16.682  0.00  0.00    +0.000 OA
ATOM     15  C   UNL     1       4.434   4.150  16.535  0.00  0.00    +0.000 C 
ATOM     16  N   UNL     1       4.558   3.039  17.336  0.00  0.00    +0.000 N 
ATOM     17  H   UNL     1       5.323   2.398  17.169  0.00  0.00    +0.000 HD
BRANCH  16  18
ATOM     18  C   UNL     1       3.563   2.657  18.317  0.00  0.00    +0.000 C 
BRANCH  18  19
ATOM     19  C   UNL     1       4.047   2.938  19.745  0.00  0.00    +0.000 C 
ATOM     20  C   UNL     1       2.964   2.637  20.796  0.00  0.00    +0.000 C 
ATOM     21  C   UNL     1       1.839   3.672  20.780  0.00  0.00    +0.000 C 
ATOM     22  N   UNL     1       2.349   5.032  20.952  0.00  0.00    +0.000 NA
ATOM     23  C   UNL     1       3.330   5.375  19.919  0.00  0.00    +0.000 C 
ATOM     24  C   UNL     1       4.505   4.396  19.903  0.00  0.00    +0.000 C 
ATOM     25  H   UNL     1       2.798   5.101  21.865  0.00  0.00    +0.000 HD
ENDBRANCH  18  19
ENDBRANCH  16  18
ENDBRANCH   1  15
TORSDOF 4
ENDMDL
MODEL 6
REMARK VINA RESULT:      -7.8      3.464      6.227
REMARK  Name = 
REMARK  4 active torsions:
REMARK  status: ('A' for Active; 'I' for Inactive)
REMARK    1  A    between atoms: C_2  and  C_11
REMARK    2  A    between atoms: N_3  and  C_4
REMARK    3  A    between atoms: C_4  and  C_5
REMARK    4  A    between atoms: C_16  and  C_17
REMARK                            x       y       z     vdW  Elec       q    Type
REMARK                         _______ _______ _______ _____ _____    ______ ____
ROOT
ATOM      1  C   UNL     1       3.640   3.792  18.843  0.00  0.00    +0.000 A 
ATOM      2  C   UNL     1       3.680   2.393  18.674  0.00  0.00    +0.000 A 
ATOM      3  C   UNL     1       2.509   1.644  18.635  0.00  0.00    +0.000 A 
ATOM      4  C   UNL     1       1.286   2.287  18.757  0.00  0.00    +0.000 A 
ATOM      5  C   UNL     1       1.236   3.679  18.890  0.00  0.00    +0.000 A 
ATOM      6  C   UNL     1       2.399   4.481  18.929  0.00  0.00    +0.000 A 
ENDROOT
BRANCH   6   7
ATOM      7  C   UNL     1       2.250   5.960  19.047  0.00  0.00    +0.000 A 
ATOM      8  C   UNL     1       2.351   6.793  17.912  0.00  0.00    +0.000 A 
ATOM      9  C   UNL     1       2.152   8.176  17.993  0.00  0.00    +0.000 A 
ATOM     10  C   UNL     1       1.802   8.758  19.207  0.00  0.00    +0.000 A 
ATOM     11  C   UNL     1       1.707   7.962  20.340  0.00  0.00    +0.000 A 
ATOM     12 CL   UNL     1       1.198   8.657  21.830  0.00  0.00    +0.000 Cl
ATOM     13  C   UNL     1       1.977   6.592  20.274  0.00  0.00    +0.000 A 
ENDBRANCH   6   7
BRANCH   1  15
ATOM     14  O   UNL     1       5.240   5.207  19.856  0.00  0.00    +0.000 OA
ATOM     15  C   UNL     1       4.983   4.443  18.933  0.00  0.00    +0.000 C 
ATOM     16  N   UNL     1       5.867   4.127  17.929  0.00  0.00    +0.000 N 
ATOM     17  H   UNL     1       5.562   3.515  17.183  0.00  0.00    +0.000 HD
BRANCH  16  18
ATOM     18  C   UNL     1       7.265   4.507  17.957  0.00  0.00    +0.000 C 
BRANCH  18  19
ATOM     19  C   UNL     1       7.634   5.376  16.749  0.00  0.00    +0.000 C 
ATOM     20  C   UNL     1       7.324   6.864  16.987  0.00  0.00    +0.000 C 
ATOM     21  C   UNL     1       5.824   7.154  16.965  0.00  0.00    +0.000 C 
ATOM     22  N   UNL     1       5.200   6.698  15.722  0.00  0.00    +0.000 NA
ATOM     23  C   UNL     1       5.415   5.265  15.505  0.00  0.00    +0.000 C 
ATOM     24  C   UNL     1       6.903   4.910  15.481  0.00  0.00    +0.000 C 
ATOM     25  H   UNL     1       5.609   7.212  14.942  0.00  0.00    +0.000 HD
ENDBRANCH  18  19
ENDBRANCH  16  18
ENDBRANCH   1  15
TORSDOF 4
ENDMDL
MODEL 7
REMARK VINA RESULT:      -7.7      1.359      1.805
REMARK  Name = 
REMARK  4 active torsions:
REMARK  status: ('A' for Active; 'I' for Inactive)
REMARK    1  A    between atoms: C_2  and  C_11
REMARK    2  A    between atoms: N_3  and  C_4
REMARK    3  A    between atoms: C_4  and  C_5
REMARK    4  A    between atoms: C_16  and  C_17
REMARK                            x       y       z     vdW  Elec       q    Type
REMARK                         _______ _______ _______ _____ _____    ______ ____
ROOT
ATOM      1  C   UNL     1       2.250   5.109  19.694  0.00  0.00    +0.000 A 
ATOM      2  C   UNL     1       1.133   4.589  20.379  0.00  0.00    +0.000 A 
ATOM      3  C   UNL     1       0.903   3.219  20.434  0.00  0.00    +0.000 A 
ATOM      4  C   UNL     1       1.792   2.354  19.813  0.00  0.00    +0.000 A 
ATOM      5  C   UNL     1       2.923   2.860  19.162  0.00  0.00    +0.000 A 
ATOM      6  C   UNL     1       3.198   4.244  19.084  0.00  0.00    +0.000 A 
ENDROOT
BRANCH   6   7
ATOM      7  C   UNL     1       4.442   4.692  18.392  0.00  0.00    +0.000 A 
ATOM      8  C   UNL     1       5.571   5.110  19.126  0.00  0.00    +0.000 A 
ATOM      9  C   UNL     1       6.767   5.475  18.496  0.00  0.00    +0.000 A 
ATOM     10  C   UNL     1       6.877   5.386  17.112  0.00  0.00    +0.000 A 
ATOM     11  C   UNL     1       5.776   4.988  16.366  0.00  0.00    +0.000 A 
ATOM     12 CL   UNL     1       5.924   4.799  14.661  0.00  0.00    +0.000 Cl
ATOM     13  C   UNL     1       4.561   4.694  16.990  0.00  0.00    +0.000 A 
ENDBRANCH   6   7
BRANCH   1  15
ATOM     14  O   UNL     1       2.732   7.185  18.671  0.00  0.00    +0.000 OA
ATOM     15  C   UNL     1       2.318   6.602  19.667  0.00  0.00    +0.000 C 
ATOM     16  N   UNL     1       1.901   7.239  20.811  0.00  0.00    +0.000 N 
ATOM     17  H   UNL     1       1.608   6.681  21.604  0.00  0.00    +0.000 HD
BRANCH  16  18
ATOM     18  C   UNL     1       1.715   8.674  20.895  0.00  0.00    +0.000 C 
BRANCH  18  19
ATOM     19  C   UNL     1       0.326   9.089  20.394  0.00  0.00    +0.000 C 
ATOM     20  C   UNL     1       0.395   9.858  19.063  0.00  0.00    +0.000 C 
ATOM     21  C   UNL     1       0.952  11.271  19.240  0.00  0.00    +0.000 C 
ATOM     22  N   UNL     1       0.192  12.035  20.229  0.00  0.00    +0.000 NA
ATOM     23  C   UNL     1       0.172  11.362  21.531  0.00  0.00    +0.000 C 
ATOM     24  C   UNL     1      -0.409   9.950  21.432  0.00  0.00    +0.000 C 
ATOM     25  H   UNL     1      -0.767  12.137  19.899  0.00  0.00    +0.000 HD
ENDBRANCH  18  19
ENDBRANCH  16  18
ENDBRANCH   1  15
TORSDOF 4
ENDMDL
MODEL 8
REMARK VINA RESULT:      -7.7      1.634      1.974
REMARK  Name = 
REMARK  4 active torsions:
REMARK  status: ('A' for Active; 'I' for Inactive)
REMARK    1  A    between atoms: C_2  and  C_11
REMARK    2  A    between atoms: N_3  and  C_4
REMARK    3  A    between atoms: C_4  and  C_5
REMARK    4  A    between atoms: C_16  and  C_17
REMARK                            x       y       z     vdW  Elec       q    Type
REMARK                         _______ _______ _______ _____ _____    ______ ____
ROOT
ATOM      1  C   UNL     1       2.729   5.500  19.456  0.00  0.00    +0.000 A 
ATOM      2  C   UNL     1       1.632   5.273  20.310  0.00  0.00    +0.000 A 
ATOM      3  C   UNL     1       1.450   4.040  20.928  0.00  0.00    +0.000 A 
ATOM      4  C   UNL     1       2.369   3.025  20.704  0.00  0.00    +0.000 A 
ATOM      5  C   UNL     1       3.481   3.255  19.885  0.00  0.00    +0.000 A 
ATOM      6  C   UNL     1       3.707   4.492  19.241  0.00  0.00    +0.000 A 
ENDROOT
BRANCH   6   7
ATOM      7  C   UNL     1       4.934   4.655  18.407  0.00  0.00    +0.000 A 
ATOM      8  C   UNL     1       6.126   5.166  18.961  0.00  0.00    +0.000 A 
ATOM      9  C   UNL     1       7.303   5.268  18.211  0.00  0.00    +0.000 A 
ATOM     10  C   UNL     1       7.329   4.817  16.895  0.00  0.00    +0.000 A 
ATOM     11  C   UNL     1       6.166   4.320  16.323  0.00  0.00    +0.000 A 
ATOM     12 CL   UNL     1       6.205   3.687  14.723  0.00  0.00    +0.000 Cl
ATOM     13  C   UNL     1       4.973   4.286  17.050  0.00  0.00    +0.000 A 
ENDBRANCH   6   7
BRANCH   1  15
ATOM     14  O   UNL     1       3.421   7.054  17.814  0.00  0.00    +0.000 OA
ATOM     15  C   UNL     1       2.745   6.851  18.816  0.00  0.00    +0.000 C 
ATOM     16  N   UNL     1       1.971   7.810  19.427  0.00  0.00    +0.000 N 
ATOM     17  H   UNL     1       1.471   7.569  20.273  0.00  0.00    +0.000 HD
BRANCH  16  18
ATOM     18  C   UNL     1       1.713   9.110  18.841  0.00  0.00    +0.000 C 
BRANCH  18  19
ATOM     19  C   UNL     1       0.360   9.671  19.298  0.00  0.00    +0.000 C 
ATOM     20  C   UNL     1       0.283  11.200  19.141  0.00  0.00    +0.000 C 
ATOM     21  C   UNL     1       1.139  11.931  20.174  0.00  0.00    +0.000 C 
ATOM     22  N   UNL     1       0.793  11.544  21.541  0.00  0.00    +0.000 NA
ATOM     23  C   UNL     1       0.929  10.099  21.742  0.00  0.00    +0.000 C 
ATOM     24  C   UNL     1       0.068   9.303  20.760  0.00  0.00    +0.000 C 
ATOM     25  H   UNL     1      -0.175  11.809  21.721  0.00  0.00    +0.000 HD
ENDBRANCH  18  19
ENDBRANCH  16  18
ENDBRANCH   1  15
TORSDOF 4
ENDMDL
MODEL 9
REMARK VINA RESULT:      -7.7      1.229      1.470
REMARK  Name = 
REMARK  4 active torsions:
REMARK  status: ('A' for Active; 'I' for Inactive)
REMARK    1  A    between atoms: C_2  and  C_11
REMARK    2  A    between atoms: N_3  and  C_4
REMARK    3  A    between atoms: C_4  and  C_5
REMARK    4  A    between atoms: C_16  and  C_17
REMARK                            x       y       z     vdW  Elec       q    Type
REMARK                         _______ _______ _______ _____ _____    ______ ____
ROOT
ATOM      1  C   UNL     1       2.535   5.211  19.681  0.00  0.00    +0.000 A 
ATOM      2  C   UNL     1       1.487   4.858  20.554  0.00  0.00    +0.000 A 
ATOM      3  C   UNL     1       1.422   3.587  21.116  0.00  0.00    +0.000 A 
ATOM      4  C   UNL     1       2.410   2.660  20.817  0.00  0.00    +0.000 A 
ATOM      5  C   UNL     1       3.473   3.015  19.979  0.00  0.00    +0.000 A 
ATOM      6  C   UNL     1       3.582   4.295  19.390  0.00  0.00    +0.000 A 
ENDROOT
BRANCH   6   7
ATOM      7  C   UNL     1       4.764   4.593  18.530  0.00  0.00    +0.000 A 
ATOM      8  C   UNL     1       4.819   4.151  17.191  0.00  0.00    +0.000 A 
ATOM      9  C   UNL     1       5.891   4.475  16.352  0.00  0.00    +0.000 A 
ATOM     10  C   UNL     1       6.918   5.289  16.818  0.00  0.00    +0.000 A 
ATOM     11  C   UNL     1       6.893   5.728  18.135  0.00  0.00    +0.000 A 
ATOM     12 CL   UNL     1       8.116   6.799  18.701  0.00  0.00    +0.000 Cl
ATOM     13  C   UNL     1       5.859   5.344  18.994  0.00  0.00    +0.000 A 
ENDBRANCH   6   7
BRANCH   1  15
ATOM     14  O   UNL     1       2.711   6.794  17.934  0.00  0.00    +0.000 OA
ATOM     15  C   UNL     1       2.425   6.587  19.107  0.00  0.00    +0.000 C 
ATOM     16  N   UNL     1       1.998   7.563  19.976  0.00  0.00    +0.000 N 
ATOM     17  H   UNL     1       1.816   7.315  20.941  0.00  0.00    +0.000 HD
BRANCH  16  18
ATOM     18  C   UNL     1       1.648   8.903  19.551  0.00  0.00    +0.000 C 
BRANCH  18  19
ATOM     19  C   UNL     1       0.370   9.395  20.242  0.00  0.00    +0.000 C 
ATOM     20  C   UNL     1      -0.628  10.013  19.247  0.00  0.00    +0.000 C 
ATOM     21  C   UNL     1      -0.165  11.377  18.736  0.00  0.00    +0.000 C 
ATOM     22  N   UNL     1       0.102  12.308  19.832  0.00  0.00    +0.000 NA
ATOM     23  C   UNL     1       1.106  11.777  20.757  0.00  0.00    +0.000 C 
ATOM     24  C   UNL     1       0.688  10.425  21.337  0.00  0.00    +0.000 C 
ATOM     25  H   UNL     1      -0.765  12.466  20.345  0.00  0.00    +0.000 HD
ENDBRANCH  18  19
ENDBRANCH  16  18
ENDBRANCH   1  15
TORSDOF 4
ENDMDL
