MODEL 1
REMARK VINA RESULT:      -8.1      0.000      0.000
REMARK  Name = 
REMARK  5 active torsions:
REMARK  status: ('A' for Active; 'I' for Inactive)
REMARK    1  A    between atoms: C_1  and  O_2
REMARK    2  A    between atoms: O_2  and  C_3
REMARK    3  A    between atoms: C_5  and  C_6
REMARK    4  A    between atoms: C_14  and  C_15
REMARK    5  A    between atoms: C_18  and  C_19
REMARK                            x       y       z     vdW  Elec       q    Type
REMARK                         _______ _______ _______ _____ _____    ______ ____
ROOT
ATOM      1  C   UNL     1       2.907   6.091  19.550  0.00  0.00    +0.000 A 
ATOM      2  N   UNL     1       2.198   6.987  20.284  0.00  0.00    +0.000 NA
ATOM      3  C   UNL     1       1.838   8.160  19.711  0.00  0.00    +0.000 A 
ATOM      4  C   UNL     1       2.194   8.464  18.403  0.00  0.00    +0.000 A 
ATOM      5  C   UNL     1       2.939   7.544  17.672  0.00  0.00    +0.000 A 
ATOM      6  C   UNL     1       3.318   6.321  18.241  0.00  0.00    +0.000 A 
ENDROOT
BRANCH   3   7
ATOM      7  C   UNL     1       0.998   9.049  20.536  0.00  0.00    +0.000 A 
ATOM      8  C   UNL     1       0.466  10.246  20.028  0.00  0.00    +0.000 A 
ATOM      9  C   UNL     1      -0.370  11.055  20.806  0.00  0.00    +0.000 A 
ATOM     10  C   UNL     1      -0.677  10.682  22.110  0.00  0.00    +0.000 A 
ATOM     11  C   UNL     1      -0.148   9.512  22.643  0.00  0.00    +0.000 A 
ATOM     12  C   UNL     1       0.685   8.706  21.864  0.00  0.00    +0.000 A 
ENDBRANCH   3   7
BRANCH   6  13
ATOM     13  C   UNL     1       4.067   5.373  17.429  0.00  0.00    +0.000 A 
ATOM     14  N   UNL     1       4.173   4.053  17.646  0.00  0.00    +0.000 NA
ATOM     15  O   UNL     1       4.982   3.603  16.605  0.00  0.00    +0.000 OA
ATOM     16  C   UNL     1       5.295   4.694  15.843  0.00  0.00    +0.000 A 
ATOM     17  N   UNL     1       4.747   5.799  16.304  0.00  0.00    +0.000 NA
BRANCH  16  18
ATOM     18  C   UNL     1       6.126   4.646  14.683  0.00  0.00    +0.000 A 
ATOM     19  C   UNL     1       5.953   3.889  13.536  0.00  0.00    +0.000 A 
ATOM     20  C   UNL     1       7.030   4.189  12.669  0.00  0.00    +0.000 A 
ATOM     21  C   UNL     1       7.802   5.111  13.332  0.00  0.00    +0.000 A 
ATOM     22  O   UNL     1       7.267   5.395  14.546  0.00  0.00    +0.000 OA
ENDBRANCH  16  18
ENDBRANCH   6  13
BRANCH   1  24
ATOM     23  C   UNL     1       2.182   4.440  21.020  0.00  0.00    +0.000 C 
ATOM     24  O   UNL     1       3.227   4.902  20.167  0.00  0.00    +0.000 OA
ENDBRANCH   1  24
TORSDOF 4
ENDMDL
MODEL 2
REMARK VINA RESULT:      -8.1      0.411      1.062
REMARK  Name = 
REMARK  5 active torsions:
REMARK  status: ('A' for Active; 'I' for Inactive)
REMARK    1  A    between atoms: C_1  and  O_2
REMARK    2  A    between atoms: O_2  and  C_3
REMARK    3  A    between atoms: C_5  and  C_6
REMARK    4  A    between atoms: C_14  and  C_15
REMARK    5  A    between atoms: C_18  and  C_19
REMARK                            x       y       z     vdW  Elec       q    Type
REMARK                         _______ _______ _______ _____ _____    ______ ____
ROOT
ATOM      1  C   UNL     1       2.595   6.157  19.817  0.00  0.00    +0.000 A 
ATOM      2  N   UNL     1       1.900   7.066  20.550  0.00  0.00    +0.000 NA
ATOM      3  C   UNL     1       1.582   8.254  19.984  0.00  0.00    +0.000 A 
ATOM      4  C   UNL     1       1.967   8.562  18.685  0.00  0.00    +0.000 A 
ATOM      5  C   UNL     1       2.697   7.628  17.955  0.00  0.00    +0.000 A 
ATOM      6  C   UNL     1       3.031   6.389  18.516  0.00  0.00    +0.000 A 
ENDROOT
BRANCH   3   7
ATOM      7  C   UNL     1       0.756   9.158  20.807  0.00  0.00    +0.000 A 
ATOM      8  C   UNL     1       0.556   8.933  22.179  0.00  0.00    +0.000 A 
ATOM      9  C   UNL     1      -0.189   9.827  22.959  0.00  0.00    +0.000 A 
ATOM     10  C   UNL     1      -0.753  10.954  22.373  0.00  0.00    +0.000 A 
ATOM     11  C   UNL     1      -0.586  11.189  21.012  0.00  0.00    +0.000 A 
ATOM     12  C   UNL     1       0.158  10.297  20.237  0.00  0.00    +0.000 A 
ENDBRANCH   3   7
BRANCH   6  13
ATOM     13  C   UNL     1       3.765   5.429  17.705  0.00  0.00    +0.000 A 
ATOM     14  N   UNL     1       3.826   4.104  17.906  0.00  0.00    +0.000 NA
ATOM     15  O   UNL     1       4.640   3.642  16.875  0.00  0.00    +0.000 OA
ATOM     16  C   UNL     1       5.000   4.732  16.133  0.00  0.00    +0.000 A 
ATOM     17  N   UNL     1       4.479   5.848  16.599  0.00  0.00    +0.000 NA
BRANCH  16  18
ATOM     18  C   UNL     1       5.850   4.674  14.987  0.00  0.00    +0.000 A 
ATOM     19  C   UNL     1       5.681   3.927  13.832  0.00  0.00    +0.000 A 
ATOM     20  C   UNL     1       6.780   4.208  12.986  0.00  0.00    +0.000 A 
ATOM     21  C   UNL     1       7.559   5.111  13.668  0.00  0.00    +0.000 A 
ATOM     22  O   UNL     1       7.009   5.399  14.875  0.00  0.00    +0.000 OA
ENDBRANCH  16  18
ENDBRANCH   6  13
BRANCH   1  24
ATOM     23  C   UNL     1       1.692   4.304  20.894  0.00  0.00    +0.000 C 
ATOM     24  O   UNL     1       2.870   4.953  20.426  0.00  0.00    +0.000 OA
ENDBRANCH   1  24
TORSDOF 4
ENDMDL
MODEL 3
REMARK VINA RESULT:      -7.8      0.827      1.003
REMARK  Name = 
REMARK  5 active torsions:
REMARK  status: ('A' for Active; 'I' for Inactive)
REMARK    1  A    between atoms: C_1  and  O_2
REMARK    2  A    between atoms: O_2  and  C_3
REMARK    3  A    between atoms: C_5  and  C_6
REMARK    4  A    between atoms: C_14  and  C_15
REMARK    5  A    between atoms: C_18  and  C_19
REMARK                            x       y       z     vdW  Elec       q    Type
REMARK                         _______ _______ _______ _____ _____    ______ ____
ROOT
ATOM      1  C   UNL     1       2.405   6.176  19.934  0.00  0.00    +0.000 A 
ATOM      2  N   UNL     1       1.774   7.111  20.690  0.00  0.00    +0.000 NA
ATOM      3  C   UNL     1       1.497   8.317  20.140  0.00  0.00    +0.000 A 
ATOM      4  C   UNL     1       1.862   8.615  18.833  0.00  0.00    +0.000 A 
ATOM      5  C   UNL     1       2.528   7.653  18.079  0.00  0.00    +0.000 A 
ATOM      6  C   UNL     1       2.818   6.396  18.624  0.00  0.00    +0.000 A 
ENDROOT
BRANCH   3   7
ATOM      7  C   UNL     1       0.736   9.253  20.989  0.00  0.00    +0.000 A 
ATOM      8  C   UNL     1       0.301  10.500  20.509  0.00  0.00    +0.000 A 
ATOM      9  C   UNL     1      -0.465  11.357  21.309  0.00  0.00    +0.000 A 
ATOM     10  C   UNL     1      -0.796  10.983  22.606  0.00  0.00    +0.000 A 
ATOM     11  C   UNL     1      -0.360   9.762  23.112  0.00  0.00    +0.000 A 
ATOM     12  C   UNL     1       0.401   8.908  22.311  0.00  0.00    +0.000 A 
ENDBRANCH   3   7
BRANCH   6  13
ATOM     13  C   UNL     1       3.486   5.408  17.789  0.00  0.00    +0.000 A 
ATOM     14  N   UNL     1       3.359   4.076  17.882  0.00  0.00    +0.000 NA
ATOM     15  O   UNL     1       4.186   3.586  16.875  0.00  0.00    +0.000 OA
ATOM     16  C   UNL     1       4.743   4.669  16.254  0.00  0.00    +0.000 A 
ATOM     17  N   UNL     1       4.334   5.807  16.774  0.00  0.00    +0.000 NA
BRANCH  16  18
ATOM     18  C   UNL     1       5.668   4.581  15.170  0.00  0.00    +0.000 A 
ATOM     19  C   UNL     1       6.945   5.113  15.089  0.00  0.00    +0.000 A 
ATOM     20  C   UNL     1       7.469   4.754  13.824  0.00  0.00    +0.000 A 
ATOM     21  C   UNL     1       6.486   4.024  13.203  0.00  0.00    +0.000 A 
ATOM     22  O   UNL     1       5.396   3.912  14.004  0.00  0.00    +0.000 OA
ENDBRANCH  16  18
ENDBRANCH   6  13
BRANCH   1  24
ATOM     23  C   UNL     1       1.433   4.253  20.810  0.00  0.00    +0.000 C 
ATOM     24  O   UNL     1       2.640   4.956  20.529  0.00  0.00    +0.000 OA
ENDBRANCH   1  24
TORSDOF 4
ENDMDL
MODEL 4
REMARK VINA RESULT:      -7.7      1.076      1.567
REMARK  Name = 
REMARK  5 active torsions:
REMARK  status: ('A' for Active; 'I' for Inactive)
REMARK    1  A    between atoms: C_1  and  O_2
REMARK    2  A    between atoms: O_2  and  C_3
REMARK    3  A    between atoms: C_5  and  C_6
REMARK    4  A    between atoms: C_14  and  C_15
REMARK    5  A    between atoms: C_18  and  C_19
REMARK                            x       y       z     vdW  Elec       q    Type
REMARK                         _______ _______ _______ _____ _____    ______ ____
ROOT
ATOM      1  C   UNL     1       3.476   5.913  19.101  0.00  0.00    +0.000 A 
ATOM      2  N   UNL     1       2.606   6.703  19.781  0.00  0.00    +0.000 NA
ATOM      3  C   UNL     1       2.239   7.887  19.238  0.00  0.00    +0.000 A 
ATOM      4  C   UNL     1       2.749   8.310  18.016  0.00  0.00    +0.000 A 
ATOM      5  C   UNL     1       3.657   7.498  17.343  0.00  0.00    +0.000 A 
ATOM      6  C   UNL     1       4.045   6.265  17.882  0.00  0.00    +0.000 A 
ENDROOT
BRANCH   3   7
ATOM      7  C   UNL     1       1.227   8.655  19.988  0.00  0.00    +0.000 A 
ATOM      8  C   UNL     1       0.895   8.339  21.317  0.00  0.00    +0.000 A 
ATOM      9  C   UNL     1      -0.029   9.108  22.035  0.00  0.00    +0.000 A 
ATOM     10  C   UNL     1      -0.644  10.197  21.428  0.00  0.00    +0.000 A 
ATOM     11  C   UNL     1      -0.348  10.518  20.108  0.00  0.00    +0.000 A 
ATOM     12  C   UNL     1       0.576   9.752  19.395  0.00  0.00    +0.000 A 
ENDBRANCH   3   7
BRANCH   6  13
ATOM     13  C   UNL     1       4.971   5.432  17.128  0.00  0.00    +0.000 A 
ATOM     14  N   UNL     1       5.849   4.558  17.641  0.00  0.00    +0.000 NA
ATOM     15  O   UNL     1       6.486   4.022  16.524  0.00  0.00    +0.000 OA
ATOM     16  C   UNL     1       5.933   4.619  15.426  0.00  0.00    +0.000 A 
ATOM     17  N   UNL     1       4.992   5.483  15.747  0.00  0.00    +0.000 NA
BRANCH  16  18
ATOM     18  C   UNL     1       6.331   4.346  14.082  0.00  0.00    +0.000 A 
ATOM     19  C   UNL     1       7.339   4.951  13.348  0.00  0.00    +0.000 A 
ATOM     20  C   UNL     1       7.355   4.336  12.074  0.00  0.00    +0.000 A 
ATOM     21  C   UNL     1       6.360   3.391  12.098  0.00  0.00    +0.000 A 
ATOM     22  O   UNL     1       5.736   3.387  13.303  0.00  0.00    +0.000 OA
ENDBRANCH  16  18
ENDBRANCH   6  13
BRANCH   1  24
ATOM     23  C   UNL     1       2.681   3.823  19.742  0.00  0.00    +0.000 C 
ATOM     24  O   UNL     1       3.798   4.706  19.682  0.00  0.00    +0.000 OA
ENDBRANCH   1  24
TORSDOF 4
ENDMDL
MODEL 5
REMARK VINA RESULT:      -7.6      1.747      8.442
REMARK  Name = 
REMARK  5 active torsions:
REMARK  status: ('A' for Active; 'I' for Inactive)
REMARK    1  A    between atoms: C_1  and  O_2
REMARK    2  A    between atoms: O_2  and  C_3
REMARK    3  A    between atoms: C_5  and  C_6
REMARK    4  A    between atoms: C_14  and  C_15
REMARK    5  A    between atoms: C_18  and  C_19
REMARK                            x       y       z     vdW  Elec       q    Type
REMARK                         _______ _______ _______ _____ _____    ______ ____
ROOT
ATOM      1  C   UNL     1       3.612   4.582  17.221  0.00  0.00    +0.000 A 
ATOM      2  N   UNL     1       4.298   4.244  16.099  0.00  0.00    +0.000 NA
ATOM      3  C   UNL     1       5.079   5.178  15.506  0.00  0.00    +0.000 A 
ATOM      4  C   UNL     1       5.173   6.468  16.012  0.00  0.00    +0.000 A 
ATOM      5  C   UNL     1       4.446   6.804  17.150  0.00  0.00    +0.000 A 
ATOM      6  C   UNL     1       3.638   5.853  17.786  0.00  0.00    +0.000 A 
ENDROOT
BRANCH   3   7
ATOM      7  C   UNL     1       5.861   4.718  14.342  0.00  0.00    +0.000 A 
ATOM      8  C   UNL     1       5.357   3.764  13.443  0.00  0.00    +0.000 A 
ATOM      9  C   UNL     1       6.089   3.374  12.314  0.00  0.00    +0.000 A 
ATOM     10  C   UNL     1       7.341   3.927  12.076  0.00  0.00    +0.000 A 
ATOM     11  C   UNL     1       7.871   4.860  12.961  0.00  0.00    +0.000 A 
ATOM     12  C   UNL     1       7.139   5.249  14.085  0.00  0.00    +0.000 A 
ENDBRANCH   3   7
BRANCH   6  13
ATOM     13  C   UNL     1       2.921   6.238  18.993  0.00  0.00    +0.000 A 
ATOM     14  N   UNL     1       2.716   5.469  20.072  0.00  0.00    +0.000 NA
ATOM     15  O   UNL     1       1.994   6.286  20.938  0.00  0.00    +0.000 OA
ATOM     16  C   UNL     1       1.826   7.486  20.307  0.00  0.00    +0.000 A 
ATOM     17  N   UNL     1       2.387   7.506  19.116  0.00  0.00    +0.000 NA
BRANCH  16  18
ATOM     18  C   UNL     1       1.117   8.592  20.867  0.00  0.00    +0.000 A 
ATOM     19  C   UNL     1       0.722   8.778  22.182  0.00  0.00    +0.000 A 
ATOM     20  C   UNL     1       0.058  10.026  22.247  0.00  0.00    +0.000 A 
ATOM     21  C   UNL     1       0.085  10.534  20.972  0.00  0.00    +0.000 A 
ATOM     22  O   UNL     1       0.720   9.679  20.132  0.00  0.00    +0.000 OA
ENDBRANCH  16  18
ENDBRANCH   6  13
BRANCH   1  24
ATOM     23  C   UNL     1       3.635   2.455  18.161  0.00  0.00    +0.000 C 
ATOM     24  O   UNL     1       2.853   3.591  17.803  0.00  0.00    +0.000 OA
ENDBRANCH   1  24
TORSDOF 4
ENDMDL
MODEL 6
REMARK VINA RESULT:      -7.4      1.962      8.435
REMARK  Name = 
REMARK  5 active torsions:
REMARK  status: ('A' for Active; 'I' for Inactive)
REMARK    1  A    between atoms: C_1  and  O_2
REMARK    2  A    between atoms: O_2  and  C_3
REMARK    3  A    between atoms: C_5  and  C_6
REMARK    4  A    between atoms: C_14  and  C_15
REMARK    5  A    between atoms: C_18  and  C_19
REMARK                            x       y       z     vdW  Elec       q    Type
REMARK                         _______ _______ _______ _____ _____    ______ ____
ROOT
ATOM      1  C   UNL     1       3.469   4.362  17.213  0.00  0.00    +0.000 A 
ATOM      2  N   UNL     1       4.145   4.140  16.056  0.00  0.00    +0.000 NA
ATOM      3  C   UNL     1       5.061   5.051  15.651  0.00  0.00    +0.000 A 
ATOM      4  C   UNL     1       5.305   6.206  16.384  0.00  0.00    +0.000 A 
ATOM      5  C   UNL     1       4.588   6.428  17.556  0.00  0.00    +0.000 A 
ATOM      6  C   UNL     1       3.641   5.496  18.000  0.00  0.00    +0.000 A 
ENDROOT
BRANCH   3   7
ATOM      7  C   UNL     1       5.816   4.706  14.432  0.00  0.00    +0.000 A 
ATOM      8  C   UNL     1       7.062   5.289  14.143  0.00  0.00    +0.000 A 
ATOM      9  C   UNL     1       7.792   4.915  13.008  0.00  0.00    +0.000 A 
ATOM     10  C   UNL     1       7.279   3.959  12.139  0.00  0.00    +0.000 A 
ATOM     11  C   UNL     1       6.040   3.381  12.391  0.00  0.00    +0.000 A 
ATOM     12  C   UNL     1       5.315   3.754  13.525  0.00  0.00    +0.000 A 
ENDBRANCH   3   7
BRANCH   6  13
ATOM     13  C   UNL     1       2.939   5.752  19.249  0.00  0.00    +0.000 A 
ATOM     14  N   UNL     1       2.786   4.888  20.264  0.00  0.00    +0.000 NA
ATOM     15  O   UNL     1       2.055   5.603  21.209  0.00  0.00    +0.000 OA
ATOM     16  C   UNL     1       1.830   6.844  20.684  0.00  0.00    +0.000 A 
ATOM     17  N   UNL     1       2.362   6.985  19.488  0.00  0.00    +0.000 NA
BRANCH  16  18
ATOM     18  C   UNL     1       1.095   7.872  21.349  0.00  0.00    +0.000 A 
ATOM     19  C   UNL     1      -0.278   8.057  21.385  0.00  0.00    +0.000 A 
ATOM     20  C   UNL     1      -0.526   9.205  22.175  0.00  0.00    +0.000 A 
ATOM     21  C   UNL     1       0.706   9.658  22.578  0.00  0.00    +0.000 A 
ATOM     22  O   UNL     1       1.690   8.863  22.087  0.00  0.00    +0.000 OA
ENDBRANCH  16  18
ENDBRANCH   6  13
BRANCH   1  24
ATOM     23  C   UNL     1       3.211   2.177  17.968  0.00  0.00    +0.000 C 
ATOM     24  O   UNL     1       2.569   3.393  17.598  0.00  0.00    +0.000 OA
ENDBRANCH   1  24
TORSDOF 4
ENDMDL
MODEL 7
REMARK VINA RESULT:      -7.4      3.787      9.537
REMARK  Name = 
REMARK  5 active torsions:
REMARK  status: ('A' for Active; 'I' for Inactive)
REMARK    1  A    between atoms: C_1  and  O_2
REMARK    2  A    between atoms: O_2  and  C_3
REMARK    3  A    between atoms: C_5  and  C_6
REMARK    4  A    between atoms: C_14  and  C_15
REMARK    5  A    between atoms: C_18  and  C_19
REMARK                            x       y       z     vdW  Elec       q    Type
REMARK                         _______ _______ _______ _____ _____    ______ ____
ROOT
ATOM      1  C   UNL     1       1.448   9.365  18.958  0.00  0.00    +0.000 A 
ATOM      2  N   UNL     1       2.017   8.300  18.337  0.00  0.00    +0.000 NA
ATOM      3  C   UNL     1       2.254   7.176  19.054  0.00  0.00    +0.000 A 
ATOM      4  C   UNL     1       1.944   7.104  20.407  0.00  0.00    +0.000 A 
ATOM      5  C   UNL     1       1.380   8.212  21.033  0.00  0.00    +0.000 A 
ATOM      6  C   UNL     1       1.119   9.382  20.310  0.00  0.00    +0.000 A 
ENDROOT
BRANCH   3   7
ATOM      7  C   UNL     1       2.796   6.031  18.298  0.00  0.00    +0.000 A 
ATOM      8  C   UNL     1       4.088   6.054  17.747  0.00  0.00    +0.000 A 
ATOM      9  C   UNL     1       4.609   4.941  17.075  0.00  0.00    +0.000 A 
ATOM     10  C   UNL     1       3.838   3.793  16.936  0.00  0.00    +0.000 A 
ATOM     11  C   UNL     1       2.549   3.752  17.455  0.00  0.00    +0.000 A 
ATOM     12  C   UNL     1       2.032   4.862  18.127  0.00  0.00    +0.000 A 
ENDBRANCH   3   7
BRANCH   6  13
ATOM     13  C   UNL     1       0.497  10.505  20.996  0.00  0.00    +0.000 A 
ATOM     14  N   UNL     1       1.132  11.567  21.516  0.00  0.00    +0.000 NA
ATOM     15  O   UNL     1       0.108  12.344  22.052  0.00  0.00    +0.000 OA
ATOM     16  C   UNL     1      -1.063  11.686  21.805  0.00  0.00    +0.000 A 
ATOM     17  N   UNL     1      -0.875  10.559  21.151  0.00  0.00    +0.000 NA
BRANCH  16  18
ATOM     18  C   UNL     1      -2.347  12.158  22.215  0.00  0.00    +0.000 A 
ATOM     19  C   UNL     1      -2.866  12.223  23.498  0.00  0.00    +0.000 A 
ATOM     20  C   UNL     1      -4.168  12.768  23.396  0.00  0.00    +0.000 A 
ATOM     21  C   UNL     1      -4.374  13.006  22.060  0.00  0.00    +0.000 A 
ATOM     22  O   UNL     1      -3.284  12.643  21.338  0.00  0.00    +0.000 OA
ENDBRANCH  16  18
ENDBRANCH   6  13
BRANCH   1  24
ATOM     23  C   UNL     1       2.379  11.240  17.944  0.00  0.00    +0.000 C 
ATOM     24  O   UNL     1       1.201  10.474  18.180  0.00  0.00    +0.000 OA
ENDBRANCH   1  24
TORSDOF 4
ENDMDL
MODEL 8
REMARK VINA RESULT:      -7.3      3.769      9.583
REMARK  Name = 
REMARK  5 active torsions:
REMARK  status: ('A' for Active; 'I' for Inactive)
REMARK    1  A    between atoms: C_1  and  O_2
REMARK    2  A    between atoms: O_2  and  C_3
REMARK    3  A    between atoms: C_5  and  C_6
REMARK    4  A    between atoms: C_14  and  C_15
REMARK    5  A    between atoms: C_18  and  C_19
REMARK                            x       y       z     vdW  Elec       q    Type
REMARK                         _______ _______ _______ _____ _____    ______ ____
ROOT
ATOM      1  C   UNL     1       1.414   9.339  19.020  0.00  0.00    +0.000 A 
ATOM      2  N   UNL     1       1.971   8.262  18.409  0.00  0.00    +0.000 NA
ATOM      3  C   UNL     1       2.205   7.146  19.139  0.00  0.00    +0.000 A 
ATOM      4  C   UNL     1       1.902   7.093  20.495  0.00  0.00    +0.000 A 
ATOM      5  C   UNL     1       1.351   8.213  21.110  0.00  0.00    +0.000 A 
ATOM      6  C   UNL     1       1.094   9.377  20.374  0.00  0.00    +0.000 A 
ENDROOT
BRANCH   3   7
ATOM      7  C   UNL     1       2.733   5.987  18.394  0.00  0.00    +0.000 A 
ATOM      8  C   UNL     1       1.982   4.812  18.225  0.00  0.00    +0.000 A 
ATOM      9  C   UNL     1       2.475   3.739  17.472  0.00  0.00    +0.000 A 
ATOM     10  C   UNL     1       3.733   3.824  16.888  0.00  0.00    +0.000 A 
ATOM     11  C   UNL     1       4.505   4.968  17.057  0.00  0.00    +0.000 A 
ATOM     12  C   UNL     1       4.010   6.038  17.806  0.00  0.00    +0.000 A 
ENDBRANCH   3   7
BRANCH   6  13
ATOM     13  C   UNL     1       0.485  10.513  21.050  0.00  0.00    +0.000 A 
ATOM     14  N   UNL     1       1.119  11.618  21.470  0.00  0.00    +0.000 NA
ATOM     15  O   UNL     1       0.110  12.390  22.042  0.00  0.00    +0.000 OA
ATOM     16  C   UNL     1      -1.053  11.683  21.915  0.00  0.00    +0.000 A 
ATOM     17  N   UNL     1      -0.873  10.531  21.304  0.00  0.00    +0.000 NA
BRANCH  16  18
ATOM     18  C   UNL     1      -2.319  12.135  22.396  0.00  0.00    +0.000 A 
ATOM     19  C   UNL     1      -3.323  12.778  21.690  0.00  0.00    +0.000 A 
ATOM     20  C   UNL     1      -4.384  13.018  22.595  0.00  0.00    +0.000 A 
ATOM     21  C   UNL     1      -3.972  12.508  23.802  0.00  0.00    +0.000 A 
ATOM     22  O   UNL     1      -2.730  11.974  23.694  0.00  0.00    +0.000 OA
ENDBRANCH  16  18
ENDBRANCH   6  13
BRANCH   1  24
ATOM     23  C   UNL     1       2.354  11.190  17.972  0.00  0.00    +0.000 C 
ATOM     24  O   UNL     1       1.171  10.440  18.230  0.00  0.00    +0.000 OA
ENDBRANCH   1  24
TORSDOF 4
ENDMDL
MODEL 9
REMARK VINA RESULT:      -7.3      3.537      9.408
REMARK  Name = 
REMARK  5 active torsions:
REMARK  status: ('A' for Active; 'I' for Inactive)
REMARK    1  A    between atoms: C_1  and  O_2
REMARK    2  A    between atoms: O_2  and  C_3
REMARK    3  A    between atoms: C_5  and  C_6
REMARK    4  A    between atoms: C_14  and  C_15
REMARK    5  A    between atoms: C_18  and  C_19
REMARK                            x       y       z     vdW  Elec       q    Type
REMARK                         _______ _______ _______ _____ _____    ______ ____
ROOT
ATOM      1  C   UNL     1       1.531   8.906  19.662  0.00  0.00    +0.000 A 
ATOM      2  N   UNL     1       2.177   8.043  18.836  0.00  0.00    +0.000 NA
ATOM      3  C   UNL     1       2.393   6.774  19.259  0.00  0.00    +0.000 A 
ATOM      4  C   UNL     1       1.983   6.353  20.518  0.00  0.00    +0.000 A 
ATOM      5  C   UNL     1       1.342   7.257  21.360  0.00  0.00    +0.000 A 
ATOM      6  C   UNL     1       1.101   8.572  20.942  0.00  0.00    +0.000 A 
ENDROOT
BRANCH   3   7
ATOM      7  C   UNL     1       3.024   5.868  18.281  0.00  0.00    +0.000 A 
ATOM      8  C   UNL     1       4.160   6.247  17.546  0.00  0.00    +0.000 A 
ATOM      9  C   UNL     1       4.779   5.359  16.659  0.00  0.00    +0.000 A 
ATOM     10  C   UNL     1       4.262   4.081  16.485  0.00  0.00    +0.000 A 
ATOM     11  C   UNL     1       3.126   3.687  17.185  0.00  0.00    +0.000 A 
ATOM     12  C   UNL     1       2.512   4.574  18.071  0.00  0.00    +0.000 A 
ENDBRANCH   3   7
BRANCH   6  13
ATOM     13  C   UNL     1       0.397   9.475  21.841  0.00  0.00    +0.000 A 
ATOM     14  N   UNL     1       0.682   9.688  23.134  0.00  0.00    +0.000 NA
ATOM     15  O   UNL     1      -0.266  10.624  23.540  0.00  0.00    +0.000 OA
ATOM     16  C   UNL     1      -1.044  10.901  22.451  0.00  0.00    +0.000 A 
ATOM     17  N   UNL     1      -0.668  10.227  21.384  0.00  0.00    +0.000 NA
BRANCH  16  18
ATOM     18  C   UNL     1      -2.145  11.810  22.466  0.00  0.00    +0.000 A 
ATOM     19  C   UNL     1      -2.475  12.771  21.524  0.00  0.00    +0.000 A 
ATOM     20  C   UNL     1      -3.651  13.415  21.976  0.00  0.00    +0.000 A 
ATOM     21  C   UNL     1      -3.976  12.814  23.167  0.00  0.00    +0.000 A 
ATOM     22  O   UNL     1      -3.076  11.845  23.473  0.00  0.00    +0.000 OA
ENDBRANCH  16  18
ENDBRANCH   6  13
BRANCH   1  24
ATOM     23  C   UNL     1       0.402  10.184  18.080  0.00  0.00    +0.000 C 
ATOM     24  O   UNL     1       1.311  10.176  19.177  0.00  0.00    +0.000 OA
ENDBRANCH   1  24
TORSDOF 4
ENDMDL
