MODEL 1
REMARK VINA RESULT:      -7.6      0.000      0.000
REMARK  Name = 
REMARK  14 active torsions:
REMARK  status: ('A' for Active; 'I' for Inactive)
REMARK    1  A    between atoms: C_1  and  O_2
REMARK    2  A    between atoms: O_2  and  C_3
REMARK    3  A    between atoms: C_8  and  C_9
REMARK    4  A    between atoms: C_9  and  S_10
REMARK    5  A    between atoms: S_10  and  C_11
REMARK    6  A    between atoms: C_16  and  O_17
REMARK    7  A    between atoms: O_17  and  C_18
REMARK    8  A    between atoms: C_18  and  C_19
REMARK    9  A    between atoms: C_19  and  C_20
REMARK   10  A    between atoms: C_20  and  N_21
REMARK   11  A    between atoms: N_21  and  C_22
REMARK   12  A    between atoms: N_21  and  C_23
REMARK   13  A    between atoms: N_28  and  C_29
REMARK   14  A    between atoms: C_29  and  C_30
REMARK                            x       y       z     vdW  Elec       q    Type
REMARK                         _______ _______ _______ _____ _____    ______ ____
ROOT
ATOM      1  C   UNL     1       4.334   5.835  18.920  0.00  0.00    +0.000 A 
ATOM      2  N   UNL     1       3.335   5.849  19.747  0.00  0.00    +0.000 NA
ATOM      3  C   UNL     1       2.460   6.950  19.704  0.00  0.00    +0.000 A 
ATOM      4  C   UNL     1       1.610   7.197  20.780  0.00  0.00    +0.000 A 
ATOM      5  C   UNL     1       0.822   8.357  20.813  0.00  0.00    +0.000 A 
ATOM      6  C   UNL     1       0.833   9.270  19.753  0.00  0.00    +0.000 A 
ATOM      7  C   UNL     1       1.637   9.012  18.649  0.00  0.00    +0.000 A 
ATOM      8  C   UNL     1       2.459   7.866  18.654  0.00  0.00    +0.000 A 
ATOM      9  C   UNL     1       3.467   7.660  17.608  0.00  0.00    +0.000 A 
ATOM     10  O   UNL     1       3.346   8.243  16.534  0.00  0.00    +0.000 OA
ATOM     11  N   UNL     1       4.509   6.794  17.930  0.00  0.00    +0.000 N 
ENDROOT
BRANCH   1  12
ATOM     12  S   UNL     1       5.550   4.562  19.071  0.00  0.00    +0.000 S 
BRANCH  12  13
ATOM     13  C   UNL     1       4.598   3.074  18.659  0.00  0.00    +0.000 C 
BRANCH  13  19
ATOM     14  C   UNL     1       2.051   2.925  19.034  0.00  0.00    +0.000 A 
ATOM     15  C   UNL     1       0.961   2.874  19.921  0.00  0.00    +0.000 A 
ATOM     16  C   UNL     1       1.161   2.686  21.286  0.00  0.00    +0.000 A 
ATOM     17  C   UNL     1       2.452   2.551  21.779  0.00  0.00    +0.000 A 
ATOM     18  C   UNL     1       3.545   2.642  20.912  0.00  0.00    +0.000 A 
ATOM     19  C   UNL     1       3.368   2.863  19.533  0.00  0.00    +0.000 A 
BRANCH  14  21
ATOM     20  C   UNL     1       1.363   4.316  17.248  0.00  0.00    +0.000 C 
ATOM     21  O   UNL     1       1.898   3.064  17.674  0.00  0.00    +0.000 OA
ENDBRANCH  14  21
ENDBRANCH  13  19
ENDBRANCH  12  13
ENDBRANCH   1  12
BRANCH   6  22
ATOM     22  O   UNL     1       0.107  10.406  19.976  0.00  0.00    +0.000 OA
BRANCH  22  23
ATOM     23  C   UNL     1      -0.214  11.240  18.856  0.00  0.00    +0.000 C 
BRANCH  23  24
ATOM     24  C   UNL     1      -1.634  10.865  18.423  0.00  0.00    +0.000 C 
BRANCH  24  25
ATOM     25  C   UNL     1      -2.079  11.508  17.105  0.00  0.00    +0.000 C 
BRANCH  25  26
ATOM     26  N   UNL     1      -3.496  11.302  16.764  0.00  0.00    +0.000 NA
ATOM     27  C   UNL     1      -3.663  10.593  15.493  0.00  0.00    +0.000 C 
ATOM     28  C   UNL     1      -4.163  10.549  17.832  0.00  0.00    +0.000 C 
ENDBRANCH  25  26
ENDBRANCH  24  25
ENDBRANCH  23  24
ENDBRANCH  22  23
ENDBRANCH   6  22
BRANCH  11  29
ATOM     29  C   UNL     1       5.734   6.961  17.151  0.00  0.00    +0.000 C 
BRANCH  29  30
ATOM     30  C   UNL     1       5.838   5.872  16.129  0.00  0.00    +0.000 A 
ATOM     31  C   UNL     1       4.895   5.067  15.510  0.00  0.00    +0.000 A 
ATOM     32  C   UNL     1       5.601   4.213  14.632  0.00  0.00    +0.000 A 
ATOM     33  C   UNL     1       6.927   4.550  14.762  0.00  0.00    +0.000 A 
ATOM     34  O   UNL     1       7.083   5.558  15.660  0.00  0.00    +0.000 OA
ENDBRANCH  29  30
ENDBRANCH  11  29
TORSDOF 11
ENDMDL
MODEL 2
REMARK VINA RESULT:      -7.4      1.882      2.633
REMARK  Name = 
REMARK  14 active torsions:
REMARK  status: ('A' for Active; 'I' for Inactive)
REMARK    1  A    between atoms: C_1  and  O_2
REMARK    2  A    between atoms: O_2  and  C_3
REMARK    3  A    between atoms: C_8  and  C_9
REMARK    4  A    between atoms: C_9  and  S_10
REMARK    5  A    between atoms: S_10  and  C_11
REMARK    6  A    between atoms: C_16  and  O_17
REMARK    7  A    between atoms: O_17  and  C_18
REMARK    8  A    between atoms: C_18  and  C_19
REMARK    9  A    between atoms: C_19  and  C_20
REMARK   10  A    between atoms: C_20  and  N_21
REMARK   11  A    between atoms: N_21  and  C_22
REMARK   12  A    between atoms: N_21  and  C_23
REMARK   13  A    between atoms: N_28  and  C_29
REMARK   14  A    between atoms: C_29  and  C_30
REMARK                            x       y       z     vdW  Elec       q    Type
REMARK                         _______ _______ _______ _____ _____    ______ ____
ROOT
ATOM      1  C   UNL     1       4.701   5.379  18.952  0.00  0.00    +0.000 A 
ATOM      2  N   UNL     1       3.597   5.654  19.574  0.00  0.00    +0.000 NA
ATOM      3  C   UNL     1       2.894   6.810  19.187  0.00  0.00    +0.000 A 
ATOM      4  C   UNL     1       1.927   7.345  20.036  0.00  0.00    +0.000 A 
ATOM      5  C   UNL     1       1.307   8.564  19.728  0.00  0.00    +0.000 A 
ATOM      6  C   UNL     1       1.605   9.251  18.546  0.00  0.00    +0.000 A 
ATOM      7  C   UNL     1       2.529   8.704  17.663  0.00  0.00    +0.000 A 
ATOM      8  C   UNL     1       3.179   7.502  18.011  0.00  0.00    +0.000 A 
ATOM      9  C   UNL     1       4.301   6.996  17.213  0.00  0.00    +0.000 A 
ATOM     10  O   UNL     1       4.428   7.371  16.051  0.00  0.00    +0.000 OA
ATOM     11  N   UNL     1       5.155   6.106  17.859  0.00  0.00    +0.000 N 
ENDROOT
BRANCH   1  12
ATOM     12  S   UNL     1       5.698   4.040  19.534  0.00  0.00    +0.000 S 
BRANCH  12  13
ATOM     13  C   UNL     1       4.688   2.596  19.102  0.00  0.00    +0.000 C 
BRANCH  13  19
ATOM     14  C   UNL     1       2.115   2.625  18.931  0.00  0.00    +0.000 A 
ATOM     15  C   UNL     1       0.864   2.796  19.551  0.00  0.00    +0.000 A 
ATOM     16  C   UNL     1       0.761   2.878  20.937  0.00  0.00    +0.000 A 
ATOM     17  C   UNL     1       1.907   2.795  21.718  0.00  0.00    +0.000 A 
ATOM     18  C   UNL     1       3.159   2.667  21.110  0.00  0.00    +0.000 A 
ATOM     19  C   UNL     1       3.290   2.613  19.709  0.00  0.00    +0.000 A 
BRANCH  14  21
ATOM     20  C   UNL     1       2.241   3.718  16.836  0.00  0.00    +0.000 C 
ATOM     21  O   UNL     1       2.258   2.494  17.570  0.00  0.00    +0.000 OA
ENDBRANCH  14  21
ENDBRANCH  13  19
ENDBRANCH  12  13
ENDBRANCH   1  12
BRANCH   6  22
ATOM     22  O   UNL     1       1.011  10.477  18.438  0.00  0.00    +0.000 OA
BRANCH  22  23
ATOM     23  C   UNL     1      -0.222  10.701  19.132  0.00  0.00    +0.000 C 
BRANCH  23  24
ATOM     24  C   UNL     1      -0.097  12.064  19.819  0.00  0.00    +0.000 C 
BRANCH  24  25
ATOM     25  C   UNL     1       1.281  12.333  20.433  0.00  0.00    +0.000 C 
BRANCH  25  26
ATOM     26  N   UNL     1       1.770  13.713  20.272  0.00  0.00    +0.000 NA
ATOM     27  C   UNL     1       3.075  13.916  20.907  0.00  0.00    +0.000 C 
ATOM     28  C   UNL     1       1.866  14.047  18.847  0.00  0.00    +0.000 C 
ENDBRANCH  25  26
ENDBRANCH  24  25
ENDBRANCH  23  24
ENDBRANCH  22  23
ENDBRANCH   6  22
BRANCH  11  29
ATOM     29  C   UNL     1       6.497   5.993  17.294  0.00  0.00    +0.000 C 
BRANCH  29  30
ATOM     30  C   UNL     1       6.449   5.205  16.022  0.00  0.00    +0.000 A 
ATOM     31  C   UNL     1       5.718   4.095  15.629  0.00  0.00    +0.000 A 
ATOM     32  C   UNL     1       6.109   3.797  14.304  0.00  0.00    +0.000 A 
ATOM     33  C   UNL     1       7.047   4.743  13.965  0.00  0.00    +0.000 A 
ATOM     34  O   UNL     1       7.256   5.605  14.995  0.00  0.00    +0.000 OA
ENDBRANCH  29  30
ENDBRANCH  11  29
TORSDOF 11
ENDMDL
MODEL 3
REMARK VINA RESULT:      -7.3      1.305      1.945
REMARK  Name = 
REMARK  14 active torsions:
REMARK  status: ('A' for Active; 'I' for Inactive)
REMARK    1  A    between atoms: C_1  and  O_2
REMARK    2  A    between atoms: O_2  and  C_3
REMARK    3  A    between atoms: C_8  and  C_9
REMARK    4  A    between atoms: C_9  and  S_10
REMARK    5  A    between atoms: S_10  and  C_11
REMARK    6  A    between atoms: C_16  and  O_17
REMARK    7  A    between atoms: O_17  and  C_18
REMARK    8  A    between atoms: C_18  and  C_19
REMARK    9  A    between atoms: C_19  and  C_20
REMARK   10  A    between atoms: C_20  and  N_21
REMARK   11  A    between atoms: N_21  and  C_22
REMARK   12  A    between atoms: N_21  and  C_23
REMARK   13  A    between atoms: N_28  and  C_29
REMARK   14  A    between atoms: C_29  and  C_30
REMARK                            x       y       z     vdW  Elec       q    Type
REMARK                         _______ _______ _______ _____ _____    ______ ____
ROOT
ATOM      1  C   UNL     1       4.543   5.564  18.898  0.00  0.00    +0.000 A 
ATOM      2  N   UNL     1       3.509   5.810  19.640  0.00  0.00    +0.000 NA
ATOM      3  C   UNL     1       2.740   6.950  19.341  0.00  0.00    +0.000 A 
ATOM      4  C   UNL     1       1.862   7.459  20.296  0.00  0.00    +0.000 A 
ATOM      5  C   UNL     1       1.182   8.664  20.066  0.00  0.00    +0.000 A 
ATOM      6  C   UNL     1       1.331   9.362  18.863  0.00  0.00    +0.000 A 
ATOM      7  C   UNL     1       2.164   8.840  17.879  0.00  0.00    +0.000 A 
ATOM      8  C   UNL     1       2.876   7.654  18.145  0.00  0.00    +0.000 A 
ATOM      9  C   UNL     1       3.915   7.178  17.224  0.00  0.00    +0.000 A 
ATOM     10  O   UNL     1       3.903   7.561  16.058  0.00  0.00    +0.000 OA
ATOM     11  N   UNL     1       4.856   6.306  17.766  0.00  0.00    +0.000 N 
ENDROOT
BRANCH   1  12
ATOM     12  S   UNL     1       5.630   4.247  19.357  0.00  0.00    +0.000 S 
BRANCH  12  13
ATOM     13  C   UNL     1       4.658   2.780  18.917  0.00  0.00    +0.000 C 
BRANCH  13  19
ATOM     14  C   UNL     1       2.085   2.603  18.949  0.00  0.00    +0.000 A 
ATOM     15  C   UNL     1       0.877   2.676  19.666  0.00  0.00    +0.000 A 
ATOM     16  C   UNL     1       0.877   2.757  21.056  0.00  0.00    +0.000 A 
ATOM     17  C   UNL     1       2.084   2.769  21.744  0.00  0.00    +0.000 A 
ATOM     18  C   UNL     1       3.290   2.739  21.039  0.00  0.00    +0.000 A 
ATOM     19  C   UNL     1       3.315   2.689  19.632  0.00  0.00    +0.000 A 
BRANCH  14  21
ATOM     20  C   UNL     1       2.327   3.696  16.865  0.00  0.00    +0.000 C 
ATOM     21  O   UNL     1       2.132   2.477  17.580  0.00  0.00    +0.000 OA
ENDBRANCH  14  21
ENDBRANCH  13  19
ENDBRANCH  12  13
ENDBRANCH   1  12
BRANCH   6  22
ATOM     22  O   UNL     1       0.700  10.573  18.829  0.00  0.00    +0.000 OA
BRANCH  22  23
ATOM     23  C   UNL     1      -0.599  10.682  19.423  0.00  0.00    +0.000 C 
BRANCH  23  24
ATOM     24  C   UNL     1      -1.613  10.343  18.325  0.00  0.00    +0.000 C 
BRANCH  24  25
ATOM     25  C   UNL     1      -1.978  11.526  17.422  0.00  0.00    +0.000 C 
BRANCH  25  26
ATOM     26  N   UNL     1      -2.934  11.211  16.347  0.00  0.00    +0.000 NA
ATOM     27  C   UNL     1      -2.740   9.861  15.812  0.00  0.00    +0.000 C 
ATOM     28  C   UNL     1      -4.308  11.343  16.845  0.00  0.00    +0.000 C 
ENDBRANCH  25  26
ENDBRANCH  24  25
ENDBRANCH  23  24
ENDBRANCH  22  23
ENDBRANCH   6  22
BRANCH  11  29
ATOM     29  C   UNL     1       6.129   6.228  17.054  0.00  0.00    +0.000 C 
BRANCH  29  30
ATOM     30  C   UNL     1       7.076   7.257  17.590  0.00  0.00    +0.000 A 
ATOM     31  C   UNL     1       7.274   8.597  17.298  0.00  0.00    +0.000 A 
ATOM     32  C   UNL     1       8.324   9.045  18.132  0.00  0.00    +0.000 A 
ATOM     33  C   UNL     1       8.699   7.958  18.884  0.00  0.00    +0.000 A 
ATOM     34  O   UNL     1       7.946   6.871  18.570  0.00  0.00    +0.000 OA
ENDBRANCH  29  30
ENDBRANCH  11  29
TORSDOF 11
ENDMDL
MODEL 4
REMARK VINA RESULT:      -7.2      1.404      1.724
REMARK  Name = 
REMARK  14 active torsions:
REMARK  status: ('A' for Active; 'I' for Inactive)
REMARK    1  A    between atoms: C_1  and  O_2
REMARK    2  A    between atoms: O_2  and  C_3
REMARK    3  A    between atoms: C_8  and  C_9
REMARK    4  A    between atoms: C_9  and  S_10
REMARK    5  A    between atoms: S_10  and  C_11
REMARK    6  A    between atoms: C_16  and  O_17
REMARK    7  A    between atoms: O_17  and  C_18
REMARK    8  A    between atoms: C_18  and  C_19
REMARK    9  A    between atoms: C_19  and  C_20
REMARK   10  A    between atoms: C_20  and  N_21
REMARK   11  A    between atoms: N_21  and  C_22
REMARK   12  A    between atoms: N_21  and  C_23
REMARK   13  A    between atoms: N_28  and  C_29
REMARK   14  A    between atoms: C_29  and  C_30
REMARK                            x       y       z     vdW  Elec       q    Type
REMARK                         _______ _______ _______ _____ _____    ______ ____
ROOT
ATOM      1  C   UNL     1       4.443   5.746  18.869  0.00  0.00    +0.000 A 
ATOM      2  N   UNL     1       3.398   5.900  19.621  0.00  0.00    +0.000 NA
ATOM      3  C   UNL     1       2.599   7.040  19.411  0.00  0.00    +0.000 A 
ATOM      4  C   UNL     1       1.700   7.441  20.398  0.00  0.00    +0.000 A 
ATOM      5  C   UNL     1       0.988   8.642  20.265  0.00  0.00    +0.000 A 
ATOM      6  C   UNL     1       1.124   9.443  19.126  0.00  0.00    +0.000 A 
ATOM      7  C   UNL     1       1.978   9.029  18.109  0.00  0.00    +0.000 A 
ATOM      8  C   UNL     1       2.722   7.844  18.280  0.00  0.00    +0.000 A 
ATOM      9  C   UNL     1       3.779   7.476  17.332  0.00  0.00    +0.000 A 
ATOM     10  O   UNL     1       3.763   7.955  16.201  0.00  0.00    +0.000 OA
ATOM     11  N   UNL     1       4.742   6.589  17.806  0.00  0.00    +0.000 N 
ENDROOT
BRANCH   1  12
ATOM     12  S   UNL     1       5.564   4.426  19.225  0.00  0.00    +0.000 S 
BRANCH  12  13
ATOM     13  C   UNL     1       4.577   2.963  18.803  0.00  0.00    +0.000 C 
BRANCH  13  19
ATOM     14  C   UNL     1       2.013   2.914  19.073  0.00  0.00    +0.000 A 
ATOM     15  C   UNL     1       0.886   2.920  19.914  0.00  0.00    +0.000 A 
ATOM     16  C   UNL     1       1.023   2.752  21.290  0.00  0.00    +0.000 A 
ATOM     17  C   UNL     1       2.287   2.580  21.840  0.00  0.00    +0.000 A 
ATOM     18  C   UNL     1       3.416   2.614  21.018  0.00  0.00    +0.000 A 
ATOM     19  C   UNL     1       3.305   2.814  19.628  0.00  0.00    +0.000 A 
BRANCH  14  21
ATOM     20  C   UNL     1       1.384   4.268  17.238  0.00  0.00    +0.000 C 
ATOM     21  O   UNL     1       1.922   3.031  17.706  0.00  0.00    +0.000 OA
ENDBRANCH  14  21
ENDBRANCH  13  19
ENDBRANCH  12  13
ENDBRANCH   1  12
BRANCH   6  22
ATOM     22  O   UNL     1       0.460  10.634  19.188  0.00  0.00    +0.000 OA
BRANCH  22  23
ATOM     23  C   UNL     1      -0.943  10.649  18.896  0.00  0.00    +0.000 C 
BRANCH  23  24
ATOM     24  C   UNL     1      -1.451  12.050  19.252  0.00  0.00    +0.000 C 
BRANCH  24  25
ATOM     25  C   UNL     1      -1.672  12.274  20.752  0.00  0.00    +0.000 C 
BRANCH  25  26
ATOM     26  N   UNL     1      -2.965  12.887  21.100  0.00  0.00    +0.000 NA
ATOM     27  C   UNL     1      -2.852  14.332  21.317  0.00  0.00    +0.000 C 
ATOM     28  C   UNL     1      -3.943  12.630  20.037  0.00  0.00    +0.000 C 
ENDBRANCH  25  26
ENDBRANCH  24  25
ENDBRANCH  23  24
ENDBRANCH  22  23
ENDBRANCH   6  22
BRANCH  11  29
ATOM     29  C   UNL     1       6.021   6.606  17.101  0.00  0.00    +0.000 C 
BRANCH  29  30
ATOM     30  C   UNL     1       5.997   5.615  15.979  0.00  0.00    +0.000 A 
ATOM     31  C   UNL     1       5.034   4.725  15.529  0.00  0.00    +0.000 A 
ATOM     32  C   UNL     1       5.595   4.042  14.425  0.00  0.00    +0.000 A 
ATOM     33  C   UNL     1       6.858   4.558  14.264  0.00  0.00    +0.000 A 
ATOM     34  O   UNL     1       7.111   5.516  15.195  0.00  0.00    +0.000 OA
ENDBRANCH  29  30
ENDBRANCH  11  29
TORSDOF 11
ENDMDL
MODEL 5
REMARK VINA RESULT:      -7.2      1.622      2.162
REMARK  Name = 
REMARK  14 active torsions:
REMARK  status: ('A' for Active; 'I' for Inactive)
REMARK    1  A    between atoms: C_1  and  O_2
REMARK    2  A    between atoms: O_2  and  C_3
REMARK    3  A    between atoms: C_8  and  C_9
REMARK    4  A    between atoms: C_9  and  S_10
REMARK    5  A    between atoms: S_10  and  C_11
REMARK    6  A    between atoms: C_16  and  O_17
REMARK    7  A    between atoms: O_17  and  C_18
REMARK    8  A    between atoms: C_18  and  C_19
REMARK    9  A    between atoms: C_19  and  C_20
REMARK   10  A    between atoms: C_20  and  N_21
REMARK   11  A    between atoms: N_21  and  C_22
REMARK   12  A    between atoms: N_21  and  C_23
REMARK   13  A    between atoms: N_28  and  C_29
REMARK   14  A    between atoms: C_29  and  C_30
REMARK                            x       y       z     vdW  Elec       q    Type
REMARK                         _______ _______ _______ _____ _____    ______ ____
ROOT
ATOM      1  C   UNL     1       4.400   5.716  18.933  0.00  0.00    +0.000 A 
ATOM      2  N   UNL     1       3.379   5.783  19.730  0.00  0.00    +0.000 NA
ATOM      3  C   UNL     1       2.541   6.910  19.633  0.00  0.00    +0.000 A 
ATOM      4  C   UNL     1       1.669   7.211  20.678  0.00  0.00    +0.000 A 
ATOM      5  C   UNL     1       0.919   8.396  20.658  0.00  0.00    +0.000 A 
ATOM      6  C   UNL     1       0.990   9.281  19.577  0.00  0.00    +0.000 A 
ATOM      7  C   UNL     1       1.817   8.969  18.504  0.00  0.00    +0.000 A 
ATOM      8  C   UNL     1       2.600   7.798  18.561  0.00  0.00    +0.000 A 
ATOM      9  C   UNL     1       3.631   7.533  17.551  0.00  0.00    +0.000 A 
ATOM     10  O   UNL     1       3.560   8.092  16.460  0.00  0.00    +0.000 OA
ATOM     11  N   UNL     1       4.635   6.643  17.925  0.00  0.00    +0.000 N 
ENDROOT
BRANCH   1  12
ATOM     12  S   UNL     1       5.569   4.409  19.151  0.00  0.00    +0.000 S 
BRANCH  12  13
ATOM     13  C   UNL     1       4.581   2.942  18.747  0.00  0.00    +0.000 C 
BRANCH  13  19
ATOM     14  C   UNL     1       2.023   2.910  19.065  0.00  0.00    +0.000 A 
ATOM     15  C   UNL     1       0.911   2.910  19.927  0.00  0.00    +0.000 A 
ATOM     16  C   UNL     1       1.073   2.715  21.297  0.00  0.00    +0.000 A 
ATOM     17  C   UNL     1       2.345   2.521  21.819  0.00  0.00    +0.000 A 
ATOM     18  C   UNL     1       3.460   2.561  20.976  0.00  0.00    +0.000 A 
ATOM     19  C   UNL     1       3.324   2.789  19.593  0.00  0.00    +0.000 A 
BRANCH  14  21
ATOM     20  C   UNL     1       1.354   4.296  17.268  0.00  0.00    +0.000 C 
ATOM     21  O   UNL     1       1.906   3.054  17.702  0.00  0.00    +0.000 OA
ENDBRANCH  14  21
ENDBRANCH  13  19
ENDBRANCH  12  13
ENDBRANCH   1  12
BRANCH   6  22
ATOM     22  O   UNL     1       0.296  10.445  19.750  0.00  0.00    +0.000 OA
BRANCH  22  23
ATOM     23  C   UNL     1       0.574  11.541  18.871  0.00  0.00    +0.000 C 
BRANCH  23  24
ATOM     24  C   UNL     1      -0.605  12.512  18.995  0.00  0.00    +0.000 C 
BRANCH  24  25
ATOM     25  C   UNL     1      -0.328  13.910  18.432  0.00  0.00    +0.000 C 
BRANCH  25  26
ATOM     26  N   UNL     1       0.301  14.844  19.380  0.00  0.00    +0.000 NA
ATOM     27  C   UNL     1       1.691  15.143  19.025  0.00  0.00    +0.000 C 
ATOM     28  C   UNL     1      -0.465  16.094  19.434  0.00  0.00    +0.000 C 
ENDBRANCH  25  26
ENDBRANCH  24  25
ENDBRANCH  23  24
ENDBRANCH  22  23
ENDBRANCH   6  22
BRANCH  11  29
ATOM     29  C   UNL     1       5.886   6.750  17.179  0.00  0.00    +0.000 C 
BRANCH  29  30
ATOM     30  C   UNL     1       5.911   5.735  16.079  0.00  0.00    +0.000 A 
ATOM     31  C   UNL     1       4.940   4.906  15.540  0.00  0.00    +0.000 A 
ATOM     32  C   UNL     1       5.565   4.157  14.517  0.00  0.00    +0.000 A 
ATOM     33  C   UNL     1       6.874   4.576  14.488  0.00  0.00    +0.000 A 
ATOM     34  O   UNL     1       7.094   5.536  15.424  0.00  0.00    +0.000 OA
ENDBRANCH  29  30
ENDBRANCH  11  29
TORSDOF 11
ENDMDL
MODEL 6
REMARK VINA RESULT:      -7.1      2.365      3.278
REMARK  Name = 
REMARK  14 active torsions:
REMARK  status: ('A' for Active; 'I' for Inactive)
REMARK    1  A    between atoms: C_1  and  O_2
REMARK    2  A    between atoms: O_2  and  C_3
REMARK    3  A    between atoms: C_8  and  C_9
REMARK    4  A    between atoms: C_9  and  S_10
REMARK    5  A    between atoms: S_10  and  C_11
REMARK    6  A    between atoms: C_16  and  O_17
REMARK    7  A    between atoms: O_17  and  C_18
REMARK    8  A    between atoms: C_18  and  C_19
REMARK    9  A    between atoms: C_19  and  C_20
REMARK   10  A    between atoms: C_20  and  N_21
REMARK   11  A    between atoms: N_21  and  C_22
REMARK   12  A    between atoms: N_21  and  C_23
REMARK   13  A    between atoms: N_28  and  C_29
REMARK   14  A    between atoms: C_29  and  C_30
REMARK                            x       y       z     vdW  Elec       q    Type
REMARK                         _______ _______ _______ _____ _____    ______ ____
ROOT
ATOM      1  C   UNL     1       4.394   5.597  18.751  0.00  0.00    +0.000 A 
ATOM      2  N   UNL     1       3.413   5.816  19.572  0.00  0.00    +0.000 NA
ATOM      3  C   UNL     1       2.662   6.994  19.400  0.00  0.00    +0.000 A 
ATOM      4  C   UNL     1       1.858   7.455  20.441  0.00  0.00    +0.000 A 
ATOM      5  C   UNL     1       1.201   8.690  20.337  0.00  0.00    +0.000 A 
ATOM      6  C   UNL     1       1.297   9.467  19.178  0.00  0.00    +0.000 A 
ATOM      7  C   UNL     1       2.054   8.996  18.111  0.00  0.00    +0.000 A 
ATOM      8  C   UNL     1       2.746   7.776  18.250  0.00  0.00    +0.000 A 
ATOM      9  C   UNL     1       3.713   7.341  17.236  0.00  0.00    +0.000 A 
ATOM     10  O   UNL     1       3.641   7.805  16.101  0.00  0.00    +0.000 OA
ATOM     11  N   UNL     1       4.659   6.410  17.656  0.00  0.00    +0.000 N 
ENDROOT
BRANCH   1  12
ATOM     12  S   UNL     1       5.467   4.225  19.050  0.00  0.00    +0.000 S 
BRANCH  12  13
ATOM     13  C   UNL     1       4.385   2.811  18.699  0.00  0.00    +0.000 C 
BRANCH  13  19
ATOM     14  C   UNL     1       1.844   2.855  19.134  0.00  0.00    +0.000 A 
ATOM     15  C   UNL     1       0.774   2.918  20.045  0.00  0.00    +0.000 A 
ATOM     16  C   UNL     1       0.994   2.777  21.412  0.00  0.00    +0.000 A 
ATOM     17  C   UNL     1       2.284   2.574  21.884  0.00  0.00    +0.000 A 
ATOM     18  C   UNL     1       3.359   2.552  20.991  0.00  0.00    +0.000 A 
ATOM     19  C   UNL     1       3.165   2.724  19.607  0.00  0.00    +0.000 A 
BRANCH  14  21
ATOM     20  C   UNL     1       1.280   4.233  17.295  0.00  0.00    +0.000 C 
ATOM     21  O   UNL     1       1.668   2.946  17.773  0.00  0.00    +0.000 OA
ENDBRANCH  14  21
ENDBRANCH  13  19
ENDBRANCH  12  13
ENDBRANCH   1  12
BRANCH   6  22
ATOM     22  O   UNL     1       0.701  10.693  19.267  0.00  0.00    +0.000 OA
BRANCH  22  23
ATOM     23  C   UNL     1       1.376  11.822  18.697  0.00  0.00    +0.000 C 
BRANCH  23  24
ATOM     24  C   UNL     1       0.643  13.070  19.199  0.00  0.00    +0.000 C 
BRANCH  24  25
ATOM     25  C   UNL     1       1.484  13.965  20.116  0.00  0.00    +0.000 C 
BRANCH  25  26
ATOM     26  N   UNL     1       2.423  14.857  19.416  0.00  0.00    +0.000 NA
ATOM     27  C   UNL     1       1.735  15.936  18.702  0.00  0.00    +0.000 C 
ATOM     28  C   UNL     1       3.370  15.437  20.376  0.00  0.00    +0.000 C 
ENDBRANCH  25  26
ENDBRANCH  24  25
ENDBRANCH  23  24
ENDBRANCH  22  23
ENDBRANCH   6  22
BRANCH  11  29
ATOM     29  C   UNL     1       5.884   6.350  16.863  0.00  0.00    +0.000 C 
BRANCH  29  30
ATOM     30  C   UNL     1       6.936   7.214  17.486  0.00  0.00    +0.000 A 
ATOM     31  C   UNL     1       7.933   6.962  18.415  0.00  0.00    +0.000 A 
ATOM     32  C   UNL     1       8.617   8.182  18.621  0.00  0.00    +0.000 A 
ATOM     33  C   UNL     1       8.004   9.101  17.803  0.00  0.00    +0.000 A 
ATOM     34  O   UNL     1       6.989   8.525  17.106  0.00  0.00    +0.000 OA
ENDBRANCH  29  30
ENDBRANCH  11  29
TORSDOF 11
ENDMDL
MODEL 7
REMARK VINA RESULT:      -7.0      2.768      3.471
REMARK  Name = 
REMARK  14 active torsions:
REMARK  status: ('A' for Active; 'I' for Inactive)
REMARK    1  A    between atoms: C_1  and  O_2
REMARK    2  A    between atoms: O_2  and  C_3
REMARK    3  A    between atoms: C_8  and  C_9
REMARK    4  A    between atoms: C_9  and  S_10
REMARK    5  A    between atoms: S_10  and  C_11
REMARK    6  A    between atoms: C_16  and  O_17
REMARK    7  A    between atoms: O_17  and  C_18
REMARK    8  A    between atoms: C_18  and  C_19
REMARK    9  A    between atoms: C_19  and  C_20
REMARK   10  A    between atoms: C_20  and  N_21
REMARK   11  A    between atoms: N_21  and  C_22
REMARK   12  A    between atoms: N_21  and  C_23
REMARK   13  A    between atoms: N_28  and  C_29
REMARK   14  A    between atoms: C_29  and  C_30
REMARK                            x       y       z     vdW  Elec       q    Type
REMARK                         _______ _______ _______ _____ _____    ______ ____
ROOT
ATOM      1  C   UNL     1       3.777   5.142  17.896  0.00  0.00    +0.000 A 
ATOM      2  N   UNL     1       2.902   5.035  18.847  0.00  0.00    +0.000 NA
ATOM      3  C   UNL     1       2.330   6.218  19.351  0.00  0.00    +0.000 A 
ATOM      4  C   UNL     1       1.681   6.198  20.584  0.00  0.00    +0.000 A 
ATOM      5  C   UNL     1       1.217   7.388  21.163  0.00  0.00    +0.000 A 
ATOM      6  C   UNL     1       1.351   8.614  20.504  0.00  0.00    +0.000 A 
ATOM      7  C   UNL     1       1.950   8.644  19.250  0.00  0.00    +0.000 A 
ATOM      8  C   UNL     1       2.454   7.446  18.704  0.00  0.00    +0.000 A 
ATOM      9  C   UNL     1       3.270   7.460  17.484  0.00  0.00    +0.000 A 
ATOM     10  O   UNL     1       3.192   8.420  16.722  0.00  0.00    +0.000 OA
ATOM     11  N   UNL     1       4.088   6.351  17.286  0.00  0.00    +0.000 N 
ENDROOT
BRANCH   1  12
ATOM     12  S   UNL     1       4.644   3.695  17.367  0.00  0.00    +0.000 S 
BRANCH  12  13
ATOM     13  C   UNL     1       3.455   2.378  17.744  0.00  0.00    +0.000 C 
BRANCH  13  19
ATOM     14  C   UNL     1       3.435   2.472  20.321  0.00  0.00    +0.000 A 
ATOM     15  C   UNL     1       2.708   2.476  21.525  0.00  0.00    +0.000 A 
ATOM     16  C   UNL     1       1.324   2.625  21.520  0.00  0.00    +0.000 A 
ATOM     17  C   UNL     1       0.651   2.767  20.313  0.00  0.00    +0.000 A 
ATOM     18  C   UNL     1       1.359   2.721  19.109  0.00  0.00    +0.000 A 
ATOM     19  C   UNL     1       2.756   2.541  19.088  0.00  0.00    +0.000 A 
BRANCH  14  21
ATOM     20  C   UNL     1       5.351   1.218  20.917  0.00  0.00    +0.000 C 
ATOM     21  O   UNL     1       4.806   2.373  20.280  0.00  0.00    +0.000 OA
ENDBRANCH  14  21
ENDBRANCH  13  19
ENDBRANCH  12  13
ENDBRANCH   1  12
BRANCH   6  22
ATOM     22  O   UNL     1       0.959   9.698  21.238  0.00  0.00    +0.000 OA
BRANCH  22  23
ATOM     23  C   UNL     1       0.893   9.567  22.663  0.00  0.00    +0.000 C 
BRANCH  23  24
ATOM     24  C   UNL     1      -0.517  10.002  23.078  0.00  0.00    +0.000 C 
BRANCH  24  25
ATOM     25  C   UNL     1      -0.993  11.299  22.417  0.00  0.00    +0.000 C 
BRANCH  25  26
ATOM     26  N   UNL     1      -1.430  12.347  23.355  0.00  0.00    +0.000 NA
ATOM     27  C   UNL     1      -0.972  13.679  22.951  0.00  0.00    +0.000 C 
ATOM     28  C   UNL     1      -2.894  12.346  23.458  0.00  0.00    +0.000 C 
ENDBRANCH  25  26
ENDBRANCH  24  25
ENDBRANCH  23  24
ENDBRANCH  22  23
ENDBRANCH   6  22
BRANCH  11  29
ATOM     29  C   UNL     1       5.231   6.558  16.401  0.00  0.00    +0.000 C 
BRANCH  29  30
ATOM     30  C   UNL     1       6.432   6.953  17.204  0.00  0.00    +0.000 A 
ATOM     31  C   UNL     1       7.195   6.285  18.148  0.00  0.00    +0.000 A 
ATOM     32  C   UNL     1       8.204   7.183  18.566  0.00  0.00    +0.000 A 
ATOM     33  C   UNL     1       8.001   8.339  17.850  0.00  0.00    +0.000 A 
ATOM     34  O   UNL     1       6.935   8.210  17.017  0.00  0.00    +0.000 OA
ENDBRANCH  29  30
ENDBRANCH  11  29
TORSDOF 11
ENDMDL
MODEL 8
REMARK VINA RESULT:      -7.0      2.218      3.085
REMARK  Name = 
REMARK  14 active torsions:
REMARK  status: ('A' for Active; 'I' for Inactive)
REMARK    1  A    between atoms: C_1  and  O_2
REMARK    2  A    between atoms: O_2  and  C_3
REMARK    3  A    between atoms: C_8  and  C_9
REMARK    4  A    between atoms: C_9  and  S_10
REMARK    5  A    between atoms: S_10  and  C_11
REMARK    6  A    between atoms: C_16  and  O_17
REMARK    7  A    between atoms: O_17  and  C_18
REMARK    8  A    between atoms: C_18  and  C_19
REMARK    9  A    between atoms: C_19  and  C_20
REMARK   10  A    between atoms: C_20  and  N_21
REMARK   11  A    between atoms: N_21  and  C_22
REMARK   12  A    between atoms: N_21  and  C_23
REMARK   13  A    between atoms: N_28  and  C_29
REMARK   14  A    between atoms: C_29  and  C_30
REMARK                            x       y       z     vdW  Elec       q    Type
REMARK                         _______ _______ _______ _____ _____    ______ ____
ROOT
ATOM      1  C   UNL     1       4.425   5.566  18.793  0.00  0.00    +0.000 A 
ATOM      2  N   UNL     1       3.443   5.787  19.612  0.00  0.00    +0.000 NA
ATOM      3  C   UNL     1       2.683   6.956  19.428  0.00  0.00    +0.000 A 
ATOM      4  C   UNL     1       1.876   7.423  20.464  0.00  0.00    +0.000 A 
ATOM      5  C   UNL     1       1.210   8.652  20.347  0.00  0.00    +0.000 A 
ATOM      6  C   UNL     1       1.299   9.417  19.180  0.00  0.00    +0.000 A 
ATOM      7  C   UNL     1       2.059   8.940  18.117  0.00  0.00    +0.000 A 
ATOM      8  C   UNL     1       2.760   7.726  18.269  0.00  0.00    +0.000 A 
ATOM      9  C   UNL     1       3.730   7.287  17.259  0.00  0.00    +0.000 A 
ATOM     10  O   UNL     1       3.654   7.738  16.119  0.00  0.00    +0.000 OA
ATOM     11  N   UNL     1       4.683   6.369  17.688  0.00  0.00    +0.000 N 
ENDROOT
BRANCH   1  12
ATOM     12  S   UNL     1       5.509   4.205  19.106  0.00  0.00    +0.000 S 
BRANCH  12  13
ATOM     13  C   UNL     1       4.444   2.780  18.752  0.00  0.00    +0.000 C 
BRANCH  13  19
ATOM     14  C   UNL     1       1.891   2.881  19.102  0.00  0.00    +0.000 A 
ATOM     15  C   UNL     1       0.793   2.958  19.978  0.00  0.00    +0.000 A 
ATOM     16  C   UNL     1       0.963   2.794  21.350  0.00  0.00    +0.000 A 
ATOM     17  C   UNL     1       2.232   2.554  21.862  0.00  0.00    +0.000 A 
ATOM     18  C   UNL     1       3.336   2.516  21.005  0.00  0.00    +0.000 A 
ATOM     19  C   UNL     1       3.192   2.711  19.617  0.00  0.00    +0.000 A 
BRANCH  14  21
ATOM     20  C   UNL     1       1.306   4.262  17.272  0.00  0.00    +0.000 C 
ATOM     21  O   UNL     1       1.763   2.993  17.737  0.00  0.00    +0.000 OA
ENDBRANCH  14  21
ENDBRANCH  13  19
ENDBRANCH  12  13
ENDBRANCH   1  12
BRANCH   6  22
ATOM     22  O   UNL     1       0.694  10.639  19.255  0.00  0.00    +0.000 OA
BRANCH  22  23
ATOM     23  C   UNL     1      -0.185  10.898  20.357  0.00  0.00    +0.000 C 
BRANCH  23  24
ATOM     24  C   UNL     1      -0.416  12.412  20.388  0.00  0.00    +0.000 C 
BRANCH  24  25
ATOM     25  C   UNL     1      -0.183  13.054  21.759  0.00  0.00    +0.000 C 
BRANCH  25  26
ATOM     26  N   UNL     1      -0.058  14.521  21.741  0.00  0.00    +0.000 NA
ATOM     27  C   UNL     1       1.335  14.960  21.856  0.00  0.00    +0.000 C 
ATOM     28  C   UNL     1      -0.636  15.057  20.503  0.00  0.00    +0.000 C 
ENDBRANCH  25  26
ENDBRANCH  24  25
ENDBRANCH  23  24
ENDBRANCH  22  23
ENDBRANCH   6  22
BRANCH  11  29
ATOM     29  C   UNL     1       5.908   6.309  16.895  0.00  0.00    +0.000 C 
BRANCH  29  30
ATOM     30  C   UNL     1       6.948   7.203  17.497  0.00  0.00    +0.000 A 
ATOM     31  C   UNL     1       7.941   6.991  18.439  0.00  0.00    +0.000 A 
ATOM     32  C   UNL     1       8.612   8.223  18.610  0.00  0.00    +0.000 A 
ATOM     33  C   UNL     1       7.995   9.110  17.760  0.00  0.00    +0.000 A 
ATOM     34  O   UNL     1       6.990   8.502  17.075  0.00  0.00    +0.000 OA
ENDBRANCH  29  30
ENDBRANCH  11  29
TORSDOF 11
ENDMDL
MODEL 9
REMARK VINA RESULT:      -6.9      3.618      9.244
REMARK  Name = 
REMARK  14 active torsions:
REMARK  status: ('A' for Active; 'I' for Inactive)
REMARK    1  A    between atoms: C_1  and  O_2
REMARK    2  A    between atoms: O_2  and  C_3
REMARK    3  A    between atoms: C_8  and  C_9
REMARK    4  A    between atoms: C_9  and  S_10
REMARK    5  A    between atoms: S_10  and  C_11
REMARK    6  A    between atoms: C_16  and  O_17
REMARK    7  A    between atoms: O_17  and  C_18
REMARK    8  A    between atoms: C_18  and  C_19
REMARK    9  A    between atoms: C_19  and  C_20
REMARK   10  A    between atoms: C_20  and  N_21
REMARK   11  A    between atoms: N_21  and  C_22
REMARK   12  A    between atoms: N_21  and  C_23
REMARK   13  A    between atoms: N_28  and  C_29
REMARK   14  A    between atoms: C_29  and  C_30
REMARK                            x       y       z     vdW  Elec       q    Type
REMARK                         _______ _______ _______ _____ _____    ______ ____
ROOT
ATOM      1  C   UNL     1       0.275  10.127  20.585  0.00  0.00    +0.000 A 
ATOM      2  N   UNL     1       0.810   9.049  21.068  0.00  0.00    +0.000 NA
ATOM      3  C   UNL     1       1.520   8.214  20.186  0.00  0.00    +0.000 A 
ATOM      4  C   UNL     1       1.795   6.898  20.554  0.00  0.00    +0.000 A 
ATOM      5  C   UNL     1       2.388   6.014  19.642  0.00  0.00    +0.000 A 
ATOM      6  C   UNL     1       2.759   6.435  18.361  0.00  0.00    +0.000 A 
ATOM      7  C   UNL     1       2.539   7.759  17.996  0.00  0.00    +0.000 A 
ATOM      8  C   UNL     1       1.898   8.622  18.908  0.00  0.00    +0.000 A 
ATOM      9  C   UNL     1       1.464   9.962  18.497  0.00  0.00    +0.000 A 
ATOM     10  O   UNL     1       1.988  10.488  17.519  0.00  0.00    +0.000 OA
ATOM     11  N   UNL     1       0.464  10.542  19.273  0.00  0.00    +0.000 N 
ENDROOT
BRANCH   1  12
ATOM     12  S   UNL     1      -0.773  11.100  21.624  0.00  0.00    +0.000 S 
BRANCH  12  13
ATOM     13  C   UNL     1       0.167  12.645  21.773  0.00  0.00    +0.000 C 
BRANCH  13  19
ATOM     14  C   UNL     1      -0.907  14.948  21.331  0.00  0.00    +0.000 A 
ATOM     15  C   UNL     1      -1.564  16.089  21.824  0.00  0.00    +0.000 A 
ATOM     16  C   UNL     1      -2.062  16.119  23.124  0.00  0.00    +0.000 A 
ATOM     17  C   UNL     1      -1.905  15.011  23.947  0.00  0.00    +0.000 A 
ATOM     18  C   UNL     1      -1.216  13.888  23.481  0.00  0.00    +0.000 A 
ATOM     19  C   UNL     1      -0.677  13.846  22.181  0.00  0.00    +0.000 A 
BRANCH  14  21
ATOM     20  C   UNL     1      -0.561  16.049  19.266  0.00  0.00    +0.000 C 
ATOM     21  O   UNL     1      -0.439  14.857  20.041  0.00  0.00    +0.000 OA
ENDBRANCH  14  21
ENDBRANCH  13  19
ENDBRANCH  12  13
ENDBRANCH   1  12
BRANCH   6  22
ATOM     22  O   UNL     1       3.216   5.438  17.546  0.00  0.00    +0.000 OA
BRANCH  22  23
ATOM     23  C   UNL     1       3.910   4.336  18.143  0.00  0.00    +0.000 C 
BRANCH  23  24
ATOM     24  C   UNL     1       3.160   3.067  17.725  0.00  0.00    +0.000 C 
BRANCH  24  25
ATOM     25  C   UNL     1       3.093   1.991  18.813  0.00  0.00    +0.000 C 
BRANCH  25  26
ATOM     26  N   UNL     1       1.825   1.944  19.560  0.00  0.00    +0.000 NA
ATOM     27  C   UNL     1       1.930   2.587  20.872  0.00  0.00    +0.000 C 
ATOM     28  C   UNL     1       0.764   2.595  18.783  0.00  0.00    +0.000 C 
ENDBRANCH  25  26
ENDBRANCH  24  25
ENDBRANCH  23  24
ENDBRANCH  22  23
ENDBRANCH   6  22
BRANCH  11  29
ATOM     29  C   UNL     1      -0.311  11.595  18.621  0.00  0.00    +0.000 C 
BRANCH  29  30
ATOM     30  C   UNL     1      -1.480  10.996  17.902  0.00  0.00    +0.000 A 
ATOM     31  C   UNL     1      -2.207   9.832  18.092  0.00  0.00    +0.000 A 
ATOM     32  C   UNL     1      -3.198   9.800  17.085  0.00  0.00    +0.000 A 
ATOM     33  C   UNL     1      -3.022  10.946  16.347  0.00  0.00    +0.000 A 
ATOM     34  O   UNL     1      -1.989  11.682  16.835  0.00  0.00    +0.000 OA
ENDBRANCH  29  30
ENDBRANCH  11  29
TORSDOF 11
ENDMDL
