MODEL 1
REMARK VINA RESULT:      -6.1      0.000      0.000
REMARK  Name = 
REMARK  3 active torsions:
REMARK  status: ('A' for Active; 'I' for Inactive)
REMARK    1  A    between atoms: C_2  and  C_4
REMARK    2  A    between atoms: C_4  and  N_5
REMARK    3  A    between atoms: C_6  and  C_8
REMARK                            x       y       z     vdW  Elec       q    Type
REMARK                         _______ _______ _______ _____ _____    ______ ____
ROOT
ATOM      1  N   UNL     1       4.722   4.548  16.684  0.00  0.00    +0.000 N 
ATOM      2  C   UNL     1       4.028   5.506  17.389  0.00  0.00    +0.000 C 
ATOM      3  O   UNL     1       4.193   6.708  17.217  0.00  0.00    +0.000 OA
ATOM      4  H   UNL     1       4.339   3.612  16.632  0.00  0.00    +0.000 HD
ENDROOT
BRANCH   2   5
ATOM      5  C   UNL     1       2.978   4.997  18.316  0.00  0.00    +0.000 A 
ATOM      6  C   UNL     1       2.797   5.551  19.591  0.00  0.00    +0.000 A 
ATOM      7  C   UNL     1       1.831   5.020  20.451  0.00  0.00    +0.000 A 
ATOM      8  C   UNL     1       1.041   3.950  20.037  0.00  0.00    +0.000 A 
ATOM      9  C   UNL     1       1.199   3.415  18.759  0.00  0.00    +0.000 A 
ATOM     10  C   UNL     1       2.161   3.942  17.895  0.00  0.00    +0.000 A 
ENDBRANCH   2   5
BRANCH   1  11
ATOM     11  C   UNL     1       5.728   4.895  15.697  0.00  0.00    +0.000 C 
BRANCH  11  13
ATOM     12  N   UNL     1       7.356   6.514  16.547  0.00  0.00    +0.000 N 
ATOM     13  C   UNL     1       7.080   5.191  16.345  0.00  0.00    +0.000 C 
ATOM     14  O   UNL     1       7.851   4.316  16.727  0.00  0.00    +0.000 OA
ATOM     15  H   UNL     1       8.195   6.765  17.049  0.00  0.00    +0.000 HD
ATOM     16  H   UNL     1       6.645   7.222  16.375  0.00  0.00    +0.000 HD
ENDBRANCH  11  13
ENDBRANCH   1  11
TORSDOF 3
ENDMDL
MODEL 2
REMARK VINA RESULT:      -6.0      3.388      4.973
REMARK  Name = 
REMARK  3 active torsions:
REMARK  status: ('A' for Active; 'I' for Inactive)
REMARK    1  A    between atoms: C_2  and  C_4
REMARK    2  A    between atoms: C_4  and  N_5
REMARK    3  A    between atoms: C_6  and  C_8
REMARK                            x       y       z     vdW  Elec       q    Type
REMARK                         _______ _______ _______ _____ _____    ______ ____
ROOT
ATOM      1  N   UNL     1       6.199   3.646  13.885  0.00  0.00    +0.000 N 
ATOM      2  C   UNL     1       6.829   4.545  14.717  0.00  0.00    +0.000 C 
ATOM      3  O   UNL     1       7.654   5.358  14.317  0.00  0.00    +0.000 OA
ATOM      4  H   UNL     1       5.329   3.230  14.192  0.00  0.00    +0.000 HD
ENDROOT
BRANCH   2   5
ATOM      5  C   UNL     1       6.377   4.543  16.137  0.00  0.00    +0.000 A 
ATOM      6  C   UNL     1       5.087   4.123  16.494  0.00  0.00    +0.000 A 
ATOM      7  C   UNL     1       4.682   4.176  17.830  0.00  0.00    +0.000 A 
ATOM      8  C   UNL     1       5.562   4.634  18.809  0.00  0.00    +0.000 A 
ATOM      9  C   UNL     1       6.855   5.026  18.462  0.00  0.00    +0.000 A 
ATOM     10  C   UNL     1       7.266   4.974  17.128  0.00  0.00    +0.000 A 
ENDBRANCH   2   5
BRANCH   1  11
ATOM     11  C   UNL     1       6.489   3.579  12.464  0.00  0.00    +0.000 C 
BRANCH  11  13
ATOM     12  N   UNL     1       5.970   1.397  11.483  0.00  0.00    +0.000 N 
ATOM     13  C   UNL     1       5.512   2.660  11.730  0.00  0.00    +0.000 C 
ATOM     14  O   UNL     1       4.369   2.991  11.432  0.00  0.00    +0.000 OA
ATOM     15  H   UNL     1       5.339   0.720  11.078  0.00  0.00    +0.000 HD
ATOM     16  H   UNL     1       6.856   1.082  11.874  0.00  0.00    +0.000 HD
ENDBRANCH  11  13
ENDBRANCH   1  11
TORSDOF 3
ENDMDL
MODEL 3
REMARK VINA RESULT:      -6.0      1.072      1.085
REMARK  Name = 
REMARK  3 active torsions:
REMARK  status: ('A' for Active; 'I' for Inactive)
REMARK    1  A    between atoms: C_2  and  C_4
REMARK    2  A    between atoms: C_4  and  N_5
REMARK    3  A    between atoms: C_6  and  C_8
REMARK                            x       y       z     vdW  Elec       q    Type
REMARK                         _______ _______ _______ _____ _____    ______ ____
ROOT
ATOM      1  N   UNL     1       4.373   5.122  16.907  0.00  0.00    +0.000 N 
ATOM      2  C   UNL     1       3.486   5.777  17.732  0.00  0.00    +0.000 C 
ATOM      3  O   UNL     1       3.406   6.999  17.787  0.00  0.00    +0.000 OA
ATOM      4  H   UNL     1       4.189   4.156  16.668  0.00  0.00    +0.000 HD
ENDROOT
BRANCH   2   5
ATOM      5  C   UNL     1       2.545   4.909  18.493  0.00  0.00    +0.000 A 
ATOM      6  C   UNL     1       2.207   5.187  19.826  0.00  0.00    +0.000 A 
ATOM      7  C   UNL     1       1.355   4.326  20.524  0.00  0.00    +0.000 A 
ATOM      8  C   UNL     1       0.832   3.200  19.892  0.00  0.00    +0.000 A 
ATOM      9  C   UNL     1       1.142   2.936  18.559  0.00  0.00    +0.000 A 
ATOM     10  C   UNL     1       1.992   3.792  17.856  0.00  0.00    +0.000 A 
ENDBRANCH   2   5
BRANCH   1  11
ATOM     11  C   UNL     1       5.305   5.838  16.055  0.00  0.00    +0.000 C 
BRANCH  11  13
ATOM     12  N   UNL     1       6.872   4.197  16.975  0.00  0.00    +0.000 N 
ATOM     13  C   UNL     1       6.683   5.178  16.042  0.00  0.00    +0.000 C 
ATOM     14  O   UNL     1       7.553   5.446  15.219  0.00  0.00    +0.000 OA
ATOM     15  H   UNL     1       7.731   3.667  16.958  0.00  0.00    +0.000 HD
ATOM     16  H   UNL     1       6.094   3.871  17.546  0.00  0.00    +0.000 HD
ENDBRANCH  11  13
ENDBRANCH   1  11
TORSDOF 3
ENDMDL
MODEL 4
REMARK VINA RESULT:      -6.0      1.589      1.714
REMARK  Name = 
REMARK  3 active torsions:
REMARK  status: ('A' for Active; 'I' for Inactive)
REMARK    1  A    between atoms: C_2  and  C_4
REMARK    2  A    between atoms: C_4  and  N_5
REMARK    3  A    between atoms: C_6  and  C_8
REMARK                            x       y       z     vdW  Elec       q    Type
REMARK                         _______ _______ _______ _____ _____    ______ ____
ROOT
ATOM      1  N   UNL     1       5.052   3.735  17.490  0.00  0.00    +0.000 N 
ATOM      2  C   UNL     1       4.031   4.572  17.882  0.00  0.00    +0.000 C 
ATOM      3  O   UNL     1       3.740   5.596  17.275  0.00  0.00    +0.000 OA
ATOM      4  H   UNL     1       5.048   2.778  17.820  0.00  0.00    +0.000 HD
ENDROOT
BRANCH   2   5
ATOM      5  C   UNL     1       3.223   4.110  19.045  0.00  0.00    +0.000 A 
ATOM      6  C   UNL     1       3.682   3.098  19.901  0.00  0.00    +0.000 A 
ATOM      7  C   UNL     1       2.877   2.659  20.956  0.00  0.00    +0.000 A 
ATOM      8  C   UNL     1       1.626   3.234  21.165  0.00  0.00    +0.000 A 
ATOM      9  C   UNL     1       1.177   4.260  20.333  0.00  0.00    +0.000 A 
ATOM     10  C   UNL     1       1.977   4.704  19.277  0.00  0.00    +0.000 A 
ENDBRANCH   2   5
BRANCH   1  11
ATOM     11  C   UNL     1       5.882   4.022  16.334  0.00  0.00    +0.000 C 
BRANCH  11  13
ATOM     12  N   UNL     1       7.961   4.243  17.608  0.00  0.00    +0.000 N 
ATOM     13  C   UNL     1       7.118   4.837  16.712  0.00  0.00    +0.000 C 
ATOM     14  O   UNL     1       7.390   5.923  16.210  0.00  0.00    +0.000 OA
ATOM     15  H   UNL     1       8.835   4.696  17.830  0.00  0.00    +0.000 HD
ATOM     16  H   UNL     1       7.811   3.278  17.897  0.00  0.00    +0.000 HD
ENDBRANCH  11  13
ENDBRANCH   1  11
TORSDOF 3
ENDMDL
MODEL 5
REMARK VINA RESULT:      -6.0      0.709      1.505
REMARK  Name = 
REMARK  3 active torsions:
REMARK  status: ('A' for Active; 'I' for Inactive)
REMARK    1  A    between atoms: C_2  and  C_4
REMARK    2  A    between atoms: C_4  and  N_5
REMARK    3  A    between atoms: C_6  and  C_8
REMARK                            x       y       z     vdW  Elec       q    Type
REMARK                         _______ _______ _______ _____ _____    ______ ____
ROOT
ATOM      1  N   UNL     1       4.994   3.711  17.110  0.00  0.00    +0.000 N 
ATOM      2  C   UNL     1       4.120   4.726  17.428  0.00  0.00    +0.000 C 
ATOM      3  O   UNL     1       4.178   5.839  16.917  0.00  0.00    +0.000 OA
ATOM      4  H   UNL     1       4.721   2.757  17.308  0.00  0.00    +0.000 HD
ENDROOT
BRANCH   2   5
ATOM      5  C   UNL     1       3.021   4.367  18.367  0.00  0.00    +0.000 A 
ATOM      6  C   UNL     1       2.218   3.236  18.158  0.00  0.00    +0.000 A 
ATOM      7  C   UNL     1       1.168   2.954  19.035  0.00  0.00    +0.000 A 
ATOM      8  C   UNL     1       0.926   3.788  20.125  0.00  0.00    +0.000 A 
ATOM      9  C   UNL     1       1.740   4.897  20.353  0.00  0.00    +0.000 A 
ATOM     10  C   UNL     1       2.791   5.185  19.479  0.00  0.00    +0.000 A 
ENDBRANCH   2   5
BRANCH   1  11
ATOM     11  C   UNL     1       6.075   3.895  16.157  0.00  0.00    +0.000 C 
BRANCH  11  13
ATOM     12  N   UNL     1       7.145   6.093  16.299  0.00  0.00    +0.000 N 
ATOM     13  C   UNL     1       7.177   4.793  16.718  0.00  0.00    +0.000 C 
ATOM     14  O   UNL     1       8.005   4.411  17.540  0.00  0.00    +0.000 OA
ATOM     15  H   UNL     1       7.795   6.751  16.702  0.00  0.00    +0.000 HD
ATOM     16  H   UNL     1       6.363   6.437  15.745  0.00  0.00    +0.000 HD
ENDBRANCH  11  13
ENDBRANCH   1  11
TORSDOF 3
ENDMDL
MODEL 6
REMARK VINA RESULT:      -6.0      1.337      1.499
REMARK  Name = 
REMARK  3 active torsions:
REMARK  status: ('A' for Active; 'I' for Inactive)
REMARK    1  A    between atoms: C_2  and  C_4
REMARK    2  A    between atoms: C_4  and  N_5
REMARK    3  A    between atoms: C_6  and  C_8
REMARK                            x       y       z     vdW  Elec       q    Type
REMARK                         _______ _______ _______ _____ _____    ______ ____
ROOT
ATOM      1  N   UNL     1       5.560   5.001  19.166  0.00  0.00    +0.000 N 
ATOM      2  C   UNL     1       4.394   5.498  18.628  0.00  0.00    +0.000 C 
ATOM      3  O   UNL     1       4.368   6.459  17.868  0.00  0.00    +0.000 OA
ATOM      4  H   UNL     1       5.566   4.051  19.516  0.00  0.00    +0.000 HD
ENDROOT
BRANCH   2   5
ATOM      5  C   UNL     1       3.155   4.734  18.945  0.00  0.00    +0.000 A 
ATOM      6  C   UNL     1       2.454   4.940  20.143  0.00  0.00    +0.000 A 
ATOM      7  C   UNL     1       1.320   4.174  20.427  0.00  0.00    +0.000 A 
ATOM      8  C   UNL     1       0.879   3.216  19.517  0.00  0.00    +0.000 A 
ATOM      9  C   UNL     1       1.557   3.028  18.312  0.00  0.00    +0.000 A 
ATOM     10  C   UNL     1       2.690   3.791  18.022  0.00  0.00    +0.000 A 
ENDBRANCH   2   5
BRANCH   1  11
ATOM     11  C   UNL     1       6.853   5.601  18.889  0.00  0.00    +0.000 C 
BRANCH  11  13
ATOM     12  N   UNL     1       7.194   5.575  16.465  0.00  0.00    +0.000 N 
ATOM     13  C   UNL     1       7.512   4.985  17.655  0.00  0.00    +0.000 C 
ATOM     14  O   UNL     1       8.324   4.066  17.712  0.00  0.00    +0.000 OA
ATOM     15  H   UNL     1       7.665   5.266  15.627  0.00  0.00    +0.000 HD
ATOM     16  H   UNL     1       6.648   6.434  16.444  0.00  0.00    +0.000 HD
ENDBRANCH  11  13
ENDBRANCH   1  11
TORSDOF 3
ENDMDL
MODEL 7
REMARK VINA RESULT:      -5.9      0.959      1.647
REMARK  Name = 
REMARK  3 active torsions:
REMARK  status: ('A' for Active; 'I' for Inactive)
REMARK    1  A    between atoms: C_2  and  C_4
REMARK    2  A    between atoms: C_4  and  N_5
REMARK    3  A    between atoms: C_6  and  C_8
REMARK                            x       y       z     vdW  Elec       q    Type
REMARK                         _______ _______ _______ _____ _____    ______ ____
ROOT
ATOM      1  N   UNL     1       4.482   4.842  16.809  0.00  0.00    +0.000 N 
ATOM      2  C   UNL     1       3.690   5.623  17.620  0.00  0.00    +0.000 C 
ATOM      3  O   UNL     1       3.716   6.848  17.597  0.00  0.00    +0.000 OA
ATOM      4  H   UNL     1       4.208   3.883  16.641  0.00  0.00    +0.000 HD
ENDROOT
BRANCH   2   5
ATOM      5  C   UNL     1       2.711   4.890  18.471  0.00  0.00    +0.000 A 
ATOM      6  C   UNL     1       2.033   3.757  17.999  0.00  0.00    +0.000 A 
ATOM      7  C   UNL     1       1.090   3.120  18.810  0.00  0.00    +0.000 A 
ATOM      8  C   UNL     1       0.831   3.603  20.091  0.00  0.00    +0.000 A 
ATOM      9  C   UNL     1       1.524   4.713  20.575  0.00  0.00    +0.000 A 
ATOM     10  C   UNL     1       2.468   5.353  19.770  0.00  0.00    +0.000 A 
ENDBRANCH   2   5
BRANCH   1  11
ATOM     11  C   UNL     1       5.436   5.419  15.878  0.00  0.00    +0.000 C 
BRANCH  11  13
ATOM     12  N   UNL     1       7.276   4.343  17.082  0.00  0.00    +0.000 N 
ATOM     13  C   UNL     1       6.841   5.487  16.475  0.00  0.00    +0.000 C 
ATOM     14  O   UNL     1       7.571   6.468  16.372  0.00  0.00    +0.000 OA
ATOM     15  H   UNL     1       8.227   4.301  17.418  0.00  0.00    +0.000 HD
ATOM     16  H   UNL     1       6.728   3.486  17.022  0.00  0.00    +0.000 HD
ENDBRANCH  11  13
ENDBRANCH   1  11
TORSDOF 3
ENDMDL
MODEL 8
REMARK VINA RESULT:      -5.9      1.729      1.895
REMARK  Name = 
REMARK  3 active torsions:
REMARK  status: ('A' for Active; 'I' for Inactive)
REMARK    1  A    between atoms: C_2  and  C_4
REMARK    2  A    between atoms: C_4  and  N_5
REMARK    3  A    between atoms: C_6  and  C_8
REMARK                            x       y       z     vdW  Elec       q    Type
REMARK                         _______ _______ _______ _____ _____    ______ ____
ROOT
ATOM      1  N   UNL     1       4.967   5.522  18.110  0.00  0.00    +0.000 N 
ATOM      2  C   UNL     1       4.817   4.393  18.883  0.00  0.00    +0.000 C 
ATOM      3  O   UNL     1       5.763   3.806  19.395  0.00  0.00    +0.000 OA
ATOM      4  H   UNL     1       4.169   6.131  17.980  0.00  0.00    +0.000 HD
ENDROOT
BRANCH   2   5
ATOM      5  C   UNL     1       3.413   3.972  19.151  0.00  0.00    +0.000 A 
ATOM      6  C   UNL     1       2.679   4.507  20.219  0.00  0.00    +0.000 A 
ATOM      7  C   UNL     1       1.379   4.056  20.467  0.00  0.00    +0.000 A 
ATOM      8  C   UNL     1       0.810   3.084  19.648  0.00  0.00    +0.000 A 
ATOM      9  C   UNL     1       1.526   2.570  18.568  0.00  0.00    +0.000 A 
ATOM     10  C   UNL     1       2.825   3.017  18.314  0.00  0.00    +0.000 A 
ENDBRANCH   2   5
BRANCH   1  11
ATOM     11  C   UNL     1       6.272   6.089  17.820  0.00  0.00    +0.000 C 
BRANCH  11  13
ATOM     12  N   UNL     1       7.791   4.365  16.975  0.00  0.00    +0.000 N 
ATOM     13  C   UNL     1       6.946   5.386  16.642  0.00  0.00    +0.000 C 
ATOM     14  O   UNL     1       6.710   5.658  15.469  0.00  0.00    +0.000 OA
ATOM     15  H   UNL     1       8.198   3.809  16.237  0.00  0.00    +0.000 HD
ATOM     16  H   UNL     1       7.857   4.043  17.938  0.00  0.00    +0.000 HD
ENDBRANCH  11  13
ENDBRANCH   1  11
TORSDOF 3
ENDMDL
MODEL 9
REMARK VINA RESULT:      -5.9      2.209      2.343
REMARK  Name = 
REMARK  3 active torsions:
REMARK  status: ('A' for Active; 'I' for Inactive)
REMARK    1  A    between atoms: C_2  and  C_4
REMARK    2  A    between atoms: C_4  and  N_5
REMARK    3  A    between atoms: C_6  and  C_8
REMARK                            x       y       z     vdW  Elec       q    Type
REMARK                         _______ _______ _______ _____ _____    ______ ____
ROOT
ATOM      1  N   UNL     1       5.769   4.333  18.899  0.00  0.00    +0.000 N 
ATOM      2  C   UNL     1       4.584   5.034  18.882  0.00  0.00    +0.000 C 
ATOM      3  O   UNL     1       4.429   6.064  18.236  0.00  0.00    +0.000 OA
ATOM      4  H   UNL     1       5.752   3.360  19.177  0.00  0.00    +0.000 HD
ENDROOT
BRANCH   2   5
ATOM      5  C   UNL     1       3.451   4.413  19.624  0.00  0.00    +0.000 A 
ATOM      6  C   UNL     1       2.232   5.086  19.797  0.00  0.00    +0.000 A 
ATOM      7  C   UNL     1       1.207   4.491  20.536  0.00  0.00    +0.000 A 
ATOM      8  C   UNL     1       1.389   3.226  21.091  0.00  0.00    +0.000 A 
ATOM      9  C   UNL     1       2.589   2.542  20.897  0.00  0.00    +0.000 A 
ATOM     10  C   UNL     1       3.618   3.131  20.159  0.00  0.00    +0.000 A 
ENDBRANCH   2   5
BRANCH   1  11
ATOM     11  C   UNL     1       6.940   4.782  18.167  0.00  0.00    +0.000 C 
BRANCH  11  13
ATOM     12  N   UNL     1       8.220   5.361  20.172  0.00  0.00    +0.000 N 
ATOM     13  C   UNL     1       7.752   5.801  18.966  0.00  0.00    +0.000 C 
ATOM     14  O   UNL     1       8.032   6.919  18.545  0.00  0.00    +0.000 OA
ATOM     15  H   UNL     1       8.833   5.961  20.704  0.00  0.00    +0.000 HD
ATOM     16  H   UNL     1       8.119   4.384  20.440  0.00  0.00    +0.000 HD
ENDBRANCH  11  13
ENDBRANCH   1  11
TORSDOF 3
ENDMDL
