MODEL 1
REMARK VINA RESULT:      -7.4      0.000      0.000
REMARK  Name = 
REMARK  3 active torsions:
REMARK  status: ('A' for Active; 'I' for Inactive)
REMARK    1  A    between atoms: C_2  and  C_4
REMARK    2  A    between atoms: N_6  and  C_7
REMARK    3  A    between atoms: C_17  and  O_18
REMARK                            x       y       z     vdW  Elec       q    Type
REMARK                         _______ _______ _______ _____ _____    ______ ____
ROOT
ATOM      1  C   UNL     1       5.059   4.789  19.231  0.00  0.00    +0.000 A 
ATOM      2  N   UNL     1       4.385   5.896  19.128  0.00  0.00    +0.000 NA
ATOM      3  N   UNL     1       3.006   5.834  19.270  0.00  0.00    +0.000 N 
ATOM      4  C   UNL     1       2.314   4.633  19.462  0.00  0.00    +0.000 A 
ATOM      5  O   UNL     1       1.097   4.474  19.536  0.00  0.00    +0.000 OA
ATOM      6  C   UNL     1       3.141   3.412  19.575  0.00  0.00    +0.000 A 
ATOM      7  C   UNL     1       4.469   3.452  19.483  0.00  0.00    +0.000 A 
ENDROOT
BRANCH   3   8
ATOM      8  C   UNL     1       2.358   7.118  19.233  0.00  0.00    +0.000 A 
ATOM      9  C   UNL     1       2.276   7.878  18.054  0.00  0.00    +0.000 A 
ATOM     10  C   UNL     1       1.619   9.113  18.024  0.00  0.00    +0.000 A 
ATOM     11  C   UNL     1       1.040   9.621  19.181  0.00  0.00    +0.000 A 
ATOM     12  C   UNL     1       1.117   8.887  20.361  0.00  0.00    +0.000 A 
ATOM     13 CL   UNL     1       0.416   9.521  21.800  0.00  0.00    +0.000 Cl
ATOM     14  C   UNL     1       1.757   7.645  20.388  0.00  0.00    +0.000 A 
ENDBRANCH   3   8
BRANCH   1  16
ATOM     15  N   UNL     1       7.104   4.287  17.995  0.00  0.00    +0.000 N 
ATOM     16  C   UNL     1       6.585   4.892  19.110  0.00  0.00    +0.000 C 
ATOM     17  O   UNL     1       7.284   5.429  19.953  0.00  0.00    +0.000 OA
ATOM     18  H   UNL     1       8.110   4.213  17.928  0.00  0.00    +0.000 HD
ATOM     19  H   UNL     1       6.523   3.657  17.453  0.00  0.00    +0.000 HD
ENDBRANCH   1  16
BRANCH   7  20
ATOM     20  O   UNL     1       5.261   2.337  19.626  0.00  0.00    +0.000 OA
ATOM     21  H   UNL     1       4.971   1.822  20.399  0.00  0.00    +0.000 HD
ENDBRANCH   7  20
TORSDOF 3
ENDMDL
MODEL 2
REMARK VINA RESULT:      -7.3      2.968      4.311
REMARK  Name = 
REMARK  3 active torsions:
REMARK  status: ('A' for Active; 'I' for Inactive)
REMARK    1  A    between atoms: C_2  and  C_4
REMARK    2  A    between atoms: N_6  and  C_7
REMARK    3  A    between atoms: C_17  and  O_18
REMARK                            x       y       z     vdW  Elec       q    Type
REMARK                         _______ _______ _______ _____ _____    ______ ____
ROOT
ATOM      1  C   UNL     1       6.002   5.388  17.635  0.00  0.00    +0.000 A 
ATOM      2  N   UNL     1       5.047   4.648  18.117  0.00  0.00    +0.000 NA
ATOM      3  N   UNL     1       3.786   5.212  18.243  0.00  0.00    +0.000 N 
ATOM      4  C   UNL     1       3.515   6.548  17.927  0.00  0.00    +0.000 A 
ATOM      5  O   UNL     1       2.451   7.149  18.063  0.00  0.00    +0.000 OA
ATOM      6  C   UNL     1       4.643   7.333  17.379  0.00  0.00    +0.000 A 
ATOM      7  C   UNL     1       5.853   6.801  17.211  0.00  0.00    +0.000 A 
ENDROOT
BRANCH   3   8
ATOM      8  C   UNL     1       2.779   4.291  18.697  0.00  0.00    +0.000 A 
ATOM      9  C   UNL     1       1.859   3.696  17.817  0.00  0.00    +0.000 A 
ATOM     10  C   UNL     1       0.903   2.781  18.267  0.00  0.00    +0.000 A 
ATOM     11  C   UNL     1       0.837   2.450  19.615  0.00  0.00    +0.000 A 
ATOM     12  C   UNL     1       1.733   3.034  20.505  0.00  0.00    +0.000 A 
ATOM     13 CL   UNL     1       1.644   2.640  22.179  0.00  0.00    +0.000 Cl
ATOM     14  C   UNL     1       2.701   3.935  20.054  0.00  0.00    +0.000 A 
ENDBRANCH   3   8
BRANCH   1  16
ATOM     15  N   UNL     1       7.747   4.518  16.166  0.00  0.00    +0.000 N 
ATOM     16  C   UNL     1       7.376   4.727  17.469  0.00  0.00    +0.000 C 
ATOM     17  O   UNL     1       8.065   4.377  18.413  0.00  0.00    +0.000 OA
ATOM     18  H   UNL     1       8.582   3.974  15.998  0.00  0.00    +0.000 HD
ATOM     19  H   UNL     1       7.055   4.604  15.430  0.00  0.00    +0.000 HD
ENDBRANCH   1  16
BRANCH   7  20
ATOM     20  O   UNL     1       6.905   7.498  16.665  0.00  0.00    +0.000 OA
ATOM     21  H   UNL     1       7.619   6.883  16.423  0.00  0.00    +0.000 HD
ENDBRANCH   7  20
TORSDOF 3
ENDMDL
MODEL 3
REMARK VINA RESULT:      -7.3      3.179      4.217
REMARK  Name = 
REMARK  3 active torsions:
REMARK  status: ('A' for Active; 'I' for Inactive)
REMARK    1  A    between atoms: C_2  and  C_4
REMARK    2  A    between atoms: N_6  and  C_7
REMARK    3  A    between atoms: C_17  and  O_18
REMARK                            x       y       z     vdW  Elec       q    Type
REMARK                         _______ _______ _______ _____ _____    ______ ____
ROOT
ATOM      1  C   UNL     1       6.537   5.613  18.180  0.00  0.00    +0.000 A 
ATOM      2  N   UNL     1       5.462   5.210  18.792  0.00  0.00    +0.000 NA
ATOM      3  N   UNL     1       4.256   5.803  18.446  0.00  0.00    +0.000 N 
ATOM      4  C   UNL     1       4.159   6.844  17.516  0.00  0.00    +0.000 A 
ATOM      5  O   UNL     1       3.149   7.469  17.195  0.00  0.00    +0.000 OA
ATOM      6  C   UNL     1       5.417   7.250  16.854  0.00  0.00    +0.000 A 
ATOM      7  C   UNL     1       6.581   6.668  17.139  0.00  0.00    +0.000 A 
ENDROOT
BRANCH   3   8
ATOM      8  C   UNL     1       3.115   5.230  19.108  0.00  0.00    +0.000 A 
ATOM      9  C   UNL     1       2.552   5.806  20.260  0.00  0.00    +0.000 A 
ATOM     10  C   UNL     1       1.425   5.254  20.878  0.00  0.00    +0.000 A 
ATOM     11  C   UNL     1       0.844   4.102  20.363  0.00  0.00    +0.000 A 
ATOM     12  C   UNL     1       1.390   3.511  19.227  0.00  0.00    +0.000 A 
ATOM     13 CL   UNL     1       0.683   2.074  18.596  0.00  0.00    +0.000 Cl
ATOM     14  C   UNL     1       2.505   4.071  18.598  0.00  0.00    +0.000 A 
ENDBRANCH   3   8
BRANCH   1  16
ATOM     15  N   UNL     1       8.353   5.272  19.776  0.00  0.00    +0.000 N 
ATOM     16  C   UNL     1       7.851   4.912  18.552  0.00  0.00    +0.000 C 
ATOM     17  O   UNL     1       8.423   4.134  17.808  0.00  0.00    +0.000 OA
ATOM     18  H   UNL     1       9.277   4.940  20.018  0.00  0.00    +0.000 HD
ATOM     19  H   UNL     1       7.978   6.085  20.250  0.00  0.00    +0.000 HD
ENDBRANCH   1  16
BRANCH   7  20
ATOM     20  O   UNL     1       7.756   6.999  16.507  0.00  0.00    +0.000 OA
ATOM     21  H   UNL     1       8.493   6.490  16.889  0.00  0.00    +0.000 HD
ENDBRANCH   7  20
TORSDOF 3
ENDMDL
MODEL 4
REMARK VINA RESULT:      -7.2      1.737      2.910
REMARK  Name = 
REMARK  3 active torsions:
REMARK  status: ('A' for Active; 'I' for Inactive)
REMARK    1  A    between atoms: C_2  and  C_4
REMARK    2  A    between atoms: N_6  and  C_7
REMARK    3  A    between atoms: C_17  and  O_18
REMARK                            x       y       z     vdW  Elec       q    Type
REMARK                         _______ _______ _______ _____ _____    ______ ____
ROOT
ATOM      1  C   UNL     1       3.042   3.944  20.259  0.00  0.00    +0.000 A 
ATOM      2  N   UNL     1       2.519   5.129  20.141  0.00  0.00    +0.000 NA
ATOM      3  N   UNL     1       3.134   6.029  19.283  0.00  0.00    +0.000 N 
ATOM      4  C   UNL     1       4.313   5.736  18.589  0.00  0.00    +0.000 A 
ATOM      5  O   UNL     1       4.959   6.486  17.860  0.00  0.00    +0.000 OA
ATOM      6  C   UNL     1       4.853   4.370  18.763  0.00  0.00    +0.000 A 
ATOM      7  C   UNL     1       4.257   3.474  19.551  0.00  0.00    +0.000 A 
ENDROOT
BRANCH   3   8
ATOM      8  C   UNL     1       2.432   7.278  19.149  0.00  0.00    +0.000 A 
ATOM      9  C   UNL     1       2.328   7.947  17.918  0.00  0.00    +0.000 A 
ATOM     10  C   UNL     1       1.619   9.147  17.796  0.00  0.00    +0.000 A 
ATOM     11  C   UNL     1       1.007   9.711  18.909  0.00  0.00    +0.000 A 
ATOM     12  C   UNL     1       1.104   9.067  20.139  0.00  0.00    +0.000 A 
ATOM     13 CL   UNL     1       0.363   9.770  21.525  0.00  0.00    +0.000 Cl
ATOM     14  C   UNL     1       1.798   7.859  20.260  0.00  0.00    +0.000 A 
ENDBRANCH   3   8
BRANCH   1  16
ATOM     15  N   UNL     1       0.962   2.903  21.000  0.00  0.00    +0.000 N 
ATOM     16  C   UNL     1       2.319   2.955  21.183  0.00  0.00    +0.000 C 
ATOM     17  O   UNL     1       2.894   2.300  22.037  0.00  0.00    +0.000 OA
ATOM     18  H   UNL     1       0.420   2.366  21.663  0.00  0.00    +0.000 HD
ATOM     19  H   UNL     1       0.504   3.624  20.455  0.00  0.00    +0.000 HD
ENDBRANCH   1  16
BRANCH   7  20
ATOM     20  O   UNL     1       4.716   2.186  19.696  0.00  0.00    +0.000 OA
ATOM     21  H   UNL     1       5.456   2.168  20.329  0.00  0.00    +0.000 HD
ENDBRANCH   7  20
TORSDOF 3
ENDMDL
MODEL 5
REMARK VINA RESULT:      -7.2      2.122      2.162
REMARK  Name = 
REMARK  3 active torsions:
REMARK  status: ('A' for Active; 'I' for Inactive)
REMARK    1  A    between atoms: C_2  and  C_4
REMARK    2  A    between atoms: N_6  and  C_7
REMARK    3  A    between atoms: C_17  and  O_18
REMARK                            x       y       z     vdW  Elec       q    Type
REMARK                         _______ _______ _______ _____ _____    ______ ____
ROOT
ATOM      1  C   UNL     1       5.352   5.772  16.970  0.00  0.00    +0.000 A 
ATOM      2  N   UNL     1       4.562   6.709  17.406  0.00  0.00    +0.000 NA
ATOM      3  N   UNL     1       3.298   6.343  17.846  0.00  0.00    +0.000 N 
ATOM      4  C   UNL     1       2.824   5.028  17.789  0.00  0.00    +0.000 A 
ATOM      5  O   UNL     1       1.704   4.622  18.096  0.00  0.00    +0.000 OA
ATOM      6  C   UNL     1       3.773   4.010  17.289  0.00  0.00    +0.000 A 
ATOM      7  C   UNL     1       5.006   4.332  16.898  0.00  0.00    +0.000 A 
ENDROOT
BRANCH   3   8
ATOM      8  C   UNL     1       2.534   7.432  18.394  0.00  0.00    +0.000 A 
ATOM      9  C   UNL     1       2.067   8.491  17.597  0.00  0.00    +0.000 A 
ATOM     10  C   UNL     1       1.302   9.530  18.136  0.00  0.00    +0.000 A 
ATOM     11  C   UNL     1       0.998   9.539  19.492  0.00  0.00    +0.000 A 
ATOM     12  C   UNL     1       1.457   8.503  20.300  0.00  0.00    +0.000 A 
ATOM     13 CL   UNL     1       1.098   8.519  21.984  0.00  0.00    +0.000 Cl
ATOM     14  C   UNL     1       2.207   7.455  19.760  0.00  0.00    +0.000 A 
ENDBRANCH   3   8
BRANCH   1  16
ATOM     15  N   UNL     1       7.206   7.352  17.116  0.00  0.00    +0.000 N 
ATOM     16  C   UNL     1       6.757   6.199  16.527  0.00  0.00    +0.000 C 
ATOM     17  O   UNL     1       7.405   5.590  15.693  0.00  0.00    +0.000 OA
ATOM     18  H   UNL     1       8.069   7.749  16.770  0.00  0.00    +0.000 HD
ATOM     19  H   UNL     1       6.553   7.945  17.614  0.00  0.00    +0.000 HD
ENDBRANCH   1  16
BRANCH   7  20
ATOM     20  O   UNL     1       5.920   3.398  16.468  0.00  0.00    +0.000 OA
ATOM     21  H   UNL     1       5.517   2.512  16.478  0.00  0.00    +0.000 HD
ENDBRANCH   7  20
TORSDOF 3
ENDMDL
MODEL 6
REMARK VINA RESULT:      -7.1      3.069      4.081
REMARK  Name = 
REMARK  3 active torsions:
REMARK  status: ('A' for Active; 'I' for Inactive)
REMARK    1  A    between atoms: C_2  and  C_4
REMARK    2  A    between atoms: N_6  and  C_7
REMARK    3  A    between atoms: C_17  and  O_18
REMARK                            x       y       z     vdW  Elec       q    Type
REMARK                         _______ _______ _______ _____ _____    ______ ____
ROOT
ATOM      1  C   UNL     1       6.500   6.100  17.383  0.00  0.00    +0.000 A 
ATOM      2  N   UNL     1       5.528   6.030  18.245  0.00  0.00    +0.000 NA
ATOM      3  N   UNL     1       4.510   5.119  18.005  0.00  0.00    +0.000 N 
ATOM      4  C   UNL     1       4.459   4.319  16.857  0.00  0.00    +0.000 A 
ATOM      5  O   UNL     1       3.571   3.534  16.531  0.00  0.00    +0.000 OA
ATOM      6  C   UNL     1       5.597   4.444  15.922  0.00  0.00    +0.000 A 
ATOM      7  C   UNL     1       6.607   5.283  16.150  0.00  0.00    +0.000 A 
ENDROOT
BRANCH   3   8
ATOM      8  C   UNL     1       3.531   5.049  19.056  0.00  0.00    +0.000 A 
ATOM      9  C   UNL     1       2.710   6.141  19.384  0.00  0.00    +0.000 A 
ATOM     10  C   UNL     1       1.742   6.052  20.391  0.00  0.00    +0.000 A 
ATOM     11  C   UNL     1       1.585   4.868  21.102  0.00  0.00    +0.000 A 
ATOM     12  C   UNL     1       2.393   3.778  20.797  0.00  0.00    +0.000 A 
ATOM     13 CL   UNL     1       2.213   2.315  21.688  0.00  0.00    +0.000 Cl
ATOM     14  C   UNL     1       3.348   3.859  19.781  0.00  0.00    +0.000 A 
ENDBRANCH   3   8
BRANCH   1  16
ATOM     15  N   UNL     1       8.281   6.846  18.877  0.00  0.00    +0.000 N 
ATOM     16  C   UNL     1       7.633   7.088  17.694  0.00  0.00    +0.000 C 
ATOM     17  O   UNL     1       7.909   8.032  16.973  0.00  0.00    +0.000 OA
ATOM     18  H   UNL     1       8.949   7.536  19.194  0.00  0.00    +0.000 HD
ATOM     19  H   UNL     1       7.872   6.207  19.549  0.00  0.00    +0.000 HD
ENDBRANCH   1  16
BRANCH   7  20
ATOM     20  O   UNL     1       7.696   5.386  15.317  0.00  0.00    +0.000 OA
ATOM     21  H   UNL     1       8.177   4.541  15.296  0.00  0.00    +0.000 HD
ENDBRANCH   7  20
TORSDOF 3
ENDMDL
MODEL 7
REMARK VINA RESULT:      -7.1      5.123      6.726
REMARK  Name = 
REMARK  3 active torsions:
REMARK  status: ('A' for Active; 'I' for Inactive)
REMARK    1  A    between atoms: C_2  and  C_4
REMARK    2  A    between atoms: N_6  and  C_7
REMARK    3  A    between atoms: C_17  and  O_18
REMARK                            x       y       z     vdW  Elec       q    Type
REMARK                         _______ _______ _______ _____ _____    ______ ____
ROOT
ATOM      1  C   UNL     1       4.451   3.918  17.869  0.00  0.00    +0.000 A 
ATOM      2  N   UNL     1       4.917   3.750  16.666  0.00  0.00    +0.000 NA
ATOM      3  N   UNL     1       5.237   4.881  15.928  0.00  0.00    +0.000 N 
ATOM      4  C   UNL     1       5.027   6.182  16.399  0.00  0.00    +0.000 A 
ATOM      5  O   UNL     1       5.220   7.236  15.796  0.00  0.00    +0.000 OA
ATOM      6  C   UNL     1       4.499   6.303  17.775  0.00  0.00    +0.000 A 
ATOM      7  C   UNL     1       4.223   5.232  18.519  0.00  0.00    +0.000 A 
ENDROOT
BRANCH   3   8
ATOM      8  C   UNL     1       5.830   4.593  14.650  0.00  0.00    +0.000 A 
ATOM      9  C   UNL     1       7.096   5.081  14.287  0.00  0.00    +0.000 A 
ATOM     10  C   UNL     1       7.673   4.771  13.051  0.00  0.00    +0.000 A 
ATOM     11  C   UNL     1       6.987   3.973  12.143  0.00  0.00    +0.000 A 
ATOM     12  C   UNL     1       5.729   3.485  12.480  0.00  0.00    +0.000 A 
ATOM     13 CL   UNL     1       4.868   2.510  11.352  0.00  0.00    +0.000 Cl
ATOM     14  C   UNL     1       5.157   3.779  13.721  0.00  0.00    +0.000 A 
ENDBRANCH   3   8
BRANCH   1  16
ATOM     15  N   UNL     1       4.984   2.447  19.742  0.00  0.00    +0.000 N 
ATOM     16  C   UNL     1       4.144   2.651  18.678  0.00  0.00    +0.000 C 
ATOM     17  O   UNL     1       3.258   1.869  18.378  0.00  0.00    +0.000 OA
ATOM     18  H   UNL     1       4.911   1.566  20.233  0.00  0.00    +0.000 HD
ATOM     19  H   UNL     1       5.840   2.984  19.812  0.00  0.00    +0.000 HD
ENDBRANCH   1  16
BRANCH   7  20
ATOM     20  O   UNL     1       3.772   5.319  19.815  0.00  0.00    +0.000 OA
ATOM     21  H   UNL     1       3.209   6.107  19.917  0.00  0.00    +0.000 HD
ENDBRANCH   7  20
TORSDOF 3
ENDMDL
MODEL 8
REMARK VINA RESULT:      -7.0      1.180      1.647
REMARK  Name = 
REMARK  3 active torsions:
REMARK  status: ('A' for Active; 'I' for Inactive)
REMARK    1  A    between atoms: C_2  and  C_4
REMARK    2  A    between atoms: N_6  and  C_7
REMARK    3  A    between atoms: C_17  and  O_18
REMARK                            x       y       z     vdW  Elec       q    Type
REMARK                         _______ _______ _______ _____ _____    ______ ____
ROOT
ATOM      1  C   UNL     1       4.785   4.632  19.447  0.00  0.00    +0.000 A 
ATOM      2  N   UNL     1       4.090   5.730  19.505  0.00  0.00    +0.000 NA
ATOM      3  N   UNL     1       2.740   5.630  19.810  0.00  0.00    +0.000 N 
ATOM      4  C   UNL     1       2.091   4.404  20.000  0.00  0.00    +0.000 A 
ATOM      5  O   UNL     1       0.894   4.216  20.211  0.00  0.00    +0.000 OA
ATOM      6  C   UNL     1       2.940   3.196  19.925  0.00  0.00    +0.000 A 
ATOM      7  C   UNL     1       4.246   3.269  19.674  0.00  0.00    +0.000 A 
ENDROOT
BRANCH   3   8
ATOM      8  C   UNL     1       2.077   6.900  19.942  0.00  0.00    +0.000 A 
ATOM      9  C   UNL     1       1.345   7.244  21.091  0.00  0.00    +0.000 A 
ATOM     10  C   UNL     1       0.729   8.493  21.219  0.00  0.00    +0.000 A 
ATOM     11  C   UNL     1       0.822   9.423  20.190  0.00  0.00    +0.000 A 
ATOM     12  C   UNL     1       1.537   9.100  19.041  0.00  0.00    +0.000 A 
ATOM     13 CL   UNL     1       1.641  10.242  17.758  0.00  0.00    +0.000 Cl
ATOM     14  C   UNL     1       2.168   7.859  18.919  0.00  0.00    +0.000 A 
ENDBRANCH   3   8
BRANCH   1  16
ATOM     15  N   UNL     1       6.687   4.160  17.991  0.00  0.00    +0.000 N 
ATOM     16  C   UNL     1       6.283   4.774  19.148  0.00  0.00    +0.000 C 
ATOM     17  O   UNL     1       7.058   5.347  19.895  0.00  0.00    +0.000 OA
ATOM     18  H   UNL     1       7.680   4.112  17.809  0.00  0.00    +0.000 HD
ATOM     19  H   UNL     1       6.066   3.504  17.532  0.00  0.00    +0.000 HD
ENDBRANCH   1  16
BRANCH   7  20
ATOM     20  O   UNL     1       5.063   2.163  19.641  0.00  0.00    +0.000 OA
ATOM     21  H   UNL     1       4.525   1.357  19.549  0.00  0.00    +0.000 HD
ENDBRANCH   7  20
TORSDOF 3
ENDMDL
MODEL 9
REMARK VINA RESULT:      -7.0      2.342      2.630
REMARK  Name = 
REMARK  3 active torsions:
REMARK  status: ('A' for Active; 'I' for Inactive)
REMARK    1  A    between atoms: C_2  and  C_4
REMARK    2  A    between atoms: N_6  and  C_7
REMARK    3  A    between atoms: C_17  and  O_18
REMARK                            x       y       z     vdW  Elec       q    Type
REMARK                         _______ _______ _______ _____ _____    ______ ____
ROOT
ATOM      1  C   UNL     1       5.355   5.547  16.916  0.00  0.00    +0.000 A 
ATOM      2  N   UNL     1       4.581   6.371  17.559  0.00  0.00    +0.000 NA
ATOM      3  N   UNL     1       3.348   5.904  17.991  0.00  0.00    +0.000 N 
ATOM      4  C   UNL     1       2.885   4.612  17.715  0.00  0.00    +0.000 A 
ATOM      5  O   UNL     1       1.789   4.133  18.001  0.00  0.00    +0.000 OA
ATOM      6  C   UNL     1       3.816   3.725  16.984  0.00  0.00    +0.000 A 
ATOM      7  C   UNL     1       5.021   4.138  16.595  0.00  0.00    +0.000 A 
ENDROOT
BRANCH   3   8
ATOM      8  C   UNL     1       2.605   6.857  18.771  0.00  0.00    +0.000 A 
ATOM      9  C   UNL     1       2.216   6.596  20.095  0.00  0.00    +0.000 A 
ATOM     10  C   UNL     1       1.518   7.543  20.852  0.00  0.00    +0.000 A 
ATOM     11  C   UNL     1       1.181   8.769  20.293  0.00  0.00    +0.000 A 
ATOM     12  C   UNL     1       1.551   9.045  18.980  0.00  0.00    +0.000 A 
ATOM     13 CL   UNL     1       1.120  10.557  18.278  0.00  0.00    +0.000 Cl
ATOM     14  C   UNL     1       2.263   8.107  18.228  0.00  0.00    +0.000 A 
ENDBRANCH   3   8
BRANCH   1  16
ATOM     15  N   UNL     1       7.125   7.213  17.144  0.00  0.00    +0.000 N 
ATOM     16  C   UNL     1       6.729   6.078  16.486  0.00  0.00    +0.000 C 
ATOM     17  O   UNL     1       7.396   5.560  15.606  0.00  0.00    +0.000 OA
ATOM     18  H   UNL     1       7.960   7.678  16.815  0.00  0.00    +0.000 HD
ATOM     19  H   UNL     1       6.449   7.736  17.688  0.00  0.00    +0.000 HD
ENDBRANCH   1  16
BRANCH   7  20
ATOM     20  O   UNL     1       5.919   3.319  15.952  0.00  0.00    +0.000 OA
ATOM     21  H   UNL     1       6.180   2.589  16.539  0.00  0.00    +0.000 HD
ENDBRANCH   7  20
TORSDOF 3
ENDMDL
