MODEL 1
REMARK VINA RESULT:      -6.8      0.000      0.000
REMARK  Name = 
REMARK  9 active torsions:
REMARK  status: ('A' for Active; 'I' for Inactive)
REMARK    1  A    between atoms: C_1  and  O_2
REMARK    2  A    between atoms: O_2  and  C_3
REMARK    3  A    between atoms: C_3  and  C_4
REMARK    4  A    between atoms: C_4  and  O_5
REMARK    5  A    between atoms: O_5  and  C_6
REMARK    6  A    between atoms: C_10  and  C_12
REMARK    7  A    between atoms: C_17  and  C_18
REMARK    8  A    between atoms: C_18  and  C_19
REMARK    9  A    between atoms: N_22  and  C_23
REMARK                            x       y       z     vdW  Elec       q    Type
REMARK                         _______ _______ _______ _____ _____    ______ ____
ROOT
ATOM      1  C   UNL     1       6.270   6.933  16.920  0.00  0.00    +0.000 C 
ATOM      2  C   UNL     1       4.800   7.035  16.518  0.00  0.00    +0.000 C 
ATOM      3  C   UNL     1       4.071   6.405  17.681  0.00  0.00    +0.000 C 
ATOM      4  N   UNL     1       4.950   5.349  18.149  0.00  0.00    +0.000 N 
ATOM      5  C   UNL     1       4.609   4.328  19.030  0.00  0.00    +0.000 C 
ATOM      6  O   UNL     1       5.429   3.472  19.358  0.00  0.00    +0.000 OA
ATOM      7  C   UNL     1       6.357   5.661  17.816  0.00  0.00    +0.000 C 
ENDROOT
BRANCH   5   8
ATOM      8  C   UNL     1       3.240   4.248  19.518  0.00  0.00    +0.000 A 
ATOM      9  C   UNL     1       2.584   4.817  20.600  0.00  0.00    +0.000 A 
ATOM     10  C   UNL     1       1.244   4.359  20.605  0.00  0.00    +0.000 A 
ATOM     11  C   UNL     1       1.108   3.493  19.552  0.00  0.00    +0.000 A 
ATOM     12  N   UNL     1       2.322   3.403  18.922  0.00  0.00    +0.000 N 
ATOM     13  H   UNL     1       2.538   2.814  18.130  0.00  0.00    +0.000 HD
ENDBRANCH   5   8
BRANCH   1  14
ATOM     14  O   UNL     1       6.611   8.125  17.639  0.00  0.00    +0.000 OA
BRANCH  14  15
ATOM     15  C   UNL     1       8.014   8.190  17.918  0.00  0.00    +0.000 C 
BRANCH  15  16
ATOM     16  C   UNL     1       8.427   9.637  18.126  0.00  0.00    +0.000 C 
BRANCH  16  18
ATOM     17  C   UNL     1       9.793  11.012  19.454  0.00  0.00    +0.000 C 
ATOM     18  O   UNL     1       9.227   9.720  19.305  0.00  0.00    +0.000 OA
ENDBRANCH  16  18
ENDBRANCH  15  16
ENDBRANCH  14  15
ENDBRANCH   1  14
BRANCH   7  19
ATOM     19  C   UNL     1       7.143   4.518  17.134  0.00  0.00    +0.000 C 
BRANCH  19  20
ATOM     20  C   UNL     1       6.834   4.349  15.673  0.00  0.00    +0.000 A 
ATOM     21  C   UNL     1       5.753   3.642  15.094  0.00  0.00    +0.000 A 
ATOM     22  N   UNL     1       5.758   3.682  13.762  0.00  0.00    +0.000 NA
ATOM     23  N   UNL     1       6.862   4.390  13.468  0.00  0.00    +0.000 N 
ATOM     24  C   UNL     1       7.242   4.591  12.090  0.00  0.00    +0.000 C 
ATOM     25  C   UNL     1       7.537   4.819  14.578  0.00  0.00    +0.000 A 
ENDBRANCH  19  20
ENDBRANCH   7  19
TORSDOF 7
ENDMDL
MODEL 2
REMARK VINA RESULT:      -6.7      3.315      5.760
REMARK  Name = 
REMARK  9 active torsions:
REMARK  status: ('A' for Active; 'I' for Inactive)
REMARK    1  A    between atoms: C_1  and  O_2
REMARK    2  A    between atoms: O_2  and  C_3
REMARK    3  A    between atoms: C_3  and  C_4
REMARK    4  A    between atoms: C_4  and  O_5
REMARK    5  A    between atoms: O_5  and  C_6
REMARK    6  A    between atoms: C_10  and  C_12
REMARK    7  A    between atoms: C_17  and  C_18
REMARK    8  A    between atoms: C_18  and  C_19
REMARK    9  A    between atoms: N_22  and  C_23
REMARK                            x       y       z     vdW  Elec       q    Type
REMARK                         _______ _______ _______ _____ _____    ______ ____
ROOT
ATOM      1  C   UNL     1       3.630   5.191  18.622  0.00  0.00    +0.000 C 
ATOM      2  C   UNL     1       3.179   5.621  20.017  0.00  0.00    +0.000 C 
ATOM      3  C   UNL     1       2.162   6.705  19.740  0.00  0.00    +0.000 C 
ATOM      4  N   UNL     1       2.644   7.378  18.549  0.00  0.00    +0.000 N 
ATOM      5  C   UNL     1       2.191   8.598  18.057  0.00  0.00    +0.000 C 
ATOM      6  O   UNL     1       2.674   9.091  17.039  0.00  0.00    +0.000 OA
ATOM      7  C   UNL     1       3.474   6.463  17.736  0.00  0.00    +0.000 C 
ENDROOT
BRANCH   5   8
ATOM      8  C   UNL     1       1.169   9.321  18.800  0.00  0.00    +0.000 A 
ATOM      9  C   UNL     1       0.909   9.470  20.154  0.00  0.00    +0.000 A 
ATOM     10  C   UNL     1      -0.250  10.271  20.303  0.00  0.00    +0.000 A 
ATOM     11  C   UNL     1      -0.701  10.570  19.044  0.00  0.00    +0.000 A 
ATOM     12  N   UNL     1       0.138   9.967  18.143  0.00  0.00    +0.000 N 
ATOM     13  H   UNL     1       0.039   9.982  17.138  0.00  0.00    +0.000 HD
ENDBRANCH   5   8
BRANCH   1  14
ATOM     14  O   UNL     1       2.772   4.125  18.194  0.00  0.00    +0.000 OA
BRANCH  14  15
ATOM     15  C   UNL     1       3.393   2.847  18.364  0.00  0.00    +0.000 C 
BRANCH  15  16
ATOM     16  C   UNL     1       2.465   1.927  19.139  0.00  0.00    +0.000 C 
BRANCH  16  18
ATOM     17  C   UNL     1       1.314   2.704  21.035  0.00  0.00    +0.000 C 
ATOM     18  O   UNL     1       1.358   2.690  19.617  0.00  0.00    +0.000 OA
ENDBRANCH  16  18
ENDBRANCH  15  16
ENDBRANCH  14  15
ENDBRANCH   1  14
BRANCH   7  19
ATOM     19  C   UNL     1       4.838   7.033  17.285  0.00  0.00    +0.000 C 
BRANCH  19  20
ATOM     20  C   UNL     1       5.640   6.095  16.428  0.00  0.00    +0.000 A 
ATOM     21  C   UNL     1       6.962   5.638  16.649  0.00  0.00    +0.000 A 
ATOM     22  N   UNL     1       7.392   4.806  15.700  0.00  0.00    +0.000 NA
ATOM     23  N   UNL     1       6.361   4.744  14.840  0.00  0.00    +0.000 N 
ATOM     24  C   UNL     1       6.484   3.973  13.626  0.00  0.00    +0.000 C 
ATOM     25  C   UNL     1       5.286   5.492  15.235  0.00  0.00    +0.000 A 
ENDBRANCH  19  20
ENDBRANCH   7  19
TORSDOF 7
ENDMDL
MODEL 3
REMARK VINA RESULT:      -6.7      2.990      5.593
REMARK  Name = 
REMARK  9 active torsions:
REMARK  status: ('A' for Active; 'I' for Inactive)
REMARK    1  A    between atoms: C_1  and  O_2
REMARK    2  A    between atoms: O_2  and  C_3
REMARK    3  A    between atoms: C_3  and  C_4
REMARK    4  A    between atoms: C_4  and  O_5
REMARK    5  A    between atoms: O_5  and  C_6
REMARK    6  A    between atoms: C_10  and  C_12
REMARK    7  A    between atoms: C_17  and  C_18
REMARK    8  A    between atoms: C_18  and  C_19
REMARK    9  A    between atoms: N_22  and  C_23
REMARK                            x       y       z     vdW  Elec       q    Type
REMARK                         _______ _______ _______ _____ _____    ______ ____
ROOT
ATOM      1  C   UNL     1       3.886   4.779  18.268  0.00  0.00    +0.000 C 
ATOM      2  C   UNL     1       3.763   4.968  19.779  0.00  0.00    +0.000 C 
ATOM      3  C   UNL     1       2.684   6.017  19.917  0.00  0.00    +0.000 C 
ATOM      4  N   UNL     1       2.859   6.890  18.770  0.00  0.00    +0.000 N 
ATOM      5  C   UNL     1       2.275   8.140  18.595  0.00  0.00    +0.000 C 
ATOM      6  O   UNL     1       2.496   8.809  17.587  0.00  0.00    +0.000 OA
ATOM      7  C   UNL     1       3.497   6.158  17.655  0.00  0.00    +0.000 C 
ENDROOT
BRANCH   5   8
ATOM      8  C   UNL     1       1.437   8.681  19.656  0.00  0.00    +0.000 A 
ATOM      9  C   UNL     1       0.442   9.647  19.679  0.00  0.00    +0.000 A 
ATOM     10  C   UNL     1      -0.015   9.789  21.012  0.00  0.00    +0.000 A 
ATOM     11  C   UNL     1       0.727   8.939  21.788  0.00  0.00    +0.000 A 
ATOM     12  N   UNL     1       1.623   8.299  20.972  0.00  0.00    +0.000 N 
ATOM     13  H   UNL     1       2.326   7.635  21.267  0.00  0.00    +0.000 HD
ENDBRANCH   5   8
BRANCH   1  14
ATOM     14  O   UNL     1       2.978   3.741  17.880  0.00  0.00    +0.000 OA
BRANCH  14  15
ATOM     15  C   UNL     1       2.941   2.684  18.845  0.00  0.00    +0.000 C 
BRANCH  15  16
ATOM     16  C   UNL     1       1.522   2.157  18.971  0.00  0.00    +0.000 C 
BRANCH  16  18
ATOM     17  C   UNL     1       1.306   2.764  21.231  0.00  0.00    +0.000 C 
ATOM     18  O   UNL     1       0.816   2.962  19.915  0.00  0.00    +0.000 OA
ENDBRANCH  16  18
ENDBRANCH  15  16
ENDBRANCH  14  15
ENDBRANCH   1  14
BRANCH   7  19
ATOM     19  C   UNL     1       4.705   6.870  17.004  0.00  0.00    +0.000 C 
BRANCH  19  20
ATOM     20  C   UNL     1       5.564   5.971  16.161  0.00  0.00    +0.000 A 
ATOM     21  C   UNL     1       6.910   5.596  16.392  0.00  0.00    +0.000 A 
ATOM     22  N   UNL     1       7.392   4.779  15.455  0.00  0.00    +0.000 NA
ATOM     23  N   UNL     1       6.370   4.646  14.592  0.00  0.00    +0.000 N 
ATOM     24  C   UNL     1       6.543   3.868  13.388  0.00  0.00    +0.000 C 
ATOM     25  C   UNL     1       5.251   5.333  14.974  0.00  0.00    +0.000 A 
ENDBRANCH  19  20
ENDBRANCH   7  19
TORSDOF 7
ENDMDL
MODEL 4
REMARK VINA RESULT:      -6.5      0.743      1.050
REMARK  Name = 
REMARK  9 active torsions:
REMARK  status: ('A' for Active; 'I' for Inactive)
REMARK    1  A    between atoms: C_1  and  O_2
REMARK    2  A    between atoms: O_2  and  C_3
REMARK    3  A    between atoms: C_3  and  C_4
REMARK    4  A    between atoms: C_4  and  O_5
REMARK    5  A    between atoms: O_5  and  C_6
REMARK    6  A    between atoms: C_10  and  C_12
REMARK    7  A    between atoms: C_17  and  C_18
REMARK    8  A    between atoms: C_18  and  C_19
REMARK    9  A    between atoms: N_22  and  C_23
REMARK                            x       y       z     vdW  Elec       q    Type
REMARK                         _______ _______ _______ _____ _____    ______ ____
ROOT
ATOM      1  C   UNL     1       6.347   6.920  16.918  0.00  0.00    +0.000 C 
ATOM      2  C   UNL     1       4.879   7.072  16.524  0.00  0.00    +0.000 C 
ATOM      3  C   UNL     1       4.135   6.450  17.684  0.00  0.00    +0.000 C 
ATOM      4  N   UNL     1       4.984   5.363  18.134  0.00  0.00    +0.000 N 
ATOM      5  C   UNL     1       4.615   4.342  19.004  0.00  0.00    +0.000 C 
ATOM      6  O   UNL     1       5.409   3.457  19.318  0.00  0.00    +0.000 OA
ATOM      7  C   UNL     1       6.398   5.635  17.798  0.00  0.00    +0.000 C 
ENDROOT
BRANCH   5   8
ATOM      8  C   UNL     1       3.246   4.298  19.498  0.00  0.00    +0.000 A 
ATOM      9  C   UNL     1       2.608   4.896  20.575  0.00  0.00    +0.000 A 
ATOM     10  C   UNL     1       1.257   4.468  20.590  0.00  0.00    +0.000 A 
ATOM     11  C   UNL     1       1.099   3.591  19.550  0.00  0.00    +0.000 A 
ATOM     12  N   UNL     1       2.308   3.467  18.916  0.00  0.00    +0.000 N 
ATOM     13  H   UNL     1       2.508   2.863  18.131  0.00  0.00    +0.000 HD
ENDBRANCH   5   8
BRANCH   1  14
ATOM     14  O   UNL     1       6.728   8.092  17.649  0.00  0.00    +0.000 OA
BRANCH  14  15
ATOM     15  C   UNL     1       8.138   8.127  17.891  0.00  0.00    +0.000 C 
BRANCH  15  16
ATOM     16  C   UNL     1       8.505   9.430  18.581  0.00  0.00    +0.000 C 
BRANCH  16  18
ATOM     17  C   UNL     1       9.051  11.669  18.121  0.00  0.00    +0.000 C 
ATOM     18  O   UNL     1       8.437  10.489  17.627  0.00  0.00    +0.000 OA
ENDBRANCH  16  18
ENDBRANCH  15  16
ENDBRANCH  14  15
ENDBRANCH   1  14
BRANCH   7  19
ATOM     19  C   UNL     1       7.145   4.476  17.099  0.00  0.00    +0.000 C 
BRANCH  19  20
ATOM     20  C   UNL     1       6.873   4.374  15.624  0.00  0.00    +0.000 A 
ATOM     21  C   UNL     1       7.587   4.992  14.569  0.00  0.00    +0.000 A 
ATOM     22  N   UNL     1       7.094   4.700  13.365  0.00  0.00    +0.000 NA
ATOM     23  N   UNL     1       6.037   3.916  13.636  0.00  0.00    +0.000 N 
ATOM     24  C   UNL     1       5.197   3.446  12.560  0.00  0.00    +0.000 C 
ATOM     25  C   UNL     1       5.867   3.685  14.973  0.00  0.00    +0.000 A 
ENDBRANCH  19  20
ENDBRANCH   7  19
TORSDOF 7
ENDMDL
MODEL 5
REMARK VINA RESULT:      -6.4      3.482      5.617
REMARK  Name = 
REMARK  9 active torsions:
REMARK  status: ('A' for Active; 'I' for Inactive)
REMARK    1  A    between atoms: C_1  and  O_2
REMARK    2  A    between atoms: O_2  and  C_3
REMARK    3  A    between atoms: C_3  and  C_4
REMARK    4  A    between atoms: C_4  and  O_5
REMARK    5  A    between atoms: O_5  and  C_6
REMARK    6  A    between atoms: C_10  and  C_12
REMARK    7  A    between atoms: C_17  and  C_18
REMARK    8  A    between atoms: C_18  and  C_19
REMARK    9  A    between atoms: N_22  and  C_23
REMARK                            x       y       z     vdW  Elec       q    Type
REMARK                         _______ _______ _______ _____ _____    ______ ____
ROOT
ATOM      1  C   UNL     1       3.170   5.339  18.610  0.00  0.00    +0.000 C 
ATOM      2  C   UNL     1       2.802   5.683  20.052  0.00  0.00    +0.000 C 
ATOM      3  C   UNL     1       1.842   6.841  19.906  0.00  0.00    +0.000 C 
ATOM      4  N   UNL     1       2.316   7.578  18.749  0.00  0.00    +0.000 N 
ATOM      5  C   UNL     1       1.918   8.857  18.373  0.00  0.00    +0.000 C 
ATOM      6  O   UNL     1       2.389   9.401  17.375  0.00  0.00    +0.000 OA
ATOM      7  C   UNL     1       3.056   6.684  17.832  0.00  0.00    +0.000 C 
ENDROOT
BRANCH   5   8
ATOM      8  C   UNL     1       0.971   9.576  19.214  0.00  0.00    +0.000 A 
ATOM      9  C   UNL     1       0.916   9.828  20.577  0.00  0.00    +0.000 A 
ATOM     10  C   UNL     1      -0.264  10.563  20.850  0.00  0.00    +0.000 A 
ATOM     11  C   UNL     1      -0.928  10.719  19.662  0.00  0.00    +0.000 A 
ATOM     12  N   UNL     1      -0.196  10.093  18.686  0.00  0.00    +0.000 N 
ATOM     13  H   UNL     1      -0.453  10.013  17.711  0.00  0.00    +0.000 HD
ENDBRANCH   5   8
BRANCH   1  14
ATOM     14  O   UNL     1       2.233   4.362  18.140  0.00  0.00    +0.000 OA
BRANCH  14  15
ATOM     15  C   UNL     1       2.847   3.432  17.242  0.00  0.00    +0.000 C 
BRANCH  15  16
ATOM     16  C   UNL     1       4.081   2.830  17.894  0.00  0.00    +0.000 C 
BRANCH  16  18
ATOM     17  C   UNL     1       4.365   2.169  20.131  0.00  0.00    +0.000 C 
ATOM     18  O   UNL     1       3.664   1.931  18.921  0.00  0.00    +0.000 OA
ENDBRANCH  16  18
ENDBRANCH  15  16
ENDBRANCH  14  15
ENDBRANCH   1  14
BRANCH   7  19
ATOM     19  C   UNL     1       4.433   7.210  17.366  0.00  0.00    +0.000 C 
BRANCH  19  20
ATOM     20  C   UNL     1       5.280   6.178  16.676  0.00  0.00    +0.000 A 
ATOM     21  C   UNL     1       6.451   5.551  17.168  0.00  0.00    +0.000 A 
ATOM     22  N   UNL     1       6.971   4.674  16.310  0.00  0.00    +0.000 NA
ATOM     23  N   UNL     1       6.159   4.751  15.242  0.00  0.00    +0.000 N 
ATOM     24  C   UNL     1       6.450   3.975  14.060  0.00  0.00    +0.000 C 
ATOM     25  C   UNL     1       5.126   5.632  15.415  0.00  0.00    +0.000 A 
ENDBRANCH  19  20
ENDBRANCH   7  19
TORSDOF 7
ENDMDL
MODEL 6
REMARK VINA RESULT:      -6.3      3.204      7.664
REMARK  Name = 
REMARK  9 active torsions:
REMARK  status: ('A' for Active; 'I' for Inactive)
REMARK    1  A    between atoms: C_1  and  O_2
REMARK    2  A    between atoms: O_2  and  C_3
REMARK    3  A    between atoms: C_3  and  C_4
REMARK    4  A    between atoms: C_4  and  O_5
REMARK    5  A    between atoms: O_5  and  C_6
REMARK    6  A    between atoms: C_10  and  C_12
REMARK    7  A    between atoms: C_17  and  C_18
REMARK    8  A    between atoms: C_18  and  C_19
REMARK    9  A    between atoms: N_22  and  C_23
REMARK                            x       y       z     vdW  Elec       q    Type
REMARK                         _______ _______ _______ _____ _____    ______ ____
ROOT
ATOM      1  C   UNL     1       1.662   5.496  19.040  0.00  0.00    +0.000 C 
ATOM      2  C   UNL     1       1.722   4.468  17.912  0.00  0.00    +0.000 C 
ATOM      3  C   UNL     1       3.175   4.484  17.496  0.00  0.00    +0.000 C 
ATOM      4  N   UNL     1       3.601   5.860  17.672  0.00  0.00    +0.000 N 
ATOM      5  C   UNL     1       4.775   6.423  17.182  0.00  0.00    +0.000 C 
ATOM      6  O   UNL     1       5.041   7.608  17.379  0.00  0.00    +0.000 OA
ATOM      7  C   UNL     1       2.782   6.528  18.706  0.00  0.00    +0.000 C 
ENDROOT
BRANCH   5   8
ATOM      8  C   UNL     1       5.666   5.603  16.374  0.00  0.00    +0.000 A 
ATOM      9  C   UNL     1       6.628   4.655  16.689  0.00  0.00    +0.000 A 
ATOM     10  C   UNL     1       7.215   4.194  15.485  0.00  0.00    +0.000 A 
ATOM     11  C   UNL     1       6.632   4.888  14.458  0.00  0.00    +0.000 A 
ATOM     12  N   UNL     1       5.724   5.759  15.002  0.00  0.00    +0.000 N 
ATOM     13  H   UNL     1       5.162   6.426  14.491  0.00  0.00    +0.000 HD
ENDBRANCH   5   8
BRANCH   1  14
ATOM     14  O   UNL     1       1.911   4.809  20.273  0.00  0.00    +0.000 OA
BRANCH  14  15
ATOM     15  C   UNL     1       0.986   3.737  20.476  0.00  0.00    +0.000 C 
BRANCH  15  16
ATOM     16  C   UNL     1       1.745   2.459  20.791  0.00  0.00    +0.000 C 
BRANCH  16  18
ATOM     17  C   UNL     1       4.029   2.244  20.282  0.00  0.00    +0.000 C 
ATOM     18  O   UNL     1       3.077   2.801  21.174  0.00  0.00    +0.000 OA
ENDBRANCH  16  18
ENDBRANCH  15  16
ENDBRANCH  14  15
ENDBRANCH   1  14
BRANCH   7  19
ATOM     19  C   UNL     1       2.207   7.906  18.305  0.00  0.00    +0.000 C 
BRANCH  19  20
ATOM     20  C   UNL     1       1.544   8.645  19.433  0.00  0.00    +0.000 A 
ATOM     21  C   UNL     1       0.894   9.901  19.379  0.00  0.00    +0.000 A 
ATOM     22  N   UNL     1       0.404  10.285  20.558  0.00  0.00    +0.000 NA
ATOM     23  N   UNL     1       0.763   9.293  21.391  0.00  0.00    +0.000 N 
ATOM     24  C   UNL     1       0.457   9.390  22.798  0.00  0.00    +0.000 C 
ATOM     25  C   UNL     1       1.441   8.284  20.764  0.00  0.00    +0.000 A 
ENDBRANCH  19  20
ENDBRANCH   7  19
TORSDOF 7
ENDMDL
MODEL 7
REMARK VINA RESULT:      -6.3      3.148      5.168
REMARK  Name = 
REMARK  9 active torsions:
REMARK  status: ('A' for Active; 'I' for Inactive)
REMARK    1  A    between atoms: C_1  and  O_2
REMARK    2  A    between atoms: O_2  and  C_3
REMARK    3  A    between atoms: C_3  and  C_4
REMARK    4  A    between atoms: C_4  and  O_5
REMARK    5  A    between atoms: O_5  and  C_6
REMARK    6  A    between atoms: C_10  and  C_12
REMARK    7  A    between atoms: C_17  and  C_18
REMARK    8  A    between atoms: C_18  and  C_19
REMARK    9  A    between atoms: N_22  and  C_23
REMARK                            x       y       z     vdW  Elec       q    Type
REMARK                         _______ _______ _______ _____ _____    ______ ____
ROOT
ATOM      1  C   UNL     1       3.645   6.796  17.354  0.00  0.00    +0.000 C 
ATOM      2  C   UNL     1       2.803   8.068  17.269  0.00  0.00    +0.000 C 
ATOM      3  C   UNL     1       2.393   8.317  18.702  0.00  0.00    +0.000 C 
ATOM      4  N   UNL     1       2.227   6.996  19.280  0.00  0.00    +0.000 N 
ATOM      5  C   UNL     1       1.611   6.704  20.493  0.00  0.00    +0.000 C 
ATOM      6  O   UNL     1       1.511   5.545  20.891  0.00  0.00    +0.000 OA
ATOM      7  C   UNL     1       3.066   6.009  18.568  0.00  0.00    +0.000 C 
ENDROOT
BRANCH   5   8
ATOM      8  C   UNL     1       1.027   7.791  21.266  0.00  0.00    +0.000 A 
ATOM      9  C   UNL     1      -0.248   8.334  21.323  0.00  0.00    +0.000 A 
ATOM     10  C   UNL     1      -0.236   9.411  22.244  0.00  0.00    +0.000 A 
ATOM     11  C   UNL     1       1.048   9.534  22.707  0.00  0.00    +0.000 A 
ATOM     12  N   UNL     1       1.811   8.577  22.089  0.00  0.00    +0.000 N 
ATOM     13  H   UNL     1       2.806   8.444  22.207  0.00  0.00    +0.000 HD
ENDBRANCH   5   8
BRANCH   1  14
ATOM     14  O   UNL     1       5.008   7.185  17.562  0.00  0.00    +0.000 OA
BRANCH  14  15
ATOM     15  C   UNL     1       5.824   6.071  17.936  0.00  0.00    +0.000 C 
BRANCH  15  16
ATOM     16  C   UNL     1       7.194   6.203  17.293  0.00  0.00    +0.000 C 
BRANCH  16  18
ATOM     17  C   UNL     1       6.909   4.765  15.456  0.00  0.00    +0.000 C 
ATOM     18  O   UNL     1       7.549   4.950  16.708  0.00  0.00    +0.000 OA
ENDBRANCH  16  18
ENDBRANCH  15  16
ENDBRANCH  14  15
ENDBRANCH   1  14
BRANCH   7  19
ATOM     19  C   UNL     1       2.340   4.715  18.134  0.00  0.00    +0.000 C 
BRANCH  19  20
ATOM     20  C   UNL     1       3.023   3.452  18.577  0.00  0.00    +0.000 A 
ATOM     21  C   UNL     1       2.910   2.161  18.005  0.00  0.00    +0.000 A 
ATOM     22  N   UNL     1       3.650   1.247  18.633  0.00  0.00    +0.000 NA
ATOM     23  N   UNL     1       4.222   1.934  19.636  0.00  0.00    +0.000 N 
ATOM     24  C   UNL     1       5.061   1.247  20.590  0.00  0.00    +0.000 C 
ATOM     25  C   UNL     1       3.885   3.259  19.642  0.00  0.00    +0.000 A 
ENDBRANCH  19  20
ENDBRANCH   7  19
TORSDOF 7
ENDMDL
MODEL 8
REMARK VINA RESULT:      -6.2      3.492      5.952
REMARK  Name = 
REMARK  9 active torsions:
REMARK  status: ('A' for Active; 'I' for Inactive)
REMARK    1  A    between atoms: C_1  and  O_2
REMARK    2  A    between atoms: O_2  and  C_3
REMARK    3  A    between atoms: C_3  and  C_4
REMARK    4  A    between atoms: C_4  and  O_5
REMARK    5  A    between atoms: O_5  and  C_6
REMARK    6  A    between atoms: C_10  and  C_12
REMARK    7  A    between atoms: C_17  and  C_18
REMARK    8  A    between atoms: C_18  and  C_19
REMARK    9  A    between atoms: N_22  and  C_23
REMARK                            x       y       z     vdW  Elec       q    Type
REMARK                         _______ _______ _______ _____ _____    ______ ____
ROOT
ATOM      1  C   UNL     1       3.377   5.505  18.638  0.00  0.00    +0.000 C 
ATOM      2  C   UNL     1       2.951   5.876  20.057  0.00  0.00    +0.000 C 
ATOM      3  C   UNL     1       1.936   6.976  19.845  0.00  0.00    +0.000 C 
ATOM      4  N   UNL     1       2.403   7.699  18.677  0.00  0.00    +0.000 N 
ATOM      5  C   UNL     1       1.949   8.941  18.246  0.00  0.00    +0.000 C 
ATOM      6  O   UNL     1       2.420   9.477  17.244  0.00  0.00    +0.000 OA
ATOM      7  C   UNL     1       3.214   6.816  17.811  0.00  0.00    +0.000 C 
ENDROOT
BRANCH   5   8
ATOM      8  C   UNL     1       0.944   9.636  19.037  0.00  0.00    +0.000 A 
ATOM      9  C   UNL     1      -0.332  10.101  18.751  0.00  0.00    +0.000 A 
ATOM     10  C   UNL     1      -0.848  10.736  19.907  0.00  0.00    +0.000 A 
ATOM     11  C   UNL     1       0.128  10.683  20.868  0.00  0.00    +0.000 A 
ATOM     12  N   UNL     1       1.217  10.050  20.327  0.00  0.00    +0.000 N 
ATOM     13  H   UNL     1       2.102   9.893  20.789  0.00  0.00    +0.000 HD
ENDBRANCH   5   8
BRANCH   1  14
ATOM     14  O   UNL     1       2.506   4.464  18.177  0.00  0.00    +0.000 OA
BRANCH  14  15
ATOM     15  C   UNL     1       2.031   3.656  19.258  0.00  0.00    +0.000 C 
BRANCH  15  16
ATOM     16  C   UNL     1       1.639   2.284  18.736  0.00  0.00    +0.000 C 
BRANCH  16  18
ATOM     17  C   UNL     1       3.768   1.326  18.467  0.00  0.00    +0.000 C 
ATOM     18  O   UNL     1       2.628   1.848  17.804  0.00  0.00    +0.000 OA
ENDBRANCH  16  18
ENDBRANCH  15  16
ENDBRANCH  14  15
ENDBRANCH   1  14
BRANCH   7  19
ATOM     19  C   UNL     1       4.574   7.398  17.363  0.00  0.00    +0.000 C 
BRANCH  19  20
ATOM     20  C   UNL     1       5.453   6.415  16.642  0.00  0.00    +0.000 A 
ATOM     21  C   UNL     1       6.778   6.036  16.972  0.00  0.00    +0.000 A 
ATOM     22  N   UNL     1       7.286   5.135  16.131  0.00  0.00    +0.000 NA
ATOM     23  N   UNL     1       6.304   4.949  15.232  0.00  0.00    +0.000 N 
ATOM     24  C   UNL     1       6.518   4.070  14.107  0.00  0.00    +0.000 C 
ATOM     25  C   UNL     1       5.183   5.686  15.499  0.00  0.00    +0.000 A 
ENDBRANCH  19  20
ENDBRANCH   7  19
TORSDOF 7
ENDMDL
MODEL 9
REMARK VINA RESULT:      -6.2      3.366      5.882
REMARK  Name = 
REMARK  9 active torsions:
REMARK  status: ('A' for Active; 'I' for Inactive)
REMARK    1  A    between atoms: C_1  and  O_2
REMARK    2  A    between atoms: O_2  and  C_3
REMARK    3  A    between atoms: C_3  and  C_4
REMARK    4  A    between atoms: C_4  and  O_5
REMARK    5  A    between atoms: O_5  and  C_6
REMARK    6  A    between atoms: C_10  and  C_12
REMARK    7  A    between atoms: C_17  and  C_18
REMARK    8  A    between atoms: C_18  and  C_19
REMARK    9  A    between atoms: N_22  and  C_23
REMARK                            x       y       z     vdW  Elec       q    Type
REMARK                         _______ _______ _______ _____ _____    ______ ____
ROOT
ATOM      1  C   UNL     1       2.531   4.606  19.523  0.00  0.00    +0.000 C 
ATOM      2  C   UNL     1       1.936   5.134  20.827  0.00  0.00    +0.000 C 
ATOM      3  C   UNL     1       1.292   6.439  20.419  0.00  0.00    +0.000 C 
ATOM      4  N   UNL     1       2.151   6.971  19.377  0.00  0.00    +0.000 N 
ATOM      5  C   UNL     1       2.118   8.267  18.871  0.00  0.00    +0.000 C 
ATOM      6  O   UNL     1       2.898   8.624  17.990  0.00  0.00    +0.000 OA
ATOM      7  C   UNL     1       2.871   5.878  18.690  0.00  0.00    +0.000 C 
ENDROOT
BRANCH   5   8
ATOM      8  C   UNL     1       1.180   9.223  19.443  0.00  0.00    +0.000 A 
ATOM      9  C   UNL     1       0.958   9.675  20.735  0.00  0.00    +0.000 A 
ATOM     10  C   UNL     1      -0.118  10.596  20.709  0.00  0.00    +0.000 A 
ATOM     11  C   UNL     1      -0.559  10.668  19.415  0.00  0.00    +0.000 A 
ATOM     12  N   UNL     1       0.204   9.813  18.662  0.00  0.00    +0.000 N 
ATOM     13  H   UNL     1       0.090   9.628  17.675  0.00  0.00    +0.000 HD
ENDBRANCH   5   8
BRANCH   1  14
ATOM     14  O   UNL     1       1.539   3.792  18.886  0.00  0.00    +0.000 OA
BRANCH  14  15
ATOM     15  C   UNL     1       1.841   2.399  19.007  0.00  0.00    +0.000 C 
BRANCH  15  16
ATOM     16  C   UNL     1       2.922   2.021  18.009  0.00  0.00    +0.000 C 
BRANCH  16  18
ATOM     17  C   UNL     1       4.429   1.835  19.802  0.00  0.00    +0.000 C 
ATOM     18  O   UNL     1       3.881   1.191  18.663  0.00  0.00    +0.000 OA
ENDBRANCH  16  18
ENDBRANCH  15  16
ENDBRANCH  14  15
ENDBRANCH   1  14
BRANCH   7  19
ATOM     19  C   UNL     1       4.395   6.087  18.535  0.00  0.00    +0.000 C 
BRANCH  19  20
ATOM     20  C   UNL     1       4.918   5.784  17.159  0.00  0.00    +0.000 A 
ATOM     21  C   UNL     1       5.070   6.684  16.076  0.00  0.00    +0.000 A 
ATOM     22  N   UNL     1       5.565   6.103  14.983  0.00  0.00    +0.000 NA
ATOM     23  N   UNL     1       5.707   4.815  15.342  0.00  0.00    +0.000 N 
ATOM     24  C   UNL     1       6.167   3.846  14.376  0.00  0.00    +0.000 C 
ATOM     25  C   UNL     1       5.340   4.575  16.638  0.00  0.00    +0.000 A 
ENDBRANCH  19  20
ENDBRANCH   7  19
TORSDOF 7
ENDMDL
