MODEL 1
REMARK VINA RESULT:      -8.3      0.000      0.000
REMARK  Name = 
REMARK  7 active torsions:
REMARK  status: ('A' for Active; 'I' for Inactive)
REMARK    1  A    between atoms: C_2  and  C_4
REMARK    2  A    between atoms: C_7  and  N_8
REMARK    3  A    between atoms: C_9  and  C_11
REMARK    4  A    between atoms: C_13  and  C_14
REMARK    5  A    between atoms: N_16  and  C_17
REMARK    6  A    between atoms: C_17  and  C_18
REMARK    7  A    between atoms: N_25  and  C_26
REMARK                            x       y       z     vdW  Elec       q    Type
REMARK                         _______ _______ _______ _____ _____    ______ ____
ROOT
ATOM      1  C   UNL     1      -0.060  10.246  18.267  0.00  0.00    +0.000 A 
ATOM      2  C   UNL     1      -1.241  10.001  17.593  0.00  0.00    +0.000 A 
ATOM      3  C   UNL     1      -1.984  11.207  17.665  0.00  0.00    +0.000 A 
ATOM      4  N   UNL     1      -1.285  12.170  18.294  0.00  0.00    +0.000 NA
ATOM      5  N   UNL     1      -0.069  11.609  18.551  0.00  0.00    +0.000 N 
ENDROOT
BRANCH   5   6
ATOM      6  C   UNL     1       0.999  12.422  19.032  0.00  0.00    +0.000 A 
ATOM      7  C   UNL     1       2.007  12.836  18.151  0.00  0.00    +0.000 A 
ATOM      8  C   UNL     1       3.009  13.707  18.597  0.00  0.00    +0.000 A 
ATOM      9  C   UNL     1       3.025  14.132  19.925  0.00  0.00    +0.000 A 
ATOM     10 CL   UNL     1       4.248  15.217  20.466  0.00  0.00    +0.000 Cl
ATOM     11  C   UNL     1       2.058  13.684  20.819  0.00  0.00    +0.000 A 
ATOM     12  C   UNL     1       1.048  12.826  20.378  0.00  0.00    +0.000 A 
ENDBRANCH   5   6
BRANCH   1  14
ATOM     13  N   UNL     1       1.494   8.451  17.867  0.00  0.00    +0.000 N 
ATOM     14  C   UNL     1       0.932   9.331  18.782  0.00  0.00    +0.000 C 
ATOM     15  O   UNL     1       1.243   9.373  19.967  0.00  0.00    +0.000 OA
ATOM     16  H   UNL     1       1.254   8.567  16.890  0.00  0.00    +0.000 HD
BRANCH  13  20
ATOM     17  C   UNL     1       4.576   5.689  18.798  0.00  0.00    +0.000 A 
ATOM     18  C   UNL     1       3.390   5.671  19.526  0.00  0.00    +0.000 A 
ATOM     19  C   UNL     1       2.363   6.559  19.204  0.00  0.00    +0.000 A 
ATOM     20  C   UNL     1       2.499   7.498  18.176  0.00  0.00    +0.000 A 
ATOM     21  C   UNL     1       3.689   7.503  17.436  0.00  0.00    +0.000 A 
ATOM     22  C   UNL     1       4.728   6.612  17.757  0.00  0.00    +0.000 A 
BRANCH  17  24
ATOM     23  N   UNL     1       5.404   3.417  19.051  0.00  0.00    +0.000 N 
ATOM     24  C   UNL     1       5.680   4.755  19.129  0.00  0.00    +0.000 C 
ATOM     25  O   UNL     1       6.794   5.162  19.438  0.00  0.00    +0.000 OA
ATOM     26  H   UNL     1       6.176   2.782  19.204  0.00  0.00    +0.000 HD
ATOM     27  H   UNL     1       4.576   3.053  18.601  0.00  0.00    +0.000 HD
ENDBRANCH  17  24
ENDBRANCH  13  20
ENDBRANCH   1  14
BRANCH   3  28
ATOM     28  C   UNL     1      -3.359  11.412  17.174  0.00  0.00    +0.000 C 
ATOM     29  O   UNL     1      -3.623  11.432  15.976  0.00  0.00    +0.000 OA
ATOM     30  N   UNL     1      -4.296  11.582  18.165  0.00  0.00    +0.000 N 
ATOM     31  H   UNL     1      -3.963  11.520  19.123  0.00  0.00    +0.000 HD
BRANCH  30  32
ATOM     32  C   UNL     1      -5.694  11.812  17.896  0.00  0.00    +0.000 C 
BRANCH  32  33
ATOM     33  C   UNL     1      -6.408  12.359  19.103  0.00  0.00    +0.000 A 
ATOM     34  C   UNL     1      -7.266  13.464  18.993  0.00  0.00    +0.000 A 
ATOM     35  C   UNL     1      -7.916  13.972  20.120  0.00  0.00    +0.000 A 
ATOM     36  C   UNL     1      -7.712  13.386  21.369  0.00  0.00    +0.000 A 
ATOM     37  C   UNL     1      -6.861  12.289  21.491  0.00  0.00    +0.000 A 
ATOM     38  C   UNL     1      -6.210  11.780  20.365  0.00  0.00    +0.000 A 
ENDBRANCH  32  33
ENDBRANCH  30  32
ENDBRANCH   3  28
TORSDOF 7
ENDMDL
MODEL 2
REMARK VINA RESULT:      -8.3      4.580     11.586
REMARK  Name = 
REMARK  7 active torsions:
REMARK  status: ('A' for Active; 'I' for Inactive)
REMARK    1  A    between atoms: C_2  and  C_4
REMARK    2  A    between atoms: C_7  and  N_8
REMARK    3  A    between atoms: C_9  and  C_11
REMARK    4  A    between atoms: C_13  and  C_14
REMARK    5  A    between atoms: N_16  and  C_17
REMARK    6  A    between atoms: C_17  and  C_18
REMARK    7  A    between atoms: N_25  and  C_26
REMARK                            x       y       z     vdW  Elec       q    Type
REMARK                         _______ _______ _______ _____ _____    ______ ____
ROOT
ATOM      1  C   UNL     1       3.751   6.380  17.586  0.00  0.00    +0.000 A 
ATOM      2  C   UNL     1       4.582   6.494  16.489  0.00  0.00    +0.000 A 
ATOM      3  C   UNL     1       5.385   5.325  16.490  0.00  0.00    +0.000 A 
ATOM      4  N   UNL     1       5.037   4.499  17.493  0.00  0.00    +0.000 NA
ATOM      5  N   UNL     1       3.962   5.096  18.082  0.00  0.00    +0.000 N 
ENDROOT
BRANCH   5   6
ATOM      6  C   UNL     1       3.205   4.388  19.062  0.00  0.00    +0.000 A 
ATOM      7  C   UNL     1       3.869   3.666  20.063  0.00  0.00    +0.000 A 
ATOM      8  C   UNL     1       3.132   3.044  21.079  0.00  0.00    +0.000 A 
ATOM      9  C   UNL     1       1.739   3.110  21.072  0.00  0.00    +0.000 A 
ATOM     10 CL   UNL     1       0.837   2.359  22.332  0.00  0.00    +0.000 Cl
ATOM     11  C   UNL     1       1.071   3.781  20.054  0.00  0.00    +0.000 A 
ATOM     12  C   UNL     1       1.799   4.416  19.045  0.00  0.00    +0.000 A 
ENDBRANCH   5   6
BRANCH   1  14
ATOM     13  N   UNL     1       2.370   8.348  17.464  0.00  0.00    +0.000 N 
ATOM     14  C   UNL     1       2.952   7.374  18.265  0.00  0.00    +0.000 C 
ATOM     15  O   UNL     1       2.810   7.317  19.480  0.00  0.00    +0.000 OA
ATOM     16  H   UNL     1       2.453   8.249  16.461  0.00  0.00    +0.000 HD
BRANCH  13  20
ATOM     17  C   UNL     1      -0.075  11.538  18.821  0.00  0.00    +0.000 A 
ATOM     18  C   UNL     1      -0.665  10.368  18.354  0.00  0.00    +0.000 A 
ATOM     19  C   UNL     1       0.136   9.305  17.933  0.00  0.00    +0.000 A 
ATOM     20  C   UNL     1       1.533   9.391  17.941  0.00  0.00    +0.000 A 
ATOM     21  C   UNL     1       2.122  10.566  18.426  0.00  0.00    +0.000 A 
ATOM     22  C   UNL     1       1.320  11.640  18.850  0.00  0.00    +0.000 A 
BRANCH  17  24
ATOM     23  N   UNL     1      -0.744  13.866  18.605  0.00  0.00    +0.000 N 
ATOM     24  C   UNL     1      -0.912  12.680  19.267  0.00  0.00    +0.000 C 
ATOM     25  O   UNL     1      -1.730  12.562  20.171  0.00  0.00    +0.000 OA
ATOM     26  H   UNL     1      -1.365  14.622  18.857  0.00  0.00    +0.000 HD
ATOM     27  H   UNL     1      -0.243  13.939  17.730  0.00  0.00    +0.000 HD
ENDBRANCH  17  24
ENDBRANCH  13  20
ENDBRANCH   1  14
BRANCH   3  28
ATOM     28  C   UNL     1       6.497   5.033  15.566  0.00  0.00    +0.000 C 
ATOM     29  O   UNL     1       7.608   4.707  15.971  0.00  0.00    +0.000 OA
ATOM     30  N   UNL     1       6.177   5.166  14.235  0.00  0.00    +0.000 N 
ATOM     31  H   UNL     1       5.217   5.416  14.020  0.00  0.00    +0.000 HD
BRANCH  30  32
ATOM     32  C   UNL     1       7.125   4.942  13.172  0.00  0.00    +0.000 C 
BRANCH  32  33
ATOM     33  C   UNL     1       6.772   3.722  12.364  0.00  0.00    +0.000 A 
ATOM     34  C   UNL     1       5.438   3.309  12.228  0.00  0.00    +0.000 A 
ATOM     35  C   UNL     1       5.121   2.170  11.484  0.00  0.00    +0.000 A 
ATOM     36  C   UNL     1       6.132   1.428  10.875  0.00  0.00    +0.000 A 
ATOM     37  C   UNL     1       7.461   1.827  11.004  0.00  0.00    +0.000 A 
ATOM     38  C   UNL     1       7.780   2.965  11.747  0.00  0.00    +0.000 A 
ENDBRANCH  32  33
ENDBRANCH  30  32
ENDBRANCH   3  28
TORSDOF 7
ENDMDL
MODEL 3
REMARK VINA RESULT:      -8.3      4.477     11.391
REMARK  Name = 
REMARK  7 active torsions:
REMARK  status: ('A' for Active; 'I' for Inactive)
REMARK    1  A    between atoms: C_2  and  C_4
REMARK    2  A    between atoms: C_7  and  N_8
REMARK    3  A    between atoms: C_9  and  C_11
REMARK    4  A    between atoms: C_13  and  C_14
REMARK    5  A    between atoms: N_16  and  C_17
REMARK    6  A    between atoms: C_17  and  C_18
REMARK    7  A    between atoms: N_25  and  C_26
REMARK                            x       y       z     vdW  Elec       q    Type
REMARK                         _______ _______ _______ _____ _____    ______ ____
ROOT
ATOM      1  C   UNL     1       3.401   6.864  17.748  0.00  0.00    +0.000 A 
ATOM      2  C   UNL     1       4.254   7.033  16.676  0.00  0.00    +0.000 A 
ATOM      3  C   UNL     1       5.130   5.918  16.700  0.00  0.00    +0.000 A 
ATOM      4  N   UNL     1       4.807   5.068  17.692  0.00  0.00    +0.000 NA
ATOM      5  N   UNL     1       3.679   5.595  18.250  0.00  0.00    +0.000 N 
ENDROOT
BRANCH   5   6
ATOM      6  C   UNL     1       2.942   4.838  19.208  0.00  0.00    +0.000 A 
ATOM      7  C   UNL     1       1.825   4.099  18.796  0.00  0.00    +0.000 A 
ATOM      8  C   UNL     1       1.151   3.283  19.715  0.00  0.00    +0.000 A 
ATOM      9  C   UNL     1       1.568   3.237  21.045  0.00  0.00    +0.000 A 
ATOM     10 CL   UNL     1       0.750   2.220  22.168  0.00  0.00    +0.000 Cl
ATOM     11  C   UNL     1       2.644   4.008  21.472  0.00  0.00    +0.000 A 
ATOM     12  C   UNL     1       3.329   4.813  20.559  0.00  0.00    +0.000 A 
ENDBRANCH   5   6
BRANCH   1  14
ATOM     13  N   UNL     1       1.988   8.808  17.606  0.00  0.00    +0.000 N 
ATOM     14  C   UNL     1       2.522   7.804  18.404  0.00  0.00    +0.000 C 
ATOM     15  O   UNL     1       2.275   7.679  19.597  0.00  0.00    +0.000 OA
ATOM     16  H   UNL     1       2.161   8.764  16.610  0.00  0.00    +0.000 HD
BRANCH  13  20
ATOM     17  C   UNL     1      -0.762  11.712  19.022  0.00  0.00    +0.000 A 
ATOM     18  C   UNL     1       0.605  11.925  19.173  0.00  0.00    +0.000 A 
ATOM     19  C   UNL     1       1.514  10.985  18.683  0.00  0.00    +0.000 A 
ATOM     20  C   UNL     1       1.087   9.806  18.060  0.00  0.00    +0.000 A 
ATOM     21  C   UNL     1      -0.290   9.604  17.899  0.00  0.00    +0.000 A 
ATOM     22  C   UNL     1      -1.209  10.546  18.391  0.00  0.00    +0.000 A 
BRANCH  17  24
ATOM     23  N   UNL     1      -3.055  12.496  19.213  0.00  0.00    +0.000 N 
ATOM     24  C   UNL     1      -1.742  12.697  19.542  0.00  0.00    +0.000 C 
ATOM     25  O   UNL     1      -1.396  13.634  20.251  0.00  0.00    +0.000 OA
ATOM     26  H   UNL     1      -3.731  13.123  19.627  0.00  0.00    +0.000 HD
ATOM     27  H   UNL     1      -3.395  11.630  18.817  0.00  0.00    +0.000 HD
ENDBRANCH  17  24
ENDBRANCH  13  20
ENDBRANCH   1  14
BRANCH   3  28
ATOM     28  C   UNL     1       6.284   5.698  15.807  0.00  0.00    +0.000 C 
ATOM     29  O   UNL     1       7.412   6.079  16.102  0.00  0.00    +0.000 OA
ATOM     30  N   UNL     1       5.978   5.049  14.635  0.00  0.00    +0.000 N 
ATOM     31  H   UNL     1       5.012   4.760  14.512  0.00  0.00    +0.000 HD
BRANCH  30  32
ATOM     32  C   UNL     1       6.959   4.753  13.620  0.00  0.00    +0.000 C 
BRANCH  32  33
ATOM     33  C   UNL     1       6.464   3.704  12.660  0.00  0.00    +0.000 A 
ATOM     34  C   UNL     1       7.361   2.844  12.009  0.00  0.00    +0.000 A 
ATOM     35  C   UNL     1       6.894   1.880  11.112  0.00  0.00    +0.000 A 
ATOM     36  C   UNL     1       5.529   1.770  10.852  0.00  0.00    +0.000 A 
ATOM     37  C   UNL     1       4.629   2.620  11.491  0.00  0.00    +0.000 A 
ATOM     38  C   UNL     1       5.094   3.584  12.388  0.00  0.00    +0.000 A 
ENDBRANCH  32  33
ENDBRANCH  30  32
ENDBRANCH   3  28
TORSDOF 7
ENDMDL
MODEL 4
REMARK VINA RESULT:      -8.2      4.455     11.390
REMARK  Name = 
REMARK  7 active torsions:
REMARK  status: ('A' for Active; 'I' for Inactive)
REMARK    1  A    between atoms: C_2  and  C_4
REMARK    2  A    between atoms: C_7  and  N_8
REMARK    3  A    between atoms: C_9  and  C_11
REMARK    4  A    between atoms: C_13  and  C_14
REMARK    5  A    between atoms: N_16  and  C_17
REMARK    6  A    between atoms: C_17  and  C_18
REMARK    7  A    between atoms: N_25  and  C_26
REMARK                            x       y       z     vdW  Elec       q    Type
REMARK                         _______ _______ _______ _____ _____    ______ ____
ROOT
ATOM      1  C   UNL     1       3.368   6.855  17.763  0.00  0.00    +0.000 A 
ATOM      2  C   UNL     1       4.220   7.043  16.693  0.00  0.00    +0.000 A 
ATOM      3  C   UNL     1       5.105   5.935  16.705  0.00  0.00    +0.000 A 
ATOM      4  N   UNL     1       4.789   5.072  17.687  0.00  0.00    +0.000 NA
ATOM      5  N   UNL     1       3.657   5.583  18.251  0.00  0.00    +0.000 N 
ENDROOT
BRANCH   5   6
ATOM      6  C   UNL     1       2.925   4.810  19.200  0.00  0.00    +0.000 A 
ATOM      7  C   UNL     1       1.831   4.044  18.776  0.00  0.00    +0.000 A 
ATOM      8  C   UNL     1       1.166   3.213  19.687  0.00  0.00    +0.000 A 
ATOM      9  C   UNL     1       1.567   3.177  21.022  0.00  0.00    +0.000 A 
ATOM     10 CL   UNL     1       0.759   2.142  22.135  0.00  0.00    +0.000 Cl
ATOM     11  C   UNL     1       2.619   3.974  21.461  0.00  0.00    +0.000 A 
ATOM     12  C   UNL     1       3.296   4.794  20.557  0.00  0.00    +0.000 A 
ENDBRANCH   5   6
BRANCH   1  14
ATOM     13  N   UNL     1       1.887   8.749  17.630  0.00  0.00    +0.000 N 
ATOM     14  C   UNL     1       2.481   7.781  18.429  0.00  0.00    +0.000 C 
ATOM     15  O   UNL     1       2.280   7.674  19.633  0.00  0.00    +0.000 OA
ATOM     16  H   UNL     1       2.028   8.688  16.630  0.00  0.00    +0.000 HD
BRANCH  13  20
ATOM     17  C   UNL     1      -0.794  11.754  18.962  0.00  0.00    +0.000 A 
ATOM     18  C   UNL     1      -1.290  10.619  18.327  0.00  0.00    +0.000 A 
ATOM     19  C   UNL     1      -0.413   9.615  17.913  0.00  0.00    +0.000 A 
ATOM     20  C   UNL     1       0.970   9.727  18.094  0.00  0.00    +0.000 A 
ATOM     21  C   UNL     1       1.463  10.865  18.746  0.00  0.00    +0.000 A 
ATOM     22  C   UNL     1       0.585  11.880  19.164  0.00  0.00    +0.000 A 
BRANCH  17  24
ATOM     23  N   UNL     1      -1.237  14.116  19.330  0.00  0.00    +0.000 N 
ATOM     24  C   UNL     1      -1.711  12.834  19.404  0.00  0.00    +0.000 C 
ATOM     25  O   UNL     1      -2.846  12.593  19.796  0.00  0.00    +0.000 OA
ATOM     26  H   UNL     1      -1.886  14.856  19.560  0.00  0.00    +0.000 HD
ATOM     27  H   UNL     1      -0.401  14.363  18.820  0.00  0.00    +0.000 HD
ENDBRANCH  17  24
ENDBRANCH  13  20
ENDBRANCH   1  14
BRANCH   3  28
ATOM     28  C   UNL     1       6.261   5.735  15.810  0.00  0.00    +0.000 C 
ATOM     29  O   UNL     1       7.387   6.118  16.111  0.00  0.00    +0.000 OA
ATOM     30  N   UNL     1       5.960   5.101  14.629  0.00  0.00    +0.000 N 
ATOM     31  H   UNL     1       4.996   4.807  14.502  0.00  0.00    +0.000 HD
BRANCH  30  32
ATOM     32  C   UNL     1       6.944   4.825  13.611  0.00  0.00    +0.000 C 
BRANCH  32  33
ATOM     33  C   UNL     1       6.473   3.755  12.661  0.00  0.00    +0.000 A 
ATOM     34  C   UNL     1       5.106   3.571  12.404  0.00  0.00    +0.000 A 
ATOM     35  C   UNL     1       4.678   2.569  11.530  0.00  0.00    +0.000 A 
ATOM     36  C   UNL     1       5.609   1.738  10.908  0.00  0.00    +0.000 A 
ATOM     37  C   UNL     1       6.969   1.910  11.158  0.00  0.00    +0.000 A 
ATOM     38  C   UNL     1       7.399   2.911  12.032  0.00  0.00    +0.000 A 
ENDBRANCH  32  33
ENDBRANCH  30  32
ENDBRANCH   3  28
TORSDOF 7
ENDMDL
MODEL 5
REMARK VINA RESULT:      -8.2      1.062      1.818
REMARK  Name = 
REMARK  7 active torsions:
REMARK  status: ('A' for Active; 'I' for Inactive)
REMARK    1  A    between atoms: C_2  and  C_4
REMARK    2  A    between atoms: C_7  and  N_8
REMARK    3  A    between atoms: C_9  and  C_11
REMARK    4  A    between atoms: C_13  and  C_14
REMARK    5  A    between atoms: N_16  and  C_17
REMARK    6  A    between atoms: C_17  and  C_18
REMARK    7  A    between atoms: N_25  and  C_26
REMARK                            x       y       z     vdW  Elec       q    Type
REMARK                         _______ _______ _______ _____ _____    ______ ____
ROOT
ATOM      1  C   UNL     1      -0.132  10.266  18.304  0.00  0.00    +0.000 A 
ATOM      2  C   UNL     1      -1.315   9.979  17.652  0.00  0.00    +0.000 A 
ATOM      3  C   UNL     1      -2.090  11.164  17.720  0.00  0.00    +0.000 A 
ATOM      4  N   UNL     1      -1.409  12.155  18.324  0.00  0.00    +0.000 NA
ATOM      5  N   UNL     1      -0.174  11.632  18.570  0.00  0.00    +0.000 N 
ENDROOT
BRANCH   5   6
ATOM      6  C   UNL     1       0.878  12.481  19.023  0.00  0.00    +0.000 A 
ATOM      7  C   UNL     1       0.900  12.908  20.358  0.00  0.00    +0.000 A 
ATOM      8  C   UNL     1       1.978  13.667  20.830  0.00  0.00    +0.000 A 
ATOM      9  C   UNL     1       3.010  14.030  19.964  0.00  0.00    +0.000 A 
ATOM     10 CL   UNL     1       4.342  14.948  20.551  0.00  0.00    +0.000 Cl
ATOM     11  C   UNL     1       2.969  13.653  18.626  0.00  0.00    +0.000 A 
ATOM     12  C   UNL     1       1.905  12.885  18.151  0.00  0.00    +0.000 A 
ENDBRANCH   5   6
BRANCH   1  14
ATOM     13  N   UNL     1       1.484   8.528  17.899  0.00  0.00    +0.000 N 
ATOM     14  C   UNL     1       0.893   9.386  18.817  0.00  0.00    +0.000 C 
ATOM     15  O   UNL     1       1.205   9.438  20.001  0.00  0.00    +0.000 OA
ATOM     16  H   UNL     1       1.239   8.635  16.924  0.00  0.00    +0.000 HD
BRANCH  13  20
ATOM     17  C   UNL     1       4.514   5.703  18.816  0.00  0.00    +0.000 A 
ATOM     18  C   UNL     1       4.669   6.551  17.723  0.00  0.00    +0.000 A 
ATOM     19  C   UNL     1       3.687   7.501  17.436  0.00  0.00    +0.000 A 
ATOM     20  C   UNL     1       2.524   7.611  18.205  0.00  0.00    +0.000 A 
ATOM     21  C   UNL     1       2.379   6.764  19.312  0.00  0.00    +0.000 A 
ATOM     22  C   UNL     1       3.363   5.805  19.606  0.00  0.00    +0.000 A 
BRANCH  17  24
ATOM     23  N   UNL     1       6.833   5.126  19.261  0.00  0.00    +0.000 N 
ATOM     24  C   UNL     1       5.544   4.683  19.133  0.00  0.00    +0.000 C 
ATOM     25  O   UNL     1       5.253   3.505  19.296  0.00  0.00    +0.000 OA
ATOM     26  H   UNL     1       7.523   4.446  19.550  0.00  0.00    +0.000 HD
ATOM     27  H   UNL     1       7.072   6.104  19.344  0.00  0.00    +0.000 HD
ENDBRANCH  17  24
ENDBRANCH  13  20
ENDBRANCH   1  14
BRANCH   3  28
ATOM     28  C   UNL     1      -3.478  11.324  17.247  0.00  0.00    +0.000 C 
ATOM     29  O   UNL     1      -3.752  11.388  16.052  0.00  0.00    +0.000 OA
ATOM     30  N   UNL     1      -4.413  11.401  18.251  0.00  0.00    +0.000 N 
ATOM     31  H   UNL     1      -4.070  11.310  19.202  0.00  0.00    +0.000 HD
BRANCH  30  32
ATOM     32  C   UNL     1      -5.823  11.575  18.001  0.00  0.00    +0.000 C 
BRANCH  32  33
ATOM     33  C   UNL     1      -6.213  13.029  18.014  0.00  0.00    +0.000 A 
ATOM     34  C   UNL     1      -6.634  13.672  16.841  0.00  0.00    +0.000 A 
ATOM     35  C   UNL     1      -6.984  15.024  16.860  0.00  0.00    +0.000 A 
ATOM     36  C   UNL     1      -6.912  15.749  18.049  0.00  0.00    +0.000 A 
ATOM     37  C   UNL     1      -6.494  15.121  19.220  0.00  0.00    +0.000 A 
ATOM     38  C   UNL     1      -6.143  13.769  19.203  0.00  0.00    +0.000 A 
ENDBRANCH  32  33
ENDBRANCH  30  32
ENDBRANCH   3  28
TORSDOF 7
ENDMDL
MODEL 6
REMARK VINA RESULT:      -8.2      4.548     11.527
REMARK  Name = 
REMARK  7 active torsions:
REMARK  status: ('A' for Active; 'I' for Inactive)
REMARK    1  A    between atoms: C_2  and  C_4
REMARK    2  A    between atoms: C_7  and  N_8
REMARK    3  A    between atoms: C_9  and  C_11
REMARK    4  A    between atoms: C_13  and  C_14
REMARK    5  A    between atoms: N_16  and  C_17
REMARK    6  A    between atoms: C_17  and  C_18
REMARK    7  A    between atoms: N_25  and  C_26
REMARK                            x       y       z     vdW  Elec       q    Type
REMARK                         _______ _______ _______ _____ _____    ______ ____
ROOT
ATOM      1  C   UNL     1       3.682   6.494  17.636  0.00  0.00    +0.000 A 
ATOM      2  C   UNL     1       4.526   6.572  16.546  0.00  0.00    +0.000 A 
ATOM      3  C   UNL     1       5.327   5.402  16.594  0.00  0.00    +0.000 A 
ATOM      4  N   UNL     1       4.966   4.609  17.618  0.00  0.00    +0.000 NA
ATOM      5  N   UNL     1       3.885   5.226  18.176  0.00  0.00    +0.000 N 
ENDROOT
BRANCH   5   6
ATOM      6  C   UNL     1       3.116   4.551  19.169  0.00  0.00    +0.000 A 
ATOM      7  C   UNL     1       1.854   4.038  18.839  0.00  0.00    +0.000 A 
ATOM      8  C   UNL     1       1.134   3.297  19.785  0.00  0.00    +0.000 A 
ATOM      9  C   UNL     1       1.656   3.101  21.063  0.00  0.00    +0.000 A 
ATOM     10 CL   UNL     1       0.776   2.174  22.218  0.00  0.00    +0.000 Cl
ATOM     11  C   UNL     1       2.884   3.650  21.414  0.00  0.00    +0.000 A 
ATOM     12  C   UNL     1       3.614   4.379  20.473  0.00  0.00    +0.000 A 
ENDBRANCH   5   6
BRANCH   1  14
ATOM     13  N   UNL     1       2.456   8.559  17.466  0.00  0.00    +0.000 N 
ATOM     14  C   UNL     1       2.878   7.511  18.274  0.00  0.00    +0.000 C 
ATOM     15  O   UNL     1       2.595   7.409  19.462  0.00  0.00    +0.000 OA
ATOM     16  H   UNL     1       2.646   8.499  16.475  0.00  0.00    +0.000 HD
BRANCH  13  20
ATOM     17  C   UNL     1      -0.031  11.707  18.846  0.00  0.00    +0.000 A 
ATOM     18  C   UNL     1       1.344  11.902  18.757  0.00  0.00    +0.000 A 
ATOM     19  C   UNL     1       2.162  10.879  18.276  0.00  0.00    +0.000 A 
ATOM     20  C   UNL     1       1.640   9.635  17.902  0.00  0.00    +0.000 A 
ATOM     21  C   UNL     1       0.254   9.449  17.981  0.00  0.00    +0.000 A 
ATOM     22  C   UNL     1      -0.575  10.475  18.466  0.00  0.00    +0.000 A 
BRANCH  17  24
ATOM     23  N   UNL     1      -2.243  12.697  19.040  0.00  0.00    +0.000 N 
ATOM     24  C   UNL     1      -0.915  12.782  19.360  0.00  0.00    +0.000 C 
ATOM     25  O   UNL     1      -0.482  13.692  20.057  0.00  0.00    +0.000 OA
ATOM     26  H   UNL     1      -2.857  13.386  19.451  0.00  0.00    +0.000 HD
ATOM     27  H   UNL     1      -2.662  11.861  18.655  0.00  0.00    +0.000 HD
ENDBRANCH  17  24
ENDBRANCH  13  20
ENDBRANCH   1  14
BRANCH   3  28
ATOM     28  C   UNL     1       6.448   5.079  15.692  0.00  0.00    +0.000 C 
ATOM     29  O   UNL     1       7.553   4.760  16.120  0.00  0.00    +0.000 OA
ATOM     30  N   UNL     1       6.146   5.176  14.354  0.00  0.00    +0.000 N 
ATOM     31  H   UNL     1       5.189   5.425  14.120  0.00  0.00    +0.000 HD
BRANCH  30  32
ATOM     32  C   UNL     1       7.106   4.918  13.310  0.00  0.00    +0.000 C 
BRANCH  32  33
ATOM     33  C   UNL     1       6.700   3.741  12.463  0.00  0.00    +0.000 A 
ATOM     34  C   UNL     1       5.347   3.413  12.288  0.00  0.00    +0.000 A 
ATOM     35  C   UNL     1       4.979   2.313  11.509  0.00  0.00    +0.000 A 
ATOM     36  C   UNL     1       5.958   1.528  10.902  0.00  0.00    +0.000 A 
ATOM     37  C   UNL     1       7.305   1.843  11.069  0.00  0.00    +0.000 A 
ATOM     38  C   UNL     1       7.674   2.941  11.848  0.00  0.00    +0.000 A 
ENDBRANCH  32  33
ENDBRANCH  30  32
ENDBRANCH   3  28
TORSDOF 7
ENDMDL
MODEL 7
REMARK VINA RESULT:      -8.2      0.947      1.404
REMARK  Name = 
REMARK  7 active torsions:
REMARK  status: ('A' for Active; 'I' for Inactive)
REMARK    1  A    between atoms: C_2  and  C_4
REMARK    2  A    between atoms: C_7  and  N_8
REMARK    3  A    between atoms: C_9  and  C_11
REMARK    4  A    between atoms: C_13  and  C_14
REMARK    5  A    between atoms: N_16  and  C_17
REMARK    6  A    between atoms: C_17  and  C_18
REMARK    7  A    between atoms: N_25  and  C_26
REMARK                            x       y       z     vdW  Elec       q    Type
REMARK                         _______ _______ _______ _____ _____    ______ ____
ROOT
ATOM      1  C   UNL     1      -0.008  10.378  18.705  0.00  0.00    +0.000 A 
ATOM      2  C   UNL     1      -1.308  10.173  18.286  0.00  0.00    +0.000 A 
ATOM      3  C   UNL     1      -1.980  11.404  18.498  0.00  0.00    +0.000 A 
ATOM      4  N   UNL     1      -1.137  12.343  18.964  0.00  0.00    +0.000 NA
ATOM      5  N   UNL     1       0.086  11.741  18.975  0.00  0.00    +0.000 N 
ENDROOT
BRANCH   5   6
ATOM      6  C   UNL     1       1.257  12.517  19.223  0.00  0.00    +0.000 A 
ATOM      7  C   UNL     1       2.044  12.948  18.147  0.00  0.00    +0.000 A 
ATOM      8  C   UNL     1       3.143  13.786  18.379  0.00  0.00    +0.000 A 
ATOM      9  C   UNL     1       3.475  14.159  19.681  0.00  0.00    +0.000 A 
ATOM     10 CL   UNL     1       4.816  15.202  19.961  0.00  0.00    +0.000 Cl
ATOM     11  C   UNL     1       2.729  13.693  20.758  0.00  0.00    +0.000 A 
ATOM     12  C   UNL     1       1.624  12.869  20.534  0.00  0.00    +0.000 A 
ENDBRANCH   5   6
BRANCH   1  14
ATOM     13  N   UNL     1       1.516   8.671  17.958  0.00  0.00    +0.000 N 
ATOM     14  C   UNL     1       1.037   9.431  19.017  0.00  0.00    +0.000 C 
ATOM     15  O   UNL     1       1.459   9.343  20.164  0.00  0.00    +0.000 OA
ATOM     16  H   UNL     1       1.184   8.892  17.028  0.00  0.00    +0.000 HD
BRANCH  13  20
ATOM     17  C   UNL     1       4.544   5.714  18.247  0.00  0.00    +0.000 A 
ATOM     18  C   UNL     1       4.695   6.770  17.353  0.00  0.00    +0.000 A 
ATOM     19  C   UNL     1       3.714   7.761  17.276  0.00  0.00    +0.000 A 
ATOM     20  C   UNL     1       2.555   7.710  18.059  0.00  0.00    +0.000 A 
ATOM     21  C   UNL     1       2.416   6.652  18.967  0.00  0.00    +0.000 A 
ATOM     22  C   UNL     1       3.399   5.651  19.049  0.00  0.00    +0.000 A 
BRANCH  17  24
ATOM     23  N   UNL     1       5.323   3.620  19.205  0.00  0.00    +0.000 N 
ATOM     24  C   UNL     1       5.574   4.650  18.338  0.00  0.00    +0.000 C 
ATOM     25  O   UNL     1       6.590   4.678  17.656  0.00  0.00    +0.000 OA
ATOM     26  H   UNL     1       5.987   2.858  19.213  0.00  0.00    +0.000 HD
ATOM     27  H   UNL     1       4.414   3.457  19.616  0.00  0.00    +0.000 HD
ENDBRANCH  17  24
ENDBRANCH  13  20
ENDBRANCH   1  14
BRANCH   3  28
ATOM     28  C   UNL     1      -3.419  11.655  18.293  0.00  0.00    +0.000 C 
ATOM     29  O   UNL     1      -4.028  11.190  17.334  0.00  0.00    +0.000 OA
ATOM     30  N   UNL     1      -3.998  12.450  19.253  0.00  0.00    +0.000 N 
ATOM     31  H   UNL     1      -3.399  12.755  20.014  0.00  0.00    +0.000 HD
BRANCH  30  32
ATOM     32  C   UNL     1      -5.390  12.828  19.228  0.00  0.00    +0.000 C 
BRANCH  32  33
ATOM     33  C   UNL     1      -6.025  12.692  20.586  0.00  0.00    +0.000 A 
ATOM     34  C   UNL     1      -7.330  12.195  20.724  0.00  0.00    +0.000 A 
ATOM     35  C   UNL     1      -7.916  12.082  21.987  0.00  0.00    +0.000 A 
ATOM     36  C   UNL     1      -7.208  12.471  23.124  0.00  0.00    +0.000 A 
ATOM     37  C   UNL     1      -5.912  12.968  22.999  0.00  0.00    +0.000 A 
ATOM     38  C   UNL     1      -5.325  13.082  21.737  0.00  0.00    +0.000 A 
ENDBRANCH  32  33
ENDBRANCH  30  32
ENDBRANCH   3  28
TORSDOF 7
ENDMDL
MODEL 8
REMARK VINA RESULT:      -8.2      4.555     11.519
REMARK  Name = 
REMARK  7 active torsions:
REMARK  status: ('A' for Active; 'I' for Inactive)
REMARK    1  A    between atoms: C_2  and  C_4
REMARK    2  A    between atoms: C_7  and  N_8
REMARK    3  A    between atoms: C_9  and  C_11
REMARK    4  A    between atoms: C_13  and  C_14
REMARK    5  A    between atoms: N_16  and  C_17
REMARK    6  A    between atoms: C_17  and  C_18
REMARK    7  A    between atoms: N_25  and  C_26
REMARK                            x       y       z     vdW  Elec       q    Type
REMARK                         _______ _______ _______ _____ _____    ______ ____
ROOT
ATOM      1  C   UNL     1       3.622   6.466  17.681  0.00  0.00    +0.000 A 
ATOM      2  C   UNL     1       4.470   6.548  16.595  0.00  0.00    +0.000 A 
ATOM      3  C   UNL     1       5.272   5.379  16.641  0.00  0.00    +0.000 A 
ATOM      4  N   UNL     1       4.908   4.581  17.660  0.00  0.00    +0.000 NA
ATOM      5  N   UNL     1       3.824   5.196  18.216  0.00  0.00    +0.000 N 
ENDROOT
BRANCH   5   6
ATOM      6  C   UNL     1       3.052   4.515  19.203  0.00  0.00    +0.000 A 
ATOM      7  C   UNL     1       1.827   3.936  18.848  0.00  0.00    +0.000 A 
ATOM      8  C   UNL     1       1.108   3.191  19.791  0.00  0.00    +0.000 A 
ATOM      9  C   UNL     1       1.592   3.057  21.092  0.00  0.00    +0.000 A 
ATOM     10 CL   UNL     1       0.715   2.125  22.244  0.00  0.00    +0.000 Cl
ATOM     11  C   UNL     1       2.782   3.672  21.466  0.00  0.00    +0.000 A 
ATOM     12  C   UNL     1       3.511   4.405  20.528  0.00  0.00    +0.000 A 
ENDBRANCH   5   6
BRANCH   1  14
ATOM     13  N   UNL     1       2.374   8.516  17.509  0.00  0.00    +0.000 N 
ATOM     14  C   UNL     1       2.815   7.479  18.320  0.00  0.00    +0.000 C 
ATOM     15  O   UNL     1       2.545   7.383  19.511  0.00  0.00    +0.000 OA
ATOM     16  H   UNL     1       2.555   8.451  16.516  0.00  0.00    +0.000 HD
BRANCH  13  20
ATOM     17  C   UNL     1      -0.031  11.788  18.738  0.00  0.00    +0.000 A 
ATOM     18  C   UNL     1      -0.633  10.588  18.373  0.00  0.00    +0.000 A 
ATOM     19  C   UNL     1       0.156   9.500  17.996  0.00  0.00    +0.000 A 
ATOM     20  C   UNL     1       1.552   9.588  17.945  0.00  0.00    +0.000 A 
ATOM     21  C   UNL     1       2.154  10.794  18.327  0.00  0.00    +0.000 A 
ATOM     22  C   UNL     1       1.364  11.894  18.707  0.00  0.00    +0.000 A 
BRANCH  17  24
ATOM     23  N   UNL     1      -2.185  12.728  19.361  0.00  0.00    +0.000 N 
ATOM     24  C   UNL     1      -0.854  12.957  19.137  0.00  0.00    +0.000 C 
ATOM     25  O   UNL     1      -0.364  14.070  19.280  0.00  0.00    +0.000 OA
ATOM     26  H   UNL     1      -2.731  13.506  19.705  0.00  0.00    +0.000 HD
ATOM     27  H   UNL     1      -2.573  11.800  19.460  0.00  0.00    +0.000 HD
ENDBRANCH  17  24
ENDBRANCH  13  20
ENDBRANCH   1  14
BRANCH   3  28
ATOM     28  C   UNL     1       6.398   5.061  15.742  0.00  0.00    +0.000 C 
ATOM     29  O   UNL     1       7.505   4.755  16.173  0.00  0.00    +0.000 OA
ATOM     30  N   UNL     1       6.095   5.146  14.403  0.00  0.00    +0.000 N 
ATOM     31  H   UNL     1       5.137   5.384  14.167  0.00  0.00    +0.000 HD
BRANCH  30  32
ATOM     32  C   UNL     1       7.059   4.890  13.361  0.00  0.00    +0.000 C 
BRANCH  32  33
ATOM     33  C   UNL     1       6.655   3.716  12.510  0.00  0.00    +0.000 A 
ATOM     34  C   UNL     1       7.621   2.909  11.891  0.00  0.00    +0.000 A 
ATOM     35  C   UNL     1       7.237   1.828  11.093  0.00  0.00    +0.000 A 
ATOM     36  C   UNL     1       5.886   1.546  10.902  0.00  0.00    +0.000 A 
ATOM     37  C   UNL     1       4.917   2.341  11.510  0.00  0.00    +0.000 A 
ATOM     38  C   UNL     1       5.299   3.423  12.307  0.00  0.00    +0.000 A 
ENDBRANCH  32  33
ENDBRANCH  30  32
ENDBRANCH   3  28
TORSDOF 7
ENDMDL
MODEL 9
REMARK VINA RESULT:      -8.1      3.259      9.284
REMARK  Name = 
REMARK  7 active torsions:
REMARK  status: ('A' for Active; 'I' for Inactive)
REMARK    1  A    between atoms: C_2  and  C_4
REMARK    2  A    between atoms: C_7  and  N_8
REMARK    3  A    between atoms: C_9  and  C_11
REMARK    4  A    between atoms: C_13  and  C_14
REMARK    5  A    between atoms: N_16  and  C_17
REMARK    6  A    between atoms: C_17  and  C_18
REMARK    7  A    between atoms: N_25  and  C_26
REMARK                            x       y       z     vdW  Elec       q    Type
REMARK                         _______ _______ _______ _____ _____    ______ ____
ROOT
ATOM      1  C   UNL     1      -0.383  11.245  19.749  0.00  0.00    +0.000 A 
ATOM      2  C   UNL     1       0.032   9.954  19.489  0.00  0.00    +0.000 A 
ATOM      3  C   UNL     1       1.257  10.076  18.785  0.00  0.00    +0.000 A 
ATOM      4  N   UNL     1       1.621  11.366  18.665  0.00  0.00    +0.000 NA
ATOM      5  N   UNL     1       0.675  12.063  19.359  0.00  0.00    +0.000 N 
ENDROOT
BRANCH   5   6
ATOM      6  C   UNL     1       0.863  13.453  19.613  0.00  0.00    +0.000 A 
ATOM      7  C   UNL     1       0.188  14.399  18.831  0.00  0.00    +0.000 A 
ATOM      8  C   UNL     1       0.300  15.762  19.134  0.00  0.00    +0.000 A 
ATOM      9  C   UNL     1       1.111  16.180  20.189  0.00  0.00    +0.000 A 
ATOM     10 CL   UNL     1       1.231  17.854  20.570  0.00  0.00    +0.000 Cl
ATOM     11  C   UNL     1       1.824  15.250  20.938  0.00  0.00    +0.000 A 
ATOM     12  C   UNL     1       1.707  13.889  20.650  0.00  0.00    +0.000 A 
ENDBRANCH   5   6
BRANCH   1  14
ATOM     13  N   UNL     1      -1.793  12.162  21.471  0.00  0.00    +0.000 N 
ATOM     14  C   UNL     1      -1.674  11.753  20.149  0.00  0.00    +0.000 C 
ATOM     15  O   UNL     1      -2.585  11.817  19.332  0.00  0.00    +0.000 OA
ATOM     16  H   UNL     1      -0.956  12.175  22.040  0.00  0.00    +0.000 HD
BRANCH  13  20
ATOM     17  C   UNL     1      -5.251  13.832  23.275  0.00  0.00    +0.000 A 
ATOM     18  C   UNL     1      -4.895  14.210  21.983  0.00  0.00    +0.000 A 
ATOM     19  C   UNL     1      -3.775  13.641  21.376  0.00  0.00    +0.000 A 
ATOM     20  C   UNL     1      -2.970  12.711  22.044  0.00  0.00    +0.000 A 
ATOM     21  C   UNL     1      -3.340  12.323  23.339  0.00  0.00    +0.000 A 
ATOM     22  C   UNL     1      -4.467  12.894  23.956  0.00  0.00    +0.000 A 
BRANCH  17  24
ATOM     23  N   UNL     1      -7.236  13.583  24.656  0.00  0.00    +0.000 N 
ATOM     24  C   UNL     1      -6.435  14.430  23.938  0.00  0.00    +0.000 C 
ATOM     25  O   UNL     1      -6.675  15.629  23.866  0.00  0.00    +0.000 OA
ATOM     26  H   UNL     1      -8.000  14.002  25.169  0.00  0.00    +0.000 HD
ATOM     27  H   UNL     1      -6.955  12.646  24.911  0.00  0.00    +0.000 HD
ENDBRANCH  17  24
ENDBRANCH  13  20
ENDBRANCH   1  14
BRANCH   3  28
ATOM     28  C   UNL     1       2.040   8.970  18.203  0.00  0.00    +0.000 C 
ATOM     29  O   UNL     1       2.439   8.999  17.043  0.00  0.00    +0.000 OA
ATOM     30  N   UNL     1       2.266   7.922  19.063  0.00  0.00    +0.000 N 
ATOM     31  H   UNL     1       1.908   8.023  20.008  0.00  0.00    +0.000 HD
BRANCH  30  32
ATOM     32  C   UNL     1       2.996   6.737  18.685  0.00  0.00    +0.000 C 
BRANCH  32  33
ATOM     33  C   UNL     1       2.249   5.484  19.058  0.00  0.00    +0.000 A 
ATOM     34  C   UNL     1       1.894   4.540  18.082  0.00  0.00    +0.000 A 
ATOM     35  C   UNL     1       1.191   3.386  18.435  0.00  0.00    +0.000 A 
ATOM     36  C   UNL     1       0.832   3.164  19.764  0.00  0.00    +0.000 A 
ATOM     37  C   UNL     1       1.178   4.095  20.741  0.00  0.00    +0.000 A 
ATOM     38  C   UNL     1       1.879   5.251  20.390  0.00  0.00    +0.000 A 
ENDBRANCH  32  33
ENDBRANCH  30  32
ENDBRANCH   3  28
TORSDOF 7
ENDMDL
