MODEL 1
REMARK VINA RESULT:      -9.0      0.000      0.000
REMARK  Name = 
REMARK  6 active torsions:
REMARK  status: ('A' for Active; 'I' for Inactive)
REMARK    1  A    between atoms: C_2  and  C_4
REMARK    2  A    between atoms: C_2  and  C_10
REMARK    3  A    between atoms: C_10  and  C_11
REMARK    4  A    between atoms: C_11  and  N_12
REMARK    5  A    between atoms: C_19  and  C_20
REMARK    6  A    between atoms: C_23  and  C_24
REMARK                            x       y       z     vdW  Elec       q    Type
REMARK                         _______ _______ _______ _____ _____    ______ ____
ROOT
ATOM      1  C   UNL     1       3.767   4.529  18.150  0.00  0.00    +0.000 C 
ATOM      2  C   UNL     1       2.494   4.623  17.319  0.00  0.00    +0.000 C 
ATOM      3  O   UNL     1       1.874   5.828  17.744  0.00  0.00    +0.000 OA
ATOM      4  C   UNL     1       2.565   6.232  18.833  0.00  0.00    +0.000 C 
ATOM      5  N   UNL     1       3.632   5.590  19.191  0.00  0.00    +0.000 NA
ENDROOT
BRANCH   4   6
ATOM      6  C   UNL     1       2.004   7.414  19.497  0.00  0.00    +0.000 A 
ATOM      7  C   UNL     1       1.608   7.362  20.833  0.00  0.00    +0.000 A 
ATOM      8  C   UNL     1       1.034   8.482  21.433  0.00  0.00    +0.000 A 
ATOM      9  C   UNL     1       0.853   9.688  20.729  0.00  0.00    +0.000 A 
ATOM     10  C   UNL     1       1.281   9.725  19.390  0.00  0.00    +0.000 A 
ATOM     11  C   UNL     1       1.845   8.601  18.774  0.00  0.00    +0.000 A 
BRANCH   9  12
ATOM     12  C   UNL     1       0.213  10.850  21.388  0.00  0.00    +0.000 A 
ATOM     13  C   UNL     1      -0.660  10.676  22.479  0.00  0.00    +0.000 A 
ATOM     14  C   UNL     1      -1.331  11.755  23.058  0.00  0.00    +0.000 A 
ATOM     15  C   UNL     1      -1.122  13.044  22.575  0.00  0.00    +0.000 A 
ATOM     16  C   UNL     1      -0.241  13.247  21.519  0.00  0.00    +0.000 A 
ATOM     17  C   UNL     1       0.417  12.162  20.930  0.00  0.00    +0.000 A 
ENDBRANCH   9  12
ENDBRANCH   4   6
BRANCH   1  19
ATOM     18  F   UNL     1       4.577   5.112  16.019  0.00  0.00    +0.000 F 
ATOM     19  C   UNL     1       5.034   4.745  17.264  0.00  0.00    +0.000 C 
ATOM     20  F   UNL     1       5.605   3.514  17.054  0.00  0.00    +0.000 F 
BRANCH  19  21
ATOM     21  C   UNL     1       6.092   5.726  17.757  0.00  0.00    +0.000 A 
ATOM     22  C   UNL     1       6.272   6.970  17.129  0.00  0.00    +0.000 A 
ATOM     23  C   UNL     1       7.344   7.798  17.473  0.00  0.00    +0.000 A 
ATOM     24  C   UNL     1       8.247   7.399  18.456  0.00  0.00    +0.000 A 
ATOM     25  C   UNL     1       8.063   6.186  19.115  0.00  0.00    +0.000 A 
ATOM     26  C   UNL     1       6.992   5.357  18.771  0.00  0.00    +0.000 A 
ENDBRANCH  19  21
ENDBRANCH   1  19
BRANCH   1  27
ATOM     27  C   UNL     1       3.918   3.147  18.832  0.00  0.00    +0.000 C 
BRANCH  27  28
ATOM     28  N   UNL     1       2.953   2.807  19.868  0.00  0.00    +0.000 N 
ATOM     29  C   UNL     1       3.215   2.711  21.209  0.00  0.00    +0.000 A 
ATOM     30  C   UNL     1       1.983   2.560  21.801  0.00  0.00    +0.000 A 
ATOM     31  N   UNL     1       0.990   2.548  20.858  0.00  0.00    +0.000 NA
ATOM     32  C   UNL     1       1.602   2.717  19.707  0.00  0.00    +0.000 A 
ENDBRANCH  27  28
ENDBRANCH   1  27
TORSDOF 6
ENDMDL
MODEL 2
REMARK VINA RESULT:      -8.9      0.451      1.106
REMARK  Name = 
REMARK  6 active torsions:
REMARK  status: ('A' for Active; 'I' for Inactive)
REMARK    1  A    between atoms: C_2  and  C_4
REMARK    2  A    between atoms: C_2  and  C_10
REMARK    3  A    between atoms: C_10  and  C_11
REMARK    4  A    between atoms: C_11  and  N_12
REMARK    5  A    between atoms: C_19  and  C_20
REMARK    6  A    between atoms: C_23  and  C_24
REMARK                            x       y       z     vdW  Elec       q    Type
REMARK                         _______ _______ _______ _____ _____    ______ ____
ROOT
ATOM      1  C   UNL     1       3.693   4.583  18.117  0.00  0.00    +0.000 C 
ATOM      2  C   UNL     1       2.431   4.661  17.268  0.00  0.00    +0.000 C 
ATOM      3  O   UNL     1       1.805   5.873  17.662  0.00  0.00    +0.000 OA
ATOM      4  C   UNL     1       2.483   6.299  18.752  0.00  0.00    +0.000 C 
ATOM      5  N   UNL     1       3.544   5.664  19.135  0.00  0.00    +0.000 NA
ENDROOT
BRANCH   4   6
ATOM      6  C   UNL     1       1.912   7.493  19.386  0.00  0.00    +0.000 A 
ATOM      7  C   UNL     1       1.704   8.660  18.653  0.00  0.00    +0.000 A 
ATOM      8  C   UNL     1       1.204   9.799  19.284  0.00  0.00    +0.000 A 
ATOM      9  C   UNL     1       0.882   9.805  20.655  0.00  0.00    +0.000 A 
ATOM     10  C   UNL     1       1.078   8.609  21.369  0.00  0.00    +0.000 A 
ATOM     11  C   UNL     1       1.594   7.465  20.748  0.00  0.00    +0.000 A 
BRANCH   9  12
ATOM     12  C   UNL     1       0.381  11.040  21.301  0.00  0.00    +0.000 A 
ATOM     13  C   UNL     1      -0.589  10.983  22.320  0.00  0.00    +0.000 A 
ATOM     14  C   UNL     1      -1.127  12.142  22.882  0.00  0.00    +0.000 A 
ATOM     15  C   UNL     1      -0.686  13.391  22.456  0.00  0.00    +0.000 A 
ATOM     16  C   UNL     1       0.295  13.475  21.473  0.00  0.00    +0.000 A 
ATOM     17  C   UNL     1       0.820  12.312  20.900  0.00  0.00    +0.000 A 
ENDBRANCH   9  12
ENDBRANCH   4   6
BRANCH   1  19
ATOM     18  F   UNL     1       4.532   5.188  16.003  0.00  0.00    +0.000 F 
ATOM     19  C   UNL     1       4.971   4.783  17.242  0.00  0.00    +0.000 C 
ATOM     20  F   UNL     1       5.510   3.541  17.011  0.00  0.00    +0.000 F 
BRANCH  19  21
ATOM     21  C   UNL     1       6.052   5.724  17.763  0.00  0.00    +0.000 A 
ATOM     22  C   UNL     1       6.280   6.969  17.151  0.00  0.00    +0.000 A 
ATOM     23  C   UNL     1       7.373   7.759  17.521  0.00  0.00    +0.000 A 
ATOM     24  C   UNL     1       8.248   7.320  18.511  0.00  0.00    +0.000 A 
ATOM     25  C   UNL     1       8.017   6.106  19.153  0.00  0.00    +0.000 A 
ATOM     26  C   UNL     1       6.924   5.315  18.785  0.00  0.00    +0.000 A 
ENDBRANCH  19  21
ENDBRANCH   1  19
BRANCH   1  27
ATOM     27  C   UNL     1       3.835   3.215  18.826  0.00  0.00    +0.000 C 
BRANCH  27  28
ATOM     28  N   UNL     1       3.048   3.005  20.033  0.00  0.00    +0.000 N 
ATOM     29  C   UNL     1       1.681   2.953  20.101  0.00  0.00    +0.000 A 
ATOM     30  C   UNL     1       1.404   2.552  21.387  0.00  0.00    +0.000 A 
ATOM     31  N   UNL     1       2.561   2.374  22.099  0.00  0.00    +0.000 NA
ATOM     32  C   UNL     1       3.532   2.636  21.253  0.00  0.00    +0.000 A 
ENDBRANCH  27  28
ENDBRANCH   1  27
TORSDOF 6
ENDMDL
MODEL 3
REMARK VINA RESULT:      -8.9      0.476      1.116
REMARK  Name = 
REMARK  6 active torsions:
REMARK  status: ('A' for Active; 'I' for Inactive)
REMARK    1  A    between atoms: C_2  and  C_4
REMARK    2  A    between atoms: C_2  and  C_10
REMARK    3  A    between atoms: C_10  and  C_11
REMARK    4  A    between atoms: C_11  and  N_12
REMARK    5  A    between atoms: C_19  and  C_20
REMARK    6  A    between atoms: C_23  and  C_24
REMARK                            x       y       z     vdW  Elec       q    Type
REMARK                         _______ _______ _______ _____ _____    ______ ____
ROOT
ATOM      1  C   UNL     1       3.702   4.461  18.022  0.00  0.00    +0.000 C 
ATOM      2  C   UNL     1       2.374   4.529  17.280  0.00  0.00    +0.000 C 
ATOM      3  O   UNL     1       1.789   5.753  17.700  0.00  0.00    +0.000 OA
ATOM      4  C   UNL     1       2.557   6.196  18.721  0.00  0.00    +0.000 C 
ATOM      5  N   UNL     1       3.645   5.562  19.026  0.00  0.00    +0.000 NA
ENDROOT
BRANCH   4   6
ATOM      6  C   UNL     1       2.048   7.407  19.376  0.00  0.00    +0.000 A 
ATOM      7  C   UNL     1       1.738   7.406  20.735  0.00  0.00    +0.000 A 
ATOM      8  C   UNL     1       1.211   8.552  21.329  0.00  0.00    +0.000 A 
ATOM      9  C   UNL     1       0.994   9.734  20.595  0.00  0.00    +0.000 A 
ATOM     10  C   UNL     1       1.337   9.719  19.231  0.00  0.00    +0.000 A 
ATOM     11  C   UNL     1       1.852   8.568  18.622  0.00  0.00    +0.000 A 
BRANCH   9  12
ATOM     12  C   UNL     1       0.406  10.925  21.250  0.00  0.00    +0.000 A 
ATOM     13  C   UNL     1      -0.527  10.791  22.296  0.00  0.00    +0.000 A 
ATOM     14  C   UNL     1      -1.148  11.902  22.869  0.00  0.00    +0.000 A 
ATOM     15  C   UNL     1      -0.828  13.183  22.425  0.00  0.00    +0.000 A 
ATOM     16  C   UNL     1       0.114  13.345  21.415  0.00  0.00    +0.000 A 
ATOM     17  C   UNL     1       0.721  12.228  20.832  0.00  0.00    +0.000 A 
ENDBRANCH   9  12
ENDBRANCH   4   6
BRANCH   1  19
ATOM     18  F   UNL     1       4.381   5.151  15.877  0.00  0.00    +0.000 F 
ATOM     19  C   UNL     1       4.903   4.634  17.040  0.00  0.00    +0.000 C 
ATOM     20  F   UNL     1       5.327   3.379  16.680  0.00  0.00    +0.000 F 
BRANCH  19  21
ATOM     21  C   UNL     1       6.094   5.465  17.507  0.00  0.00    +0.000 A 
ATOM     22  C   UNL     1       6.927   5.011  18.544  0.00  0.00    +0.000 A 
ATOM     23  C   UNL     1       7.917   5.839  19.082  0.00  0.00    +0.000 A 
ATOM     24  C   UNL     1       8.093   7.129  18.588  0.00  0.00    +0.000 A 
ATOM     25  C   UNL     1       7.300   7.582  17.536  0.00  0.00    +0.000 A 
ATOM     26  C   UNL     1       6.310   6.755  16.996  0.00  0.00    +0.000 A 
ENDBRANCH  19  21
ENDBRANCH   1  19
BRANCH   1  27
ATOM     27  C   UNL     1       3.898   3.106  18.745  0.00  0.00    +0.000 C 
BRANCH  27  28
ATOM     28  N   UNL     1       3.139   2.889  19.968  0.00  0.00    +0.000 N 
ATOM     29  C   UNL     1       1.775   2.797  20.062  0.00  0.00    +0.000 A 
ATOM     30  C   UNL     1       1.533   2.404  21.358  0.00  0.00    +0.000 A 
ATOM     31  N   UNL     1       2.707   2.270  22.050  0.00  0.00    +0.000 NA
ATOM     32  C   UNL     1       3.656   2.550  21.184  0.00  0.00    +0.000 A 
ENDBRANCH  27  28
ENDBRANCH   1  27
TORSDOF 6
ENDMDL
MODEL 4
REMARK VINA RESULT:      -8.9      0.254      1.225
REMARK  Name = 
REMARK  6 active torsions:
REMARK  status: ('A' for Active; 'I' for Inactive)
REMARK    1  A    between atoms: C_2  and  C_4
REMARK    2  A    between atoms: C_2  and  C_10
REMARK    3  A    between atoms: C_10  and  C_11
REMARK    4  A    between atoms: C_11  and  N_12
REMARK    5  A    between atoms: C_19  and  C_20
REMARK    6  A    between atoms: C_23  and  C_24
REMARK                            x       y       z     vdW  Elec       q    Type
REMARK                         _______ _______ _______ _____ _____    ______ ____
ROOT
ATOM      1  C   UNL     1       3.870   4.482  18.183  0.00  0.00    +0.000 C 
ATOM      2  C   UNL     1       2.618   4.502  17.315  0.00  0.00    +0.000 C 
ATOM      3  O   UNL     1       1.956   5.708  17.666  0.00  0.00    +0.000 OA
ATOM      4  C   UNL     1       2.606   6.182  18.753  0.00  0.00    +0.000 C 
ATOM      5  N   UNL     1       3.679   5.586  19.168  0.00  0.00    +0.000 NA
ENDROOT
BRANCH   4   6
ATOM      6  C   UNL     1       1.996   7.378  19.345  0.00  0.00    +0.000 A 
ATOM      7  C   UNL     1       1.756   8.514  18.573  0.00  0.00    +0.000 A 
ATOM      8  C   UNL     1       1.218   9.656  19.164  0.00  0.00    +0.000 A 
ATOM      9  C   UNL     1       0.888   9.697  20.532  0.00  0.00    +0.000 A 
ATOM     10  C   UNL     1       1.116   8.531  21.286  0.00  0.00    +0.000 A 
ATOM     11  C   UNL     1       1.671   7.385  20.705  0.00  0.00    +0.000 A 
BRANCH   9  12
ATOM     12  C   UNL     1       0.346  10.936  21.136  0.00  0.00    +0.000 A 
ATOM     13  C   UNL     1       0.790  12.204  20.713  0.00  0.00    +0.000 A 
ATOM     14  C   UNL     1       0.345  13.376  21.326  0.00  0.00    +0.000 A 
ATOM     15  C   UNL     1      -0.580  13.310  22.365  0.00  0.00    +0.000 A 
ATOM     16  C   UNL     1      -1.059  12.072  22.780  0.00  0.00    +0.000 A 
ATOM     17  C   UNL     1      -0.599  10.899  22.174  0.00  0.00    +0.000 A 
ENDBRANCH   9  12
ENDBRANCH   4   6
BRANCH   1  19
ATOM     18  F   UNL     1       4.723   4.999  16.051  0.00  0.00    +0.000 F 
ATOM     19  C   UNL     1       5.154   4.691  17.320  0.00  0.00    +0.000 C 
ATOM     20  F   UNL     1       5.756   3.466  17.174  0.00  0.00    +0.000 F 
BRANCH  19  21
ATOM     21  C   UNL     1       6.179   5.713  17.801  0.00  0.00    +0.000 A 
ATOM     22  C   UNL     1       6.326   6.949  17.149  0.00  0.00    +0.000 A 
ATOM     23  C   UNL     1       7.371   7.816  17.484  0.00  0.00    +0.000 A 
ATOM     24  C   UNL     1       8.278   7.464  18.481  0.00  0.00    +0.000 A 
ATOM     25  C   UNL     1       8.125   6.259  19.163  0.00  0.00    +0.000 A 
ATOM     26  C   UNL     1       7.081   5.391  18.829  0.00  0.00    +0.000 A 
ENDBRANCH  19  21
ENDBRANCH   1  19
BRANCH   1  27
ATOM     27  C   UNL     1       4.038   3.138  18.933  0.00  0.00    +0.000 C 
BRANCH  27  28
ATOM     28  N   UNL     1       3.010   2.783  19.900  0.00  0.00    +0.000 N 
ATOM     29  C   UNL     1       3.147   2.804  21.263  0.00  0.00    +0.000 A 
ATOM     30  C   UNL     1       1.882   2.582  21.752  0.00  0.00    +0.000 A 
ATOM     31  N   UNL     1       0.989   2.414  20.727  0.00  0.00    +0.000 NA
ATOM     32  C   UNL     1       1.693   2.559  19.626  0.00  0.00    +0.000 A 
ENDBRANCH  27  28
ENDBRANCH   1  27
TORSDOF 6
ENDMDL
MODEL 5
REMARK VINA RESULT:      -8.8      1.863      4.589
REMARK  Name = 
REMARK  6 active torsions:
REMARK  status: ('A' for Active; 'I' for Inactive)
REMARK    1  A    between atoms: C_2  and  C_4
REMARK    2  A    between atoms: C_2  and  C_10
REMARK    3  A    between atoms: C_10  and  C_11
REMARK    4  A    between atoms: C_11  and  N_12
REMARK    5  A    between atoms: C_19  and  C_20
REMARK    6  A    between atoms: C_23  and  C_24
REMARK                            x       y       z     vdW  Elec       q    Type
REMARK                         _______ _______ _______ _____ _____    ______ ____
ROOT
ATOM      1  C   UNL     1       3.717   4.386  17.541  0.00  0.00    +0.000 C 
ATOM      2  C   UNL     1       4.823   4.860  18.475  0.00  0.00    +0.000 C 
ATOM      3  O   UNL     1       4.221   5.884  19.255  0.00  0.00    +0.000 OA
ATOM      4  C   UNL     1       3.022   6.127  18.680  0.00  0.00    +0.000 C 
ATOM      5  N   UNL     1       2.619   5.383  17.699  0.00  0.00    +0.000 NA
ENDROOT
BRANCH   4   6
ATOM      6  C   UNL     1       2.284   7.246  19.277  0.00  0.00    +0.000 A 
ATOM      7  C   UNL     1       1.849   7.188  20.600  0.00  0.00    +0.000 A 
ATOM      8  C   UNL     1       1.110   8.243  21.136  0.00  0.00    +0.000 A 
ATOM      9  C   UNL     1       0.798   9.388  20.379  0.00  0.00    +0.000 A 
ATOM     10  C   UNL     1       1.268   9.435  19.054  0.00  0.00    +0.000 A 
ATOM     11  C   UNL     1       1.998   8.374  18.503  0.00  0.00    +0.000 A 
BRANCH   9  12
ATOM     12  C   UNL     1      -0.014  10.477  20.969  0.00  0.00    +0.000 A 
ATOM     13  C   UNL     1      -0.422  11.580  20.194  0.00  0.00    +0.000 A 
ATOM     14  C   UNL     1      -1.120  12.650  20.756  0.00  0.00    +0.000 A 
ATOM     15  C   UNL     1      -1.453  12.630  22.108  0.00  0.00    +0.000 A 
ATOM     16  C   UNL     1      -1.091  11.538  22.889  0.00  0.00    +0.000 A 
ATOM     17  C   UNL     1      -0.377  10.475  22.326  0.00  0.00    +0.000 A 
ENDBRANCH   9  12
ENDBRANCH   4   6
BRANCH   1  19
ATOM     18  F   UNL     1       4.357   2.137  17.811  0.00  0.00    +0.000 F 
ATOM     19  C   UNL     1       3.248   2.944  17.914  0.00  0.00    +0.000 C 
ATOM     20  F   UNL     1       2.427   2.503  16.905  0.00  0.00    +0.000 F 
BRANCH  19  21
ATOM     21  C   UNL     1       2.561   2.742  19.261  0.00  0.00    +0.000 A 
ATOM     22  C   UNL     1       1.177   2.934  19.401  0.00  0.00    +0.000 A 
ATOM     23  C   UNL     1       0.574   2.909  20.662  0.00  0.00    +0.000 A 
ATOM     24  C   UNL     1       1.344   2.685  21.800  0.00  0.00    +0.000 A 
ATOM     25  C   UNL     1       2.713   2.456  21.676  0.00  0.00    +0.000 A 
ATOM     26  C   UNL     1       3.317   2.481  20.416  0.00  0.00    +0.000 A 
ENDBRANCH  19  21
ENDBRANCH   1  19
BRANCH   1  27
ATOM     27  C   UNL     1       4.178   4.347  16.064  0.00  0.00    +0.000 C 
BRANCH  27  28
ATOM     28  N   UNL     1       5.563   4.700  15.789  0.00  0.00    +0.000 N 
ATOM     29  C   UNL     1       6.392   4.071  14.897  0.00  0.00    +0.000 A 
ATOM     30  C   UNL     1       7.518   4.858  14.841  0.00  0.00    +0.000 A 
ATOM     31  N   UNL     1       7.399   5.934  15.681  0.00  0.00    +0.000 NA
ATOM     32  C   UNL     1       6.206   5.822  16.223  0.00  0.00    +0.000 A 
ENDBRANCH  27  28
ENDBRANCH   1  27
TORSDOF 6
ENDMDL
MODEL 6
REMARK VINA RESULT:      -8.7      1.700      4.601
REMARK  Name = 
REMARK  6 active torsions:
REMARK  status: ('A' for Active; 'I' for Inactive)
REMARK    1  A    between atoms: C_2  and  C_4
REMARK    2  A    between atoms: C_2  and  C_10
REMARK    3  A    between atoms: C_10  and  C_11
REMARK    4  A    between atoms: C_11  and  N_12
REMARK    5  A    between atoms: C_19  and  C_20
REMARK    6  A    between atoms: C_23  and  C_24
REMARK                            x       y       z     vdW  Elec       q    Type
REMARK                         _______ _______ _______ _____ _____    ______ ____
ROOT
ATOM      1  C   UNL     1       3.743   5.056  17.867  0.00  0.00    +0.000 C 
ATOM      2  C   UNL     1       4.571   5.370  19.107  0.00  0.00    +0.000 C 
ATOM      3  O   UNL     1       3.787   6.303  19.836  0.00  0.00    +0.000 OA
ATOM      4  C   UNL     1       2.776   6.658  19.011  0.00  0.00    +0.000 C 
ATOM      5  N   UNL     1       2.641   6.061  17.870  0.00  0.00    +0.000 NA
ENDROOT
BRANCH   4   6
ATOM      6  C   UNL     1       1.908   7.715  19.544  0.00  0.00    +0.000 A 
ATOM      7  C   UNL     1       1.570   8.820  18.764  0.00  0.00    +0.000 A 
ATOM      8  C   UNL     1       0.781   9.836  19.304  0.00  0.00    +0.000 A 
ATOM      9  C   UNL     1       0.295   9.775  20.623  0.00  0.00    +0.000 A 
ATOM     10  C   UNL     1       0.629   8.639  21.383  0.00  0.00    +0.000 A 
ATOM     11  C   UNL     1       1.432   7.621  20.855  0.00  0.00    +0.000 A 
BRANCH   9  12
ATOM     12  C   UNL     1      -0.515  10.885  21.175  0.00  0.00    +0.000 A 
ATOM     13  C   UNL     1      -0.976  11.929  20.348  0.00  0.00    +0.000 A 
ATOM     14  C   UNL     1      -1.672  13.021  20.868  0.00  0.00    +0.000 A 
ATOM     15  C   UNL     1      -1.952  13.082  22.231  0.00  0.00    +0.000 A 
ATOM     16  C   UNL     1      -1.537  12.049  23.065  0.00  0.00    +0.000 A 
ATOM     17  C   UNL     1      -0.824  10.965  22.542  0.00  0.00    +0.000 A 
ENDBRANCH   9  12
ENDBRANCH   4   6
BRANCH   1  19
ATOM     18  F   UNL     1       4.240   2.778  17.544  0.00  0.00    +0.000 F 
ATOM     19  C   UNL     1       3.196   3.595  17.913  0.00  0.00    +0.000 C 
ATOM     20  F   UNL     1       2.295   3.460  16.886  0.00  0.00    +0.000 F 
BRANCH  19  21
ATOM     21  C   UNL     1       2.569   3.107  19.215  0.00  0.00    +0.000 A 
ATOM     22  C   UNL     1       1.198   3.283  19.465  0.00  0.00    +0.000 A 
ATOM     23  C   UNL     1       0.655   2.987  20.719  0.00  0.00    +0.000 A 
ATOM     24  C   UNL     1       1.472   2.502  21.737  0.00  0.00    +0.000 A 
ATOM     25  C   UNL     1       2.826   2.287  21.495  0.00  0.00    +0.000 A 
ATOM     26  C   UNL     1       3.371   2.583  20.242  0.00  0.00    +0.000 A 
ENDBRANCH  19  21
ENDBRANCH   1  19
BRANCH   1  27
ATOM     27  C   UNL     1       4.570   5.192  16.565  0.00  0.00    +0.000 C 
BRANCH  27  28
ATOM     28  N   UNL     1       5.776   6.005  16.625  0.00  0.00    +0.000 N 
ATOM     29  C   UNL     1       5.855   7.295  17.079  0.00  0.00    +0.000 A 
ATOM     30  C   UNL     1       7.201   7.574  17.126  0.00  0.00    +0.000 A 
ATOM     31  N   UNL     1       7.934   6.498  16.702  0.00  0.00    +0.000 NA
ATOM     32  C   UNL     1       7.051   5.564  16.425  0.00  0.00    +0.000 A 
ENDBRANCH  27  28
ENDBRANCH   1  27
TORSDOF 6
ENDMDL
MODEL 7
REMARK VINA RESULT:      -8.7      1.976      4.669
REMARK  Name = 
REMARK  6 active torsions:
REMARK  status: ('A' for Active; 'I' for Inactive)
REMARK    1  A    between atoms: C_2  and  C_4
REMARK    2  A    between atoms: C_2  and  C_10
REMARK    3  A    between atoms: C_10  and  C_11
REMARK    4  A    between atoms: C_11  and  N_12
REMARK    5  A    between atoms: C_19  and  C_20
REMARK    6  A    between atoms: C_23  and  C_24
REMARK                            x       y       z     vdW  Elec       q    Type
REMARK                         _______ _______ _______ _____ _____    ______ ____
ROOT
ATOM      1  C   UNL     1       4.943   5.361  17.595  0.00  0.00    +0.000 C 
ATOM      2  C   UNL     1       4.966   5.215  19.111  0.00  0.00    +0.000 C 
ATOM      3  O   UNL     1       3.910   6.047  19.568  0.00  0.00    +0.000 OA
ATOM      4  C   UNL     1       3.506   6.755  18.490  0.00  0.00    +0.000 C 
ATOM      5  N   UNL     1       4.012   6.495  17.326  0.00  0.00    +0.000 NA
ENDROOT
BRANCH   4   6
ATOM      6  C   UNL     1       2.486   7.769  18.783  0.00  0.00    +0.000 A 
ATOM      7  C   UNL     1       1.940   7.883  20.061  0.00  0.00    +0.000 A 
ATOM      8  C   UNL     1       0.939   8.821  20.308  0.00  0.00    +0.000 A 
ATOM      9  C   UNL     1       0.464   9.681  19.300  0.00  0.00    +0.000 A 
ATOM     10  C   UNL     1       1.046   9.564  18.024  0.00  0.00    +0.000 A 
ATOM     11  C   UNL     1       2.041   8.615  17.763  0.00  0.00    +0.000 A 
BRANCH   9  12
ATOM     12  C   UNL     1      -0.622  10.646  19.589  0.00  0.00    +0.000 A 
ATOM     13  C   UNL     1      -1.650  10.882  18.656  0.00  0.00    +0.000 A 
ATOM     14  C   UNL     1      -2.635  11.846  18.882  0.00  0.00    +0.000 A 
ATOM     15  C   UNL     1      -2.630  12.581  20.064  0.00  0.00    +0.000 A 
ATOM     16  C   UNL     1      -1.644  12.345  21.016  0.00  0.00    +0.000 A 
ATOM     17  C   UNL     1      -0.650  11.391  20.779  0.00  0.00    +0.000 A 
ENDBRANCH   9  12
ENDBRANCH   4   6
BRANCH   1  19
ATOM     18  F   UNL     1       5.569   3.232  16.810  0.00  0.00    +0.000 F 
ATOM     19  C   UNL     1       4.462   4.042  16.911  0.00  0.00    +0.000 C 
ATOM     20  F   UNL     1       4.154   4.342  15.607  0.00  0.00    +0.000 F 
BRANCH  19  21
ATOM     21  C   UNL     1       3.302   3.287  17.553  0.00  0.00    +0.000 A 
ATOM     22  C   UNL     1       2.011   3.840  17.583  0.00  0.00    +0.000 A 
ATOM     23  C   UNL     1       0.986   3.227  18.311  0.00  0.00    +0.000 A 
ATOM     24  C   UNL     1       1.235   2.049  19.011  0.00  0.00    +0.000 A 
ATOM     25  C   UNL     1       2.500   1.468  18.962  0.00  0.00    +0.000 A 
ATOM     26  C   UNL     1       3.526   2.080  18.236  0.00  0.00    +0.000 A 
ENDBRANCH  19  21
ENDBRANCH   1  19
BRANCH   1  27
ATOM     27  C   UNL     1       6.342   5.687  17.019  0.00  0.00    +0.000 C 
BRANCH  27  28
ATOM     28  N   UNL     1       7.074   6.787  17.632  0.00  0.00    +0.000 N 
ATOM     29  C   UNL     1       8.007   6.674  18.630  0.00  0.00    +0.000 A 
ATOM     30  C   UNL     1       8.556   7.929  18.747  0.00  0.00    +0.000 A 
ATOM     31  N   UNL     1       7.973   8.797  17.862  0.00  0.00    +0.000 NA
ATOM     32  C   UNL     1       7.100   8.077  17.193  0.00  0.00    +0.000 A 
ENDBRANCH  27  28
ENDBRANCH   1  27
TORSDOF 6
ENDMDL
MODEL 8
REMARK VINA RESULT:      -8.7      0.898      1.298
REMARK  Name = 
REMARK  6 active torsions:
REMARK  status: ('A' for Active; 'I' for Inactive)
REMARK    1  A    between atoms: C_2  and  C_4
REMARK    2  A    between atoms: C_2  and  C_10
REMARK    3  A    between atoms: C_10  and  C_11
REMARK    4  A    between atoms: C_11  and  N_12
REMARK    5  A    between atoms: C_19  and  C_20
REMARK    6  A    between atoms: C_23  and  C_24
REMARK                            x       y       z     vdW  Elec       q    Type
REMARK                         _______ _______ _______ _____ _____    ______ ____
ROOT
ATOM      1  C   UNL     1       3.987   4.560  18.206  0.00  0.00    +0.000 C 
ATOM      2  C   UNL     1       2.691   4.417  17.420  0.00  0.00    +0.000 C 
ATOM      3  O   UNL     1       2.020   5.655  17.603  0.00  0.00    +0.000 OA
ATOM      4  C   UNL     1       2.716   6.314  18.556  0.00  0.00    +0.000 C 
ATOM      5  N   UNL     1       3.823   5.811  19.003  0.00  0.00    +0.000 NA
ENDROOT
BRANCH   4   6
ATOM      6  C   UNL     1       2.110   7.583  18.975  0.00  0.00    +0.000 A 
ATOM      7  C   UNL     1       1.735   7.791  20.301  0.00  0.00    +0.000 A 
ATOM      8  C   UNL     1       1.119   8.986  20.670  0.00  0.00    +0.000 A 
ATOM      9  C   UNL     1       0.874  10.012  19.738  0.00  0.00    +0.000 A 
ATOM     10  C   UNL     1       1.283   9.790  18.411  0.00  0.00    +0.000 A 
ATOM     11  C   UNL     1       1.889   8.587  18.027  0.00  0.00    +0.000 A 
BRANCH   9  12
ATOM     12  C   UNL     1       0.191  11.258  20.157  0.00  0.00    +0.000 A 
ATOM     13  C   UNL     1      -1.126  11.538  19.744  0.00  0.00    +0.000 A 
ATOM     14  C   UNL     1      -1.752  12.743  20.066  0.00  0.00    +0.000 A 
ATOM     15  C   UNL     1      -1.084  13.690  20.837  0.00  0.00    +0.000 A 
ATOM     16  C   UNL     1       0.206  13.425  21.285  0.00  0.00    +0.000 A 
ATOM     17  C   UNL     1       0.836  12.224  20.947  0.00  0.00    +0.000 A 
ENDBRANCH   9  12
ENDBRANCH   4   6
BRANCH   1  19
ATOM     18  F   UNL     1       4.719   4.920  15.998  0.00  0.00    +0.000 F 
ATOM     19  C   UNL     1       5.218   4.640  17.249  0.00  0.00    +0.000 C 
ATOM     20  F   UNL     1       5.726   3.371  17.124  0.00  0.00    +0.000 F 
BRANCH  19  21
ATOM     21  C   UNL     1       6.340   5.610  17.608  0.00  0.00    +0.000 A 
ATOM     22  C   UNL     1       7.235   5.323  18.652  0.00  0.00    +0.000 A 
ATOM     23  C   UNL     1       8.157   6.279  19.087  0.00  0.00    +0.000 A 
ATOM     24  C   UNL     1       8.204   7.532  18.481  0.00  0.00    +0.000 A 
ATOM     25  C   UNL     1       7.349   7.820  17.420  0.00  0.00    +0.000 A 
ATOM     26  C   UNL     1       6.426   6.865  16.983  0.00  0.00    +0.000 A 
ENDBRANCH  19  21
ENDBRANCH   1  19
BRANCH   1  27
ATOM     27  C   UNL     1       4.228   3.364  19.158  0.00  0.00    +0.000 C 
BRANCH  27  28
ATOM     28  N   UNL     1       3.104   2.928  19.976  0.00  0.00    +0.000 N 
ATOM     29  C   UNL     1       2.910   3.227  21.299  0.00  0.00    +0.000 A 
ATOM     30  C   UNL     1       1.645   2.769  21.584  0.00  0.00    +0.000 A 
ATOM     31  N   UNL     1       1.077   2.193  20.479  0.00  0.00    +0.000 NA
ATOM     32  C   UNL     1       1.971   2.320  19.523  0.00  0.00    +0.000 A 
ENDBRANCH  27  28
ENDBRANCH   1  27
TORSDOF 6
ENDMDL
MODEL 9
REMARK VINA RESULT:      -8.6      0.773      1.559
REMARK  Name = 
REMARK  6 active torsions:
REMARK  status: ('A' for Active; 'I' for Inactive)
REMARK    1  A    between atoms: C_2  and  C_4
REMARK    2  A    between atoms: C_2  and  C_10
REMARK    3  A    between atoms: C_10  and  C_11
REMARK    4  A    between atoms: C_11  and  N_12
REMARK    5  A    between atoms: C_19  and  C_20
REMARK    6  A    between atoms: C_23  and  C_24
REMARK                            x       y       z     vdW  Elec       q    Type
REMARK                         _______ _______ _______ _____ _____    ______ ____
ROOT
ATOM      1  C   UNL     1       3.932   4.719  18.295  0.00  0.00    +0.000 C 
ATOM      2  C   UNL     1       2.623   4.512  17.544  0.00  0.00    +0.000 C 
ATOM      3  O   UNL     1       1.936   5.749  17.671  0.00  0.00    +0.000 OA
ATOM      4  C   UNL     1       2.640   6.470  18.572  0.00  0.00    +0.000 C 
ATOM      5  N   UNL     1       3.764   6.010  19.024  0.00  0.00    +0.000 NA
ENDROOT
BRANCH   4   6
ATOM      6  C   UNL     1       2.022   7.752  18.931  0.00  0.00    +0.000 A 
ATOM      7  C   UNL     1       1.848   8.753  17.976  0.00  0.00    +0.000 A 
ATOM      8  C   UNL     1       1.302   9.980  18.348  0.00  0.00    +0.000 A 
ATOM      9  C   UNL     1       0.898  10.242  19.671  0.00  0.00    +0.000 A 
ATOM     10  C   UNL     1       1.061   9.209  20.612  0.00  0.00    +0.000 A 
ATOM     11  C   UNL     1       1.623   7.978  20.252  0.00  0.00    +0.000 A 
BRANCH   9  12
ATOM     12  C   UNL     1       0.348  11.567  20.038  0.00  0.00    +0.000 A 
ATOM     13  C   UNL     1       0.043  11.881  21.376  0.00  0.00    +0.000 A 
ATOM     14  C   UNL     1      -0.548  13.096  21.726  0.00  0.00    +0.000 A 
ATOM     15  C   UNL     1      -0.825  14.043  20.743  0.00  0.00    +0.000 A 
ATOM     16  C   UNL     1      -0.505  13.771  19.417  0.00  0.00    +0.000 A 
ATOM     17  C   UNL     1       0.073  12.546  19.069  0.00  0.00    +0.000 A 
ENDBRANCH   9  12
ENDBRANCH   4   6
BRANCH   1  19
ATOM     18  F   UNL     1       4.625   5.071  16.073  0.00  0.00    +0.000 F 
ATOM     19  C   UNL     1       5.143   4.763  17.310  0.00  0.00    +0.000 C 
ATOM     20  F   UNL     1       5.602   3.478  17.163  0.00  0.00    +0.000 F 
BRANCH  19  21
ATOM     21  C   UNL     1       6.306   5.690  17.649  0.00  0.00    +0.000 A 
ATOM     22  C   UNL     1       7.195   5.379  18.692  0.00  0.00    +0.000 A 
ATOM     23  C   UNL     1       8.159   6.301  19.110  0.00  0.00    +0.000 A 
ATOM     24  C   UNL     1       8.255   7.543  18.487  0.00  0.00    +0.000 A 
ATOM     25  C   UNL     1       7.406   7.853  17.427  0.00  0.00    +0.000 A 
ATOM     26  C   UNL     1       6.441   6.932  17.008  0.00  0.00    +0.000 A 
ENDBRANCH  19  21
ENDBRANCH   1  19
BRANCH   1  27
ATOM     27  C   UNL     1       4.210   3.582  19.308  0.00  0.00    +0.000 C 
BRANCH  27  28
ATOM     28  N   UNL     1       3.083   3.101  20.094  0.00  0.00    +0.000 N 
ATOM     29  C   UNL     1       2.715   3.557  21.333  0.00  0.00    +0.000 A 
ATOM     30  C   UNL     1       1.506   2.955  21.588  0.00  0.00    +0.000 A 
ATOM     31  N   UNL     1       1.140   2.141  20.549  0.00  0.00    +0.000 NA
ATOM     32  C   UNL     1       2.099   2.264  19.658  0.00  0.00    +0.000 A 
ENDBRANCH  27  28
ENDBRANCH   1  27
TORSDOF 6
ENDMDL
