MODEL 1
REMARK VINA RESULT:      -7.0      0.000      0.000
REMARK  Name = 
REMARK  6 active torsions:
REMARK  status: ('A' for Active; 'I' for Inactive)
REMARK    1  A    between atoms: C_1  and  O_2
REMARK    2  A    between atoms: O_2  and  C_3
REMARK    3  A    between atoms: C_8  and  N_9
REMARK    4  A    between atoms: C_10  and  C_12
REMARK    5  A    between atoms: C_12  and  C_13
REMARK    6  A    between atoms: C_15  and  C_16
REMARK                            x       y       z     vdW  Elec       q    Type
REMARK                         _______ _______ _______ _____ _____    ______ ____
ROOT
ATOM      1  N   UNL     1       3.531   5.045  17.466  0.00  0.00    +0.000 N 
ATOM      2  C   UNL     1       4.584   4.448  16.814  0.00  0.00    +0.000 C 
ATOM      3  O   UNL     1       4.788   3.249  16.885  0.00  0.00    +0.000 OA
ATOM      4  H   UNL     1       3.472   6.071  17.388  0.00  0.00    +0.000 HD
ENDROOT
BRANCH   1  10
ATOM      5  C   UNL     1       2.185   4.954  19.556  0.00  0.00    +0.000 A 
ATOM      6  C   UNL     1       1.249   4.286  20.381  0.00  0.00    +0.000 A 
ATOM      7  C   UNL     1       0.658   3.097  19.975  0.00  0.00    +0.000 A 
ATOM      8  C   UNL     1       0.973   2.552  18.741  0.00  0.00    +0.000 A 
ATOM      9  C   UNL     1       1.899   3.179  17.910  0.00  0.00    +0.000 A 
ATOM     10  C   UNL     1       2.542   4.386  18.295  0.00  0.00    +0.000 A 
BRANCH   5  12
ATOM     11  C   UNL     1       2.143   7.374  19.850  0.00  0.00    +0.000 C 
ATOM     12  O   UNL     1       2.745   6.129  19.957  0.00  0.00    +0.000 OA
ENDBRANCH   5  12
ENDBRANCH   1  10
BRANCH   2  13
ATOM     13  C   UNL     1       5.576   5.263  16.023  0.00  0.00    +0.000 C 
BRANCH  13  14
ATOM     14  C   UNL     1       6.485   6.056  16.907  0.00  0.00    +0.000 A 
ATOM     15  N   UNL     1       6.737   7.373  16.743  0.00  0.00    +0.000 NA
ATOM     16  C   UNL     1       7.624   7.833  17.670  0.00  0.00    +0.000 A 
ATOM     17  C   UNL     1       8.084   6.875  18.570  0.00  0.00    +0.000 A 
ATOM     18  S   UNL     1       7.354   5.410  18.193  0.00  0.00    +0.000 S 
BRANCH  16  19
ATOM     19  C   UNL     1       8.057   9.265  17.716  0.00  0.00    +0.000 C 
ATOM     20 CL   UNL     1       9.123   9.554  19.114  0.00  0.00    +0.000 Cl
ENDBRANCH  16  19
ENDBRANCH  13  14
ENDBRANCH   2  13
TORSDOF 5
ENDMDL
MODEL 2
REMARK VINA RESULT:      -6.9      3.055      4.108
REMARK  Name = 
REMARK  6 active torsions:
REMARK  status: ('A' for Active; 'I' for Inactive)
REMARK    1  A    between atoms: C_1  and  O_2
REMARK    2  A    between atoms: O_2  and  C_3
REMARK    3  A    between atoms: C_8  and  N_9
REMARK    4  A    between atoms: C_10  and  C_12
REMARK    5  A    between atoms: C_12  and  C_13
REMARK    6  A    between atoms: C_15  and  C_16
REMARK                            x       y       z     vdW  Elec       q    Type
REMARK                         _______ _______ _______ _____ _____    ______ ____
ROOT
ATOM      1  N   UNL     1       4.758   5.327  18.341  0.00  0.00    +0.000 N 
ATOM      2  C   UNL     1       6.085   5.367  18.702  0.00  0.00    +0.000 C 
ATOM      3  O   UNL     1       6.449   5.124  19.838  0.00  0.00    +0.000 OA
ATOM      4  H   UNL     1       4.543   5.598  17.370  0.00  0.00    +0.000 HD
ENDROOT
BRANCH   1  10
ATOM      5  C   UNL     1       3.318   3.634  19.456  0.00  0.00    +0.000 A 
ATOM      6  C   UNL     1       2.199   3.319  20.264  0.00  0.00    +0.000 A 
ATOM      7  C   UNL     1       1.419   4.321  20.828  0.00  0.00    +0.000 A 
ATOM      8  C   UNL     1       1.739   5.652  20.613  0.00  0.00    +0.000 A 
ATOM      9  C   UNL     1       2.828   5.995  19.814  0.00  0.00    +0.000 A 
ATOM     10  C   UNL     1       3.639   5.003  19.201  0.00  0.00    +0.000 A 
BRANCH   5  12
ATOM     11  C   UNL     1       3.596   1.494  18.322  0.00  0.00    +0.000 C 
ATOM     12  O   UNL     1       4.086   2.643  18.924  0.00  0.00    +0.000 OA
ENDBRANCH   5  12
ENDBRANCH   1  10
BRANCH   2  13
ATOM     13  C   UNL     1       7.150   5.773  17.715  0.00  0.00    +0.000 C 
BRANCH  13  14
ATOM     14  C   UNL     1       6.927   5.168  16.365  0.00  0.00    +0.000 A 
ATOM     15  N   UNL     1       7.529   5.600  15.236  0.00  0.00    +0.000 NA
ATOM     16  C   UNL     1       7.122   4.889  14.146  0.00  0.00    +0.000 A 
ATOM     17  C   UNL     1       6.187   3.892  14.412  0.00  0.00    +0.000 A 
ATOM     18  S   UNL     1       5.864   3.902  16.060  0.00  0.00    +0.000 S 
BRANCH  16  19
ATOM     19  C   UNL     1       7.655   5.159  12.775  0.00  0.00    +0.000 C 
ATOM     20 CL   UNL     1       7.166   3.870  11.646  0.00  0.00    +0.000 Cl
ENDBRANCH  16  19
ENDBRANCH  13  14
ENDBRANCH   2  13
TORSDOF 5
ENDMDL
MODEL 3
REMARK VINA RESULT:      -6.5      3.733      4.602
REMARK  Name = 
REMARK  6 active torsions:
REMARK  status: ('A' for Active; 'I' for Inactive)
REMARK    1  A    between atoms: C_1  and  O_2
REMARK    2  A    between atoms: O_2  and  C_3
REMARK    3  A    between atoms: C_8  and  N_9
REMARK    4  A    between atoms: C_10  and  C_12
REMARK    5  A    between atoms: C_12  and  C_13
REMARK    6  A    between atoms: C_15  and  C_16
REMARK                            x       y       z     vdW  Elec       q    Type
REMARK                         _______ _______ _______ _____ _____    ______ ____
ROOT
ATOM      1  N   UNL     1       4.690   4.842  16.354  0.00  0.00    +0.000 N 
ATOM      2  C   UNL     1       6.037   4.715  16.597  0.00  0.00    +0.000 C 
ATOM      3  O   UNL     1       6.461   4.140  17.584  0.00  0.00    +0.000 OA
ATOM      4  H   UNL     1       4.429   5.389  15.521  0.00  0.00    +0.000 HD
ENDROOT
BRANCH   1  10
ATOM      5  C   UNL     1       2.909   5.230  18.047  0.00  0.00    +0.000 A 
ATOM      6  C   UNL     1       1.884   4.727  18.883  0.00  0.00    +0.000 A 
ATOM      7  C   UNL     1       1.537   3.382  18.859  0.00  0.00    +0.000 A 
ATOM      8  C   UNL     1       2.190   2.513  18.000  0.00  0.00    +0.000 A 
ATOM      9  C   UNL     1       3.211   2.975  17.172  0.00  0.00    +0.000 A 
ATOM     10  C   UNL     1       3.612   4.337  17.180  0.00  0.00    +0.000 A 
BRANCH   5  12
ATOM     11  C   UNL     1       2.438   7.555  18.610  0.00  0.00    +0.000 C 
ATOM     12  O   UNL     1       3.228   6.554  18.066  0.00  0.00    +0.000 OA
ENDBRANCH   5  12
ENDBRANCH   1  10
BRANCH   2  13
ATOM     13  C   UNL     1       7.058   5.336  15.678  0.00  0.00    +0.000 C 
BRANCH  13  14
ATOM     14  C   UNL     1       6.956   4.806  14.283  0.00  0.00    +0.000 A 
ATOM     15  N   UNL     1       6.080   3.851  13.900  0.00  0.00    +0.000 NA
ATOM     16  C   UNL     1       6.224   3.537  12.581  0.00  0.00    +0.000 A 
ATOM     17  C   UNL     1       7.223   4.242  11.915  0.00  0.00    +0.000 A 
ATOM     18  S   UNL     1       7.944   5.290  13.012  0.00  0.00    +0.000 S 
BRANCH  16  19
ATOM     19  C   UNL     1       5.360   2.519  11.907  0.00  0.00    +0.000 C 
ATOM     20 CL   UNL     1       3.946   3.295  11.152  0.00  0.00    +0.000 Cl
ENDBRANCH  16  19
ENDBRANCH  13  14
ENDBRANCH   2  13
TORSDOF 5
ENDMDL
MODEL 4
REMARK VINA RESULT:      -6.5      2.307      3.550
REMARK  Name = 
REMARK  6 active torsions:
REMARK  status: ('A' for Active; 'I' for Inactive)
REMARK    1  A    between atoms: C_1  and  O_2
REMARK    2  A    between atoms: O_2  and  C_3
REMARK    3  A    between atoms: C_8  and  N_9
REMARK    4  A    between atoms: C_10  and  C_12
REMARK    5  A    between atoms: C_12  and  C_13
REMARK    6  A    between atoms: C_15  and  C_16
REMARK                            x       y       z     vdW  Elec       q    Type
REMARK                         _______ _______ _______ _____ _____    ______ ____
ROOT
ATOM      1  N   UNL     1       3.184   5.666  18.283  0.00  0.00    +0.000 N 
ATOM      2  C   UNL     1       2.620   4.617  17.595  0.00  0.00    +0.000 C 
ATOM      3  O   UNL     1       1.413   4.508  17.465  0.00  0.00    +0.000 OA
ATOM      4  H   UNL     1       4.209   5.644  18.382  0.00  0.00    +0.000 HD
ENDROOT
BRANCH   1  10
ATOM      5  C   UNL     1       1.992   6.593  20.259  0.00  0.00    +0.000 A 
ATOM      6  C   UNL     1       1.268   7.645  20.870  0.00  0.00    +0.000 A 
ATOM      7  C   UNL     1       1.041   8.840  20.201  0.00  0.00    +0.000 A 
ATOM      8  C   UNL     1       1.536   9.022  18.919  0.00  0.00    +0.000 A 
ATOM      9  C   UNL     1       2.242   8.002  18.286  0.00  0.00    +0.000 A 
ATOM     10  C   UNL     1       2.479   6.756  18.926  0.00  0.00    +0.000 A 
BRANCH   5  12
ATOM     11  C   UNL     1       1.390   4.325  20.919  0.00  0.00    +0.000 C 
ATOM     12  O   UNL     1       2.224   5.432  20.932  0.00  0.00    +0.000 OA
ENDBRANCH   5  12
ENDBRANCH   1  10
BRANCH   2  13
ATOM     13  C   UNL     1       3.471   3.516  17.015  0.00  0.00    +0.000 C 
BRANCH  13  14
ATOM     14  C   UNL     1       4.907   3.917  16.898  0.00  0.00    +0.000 A 
ATOM     15  N   UNL     1       5.659   4.345  17.936  0.00  0.00    +0.000 NA
ATOM     16  C   UNL     1       6.922   4.671  17.540  0.00  0.00    +0.000 A 
ATOM     17  C   UNL     1       7.172   4.508  16.180  0.00  0.00    +0.000 A 
ATOM     18  S   UNL     1       5.769   3.935  15.455  0.00  0.00    +0.000 S 
BRANCH  16  19
ATOM     19  C   UNL     1       7.957   5.158  18.504  0.00  0.00    +0.000 C 
ATOM     20 CL   UNL     1       8.022   6.939  18.510  0.00  0.00    +0.000 Cl
ENDBRANCH  16  19
ENDBRANCH  13  14
ENDBRANCH   2  13
TORSDOF 5
ENDMDL
MODEL 5
REMARK VINA RESULT:      -6.4      3.345      3.849
REMARK  Name = 
REMARK  6 active torsions:
REMARK  status: ('A' for Active; 'I' for Inactive)
REMARK    1  A    between atoms: C_1  and  O_2
REMARK    2  A    between atoms: O_2  and  C_3
REMARK    3  A    between atoms: C_8  and  N_9
REMARK    4  A    between atoms: C_10  and  C_12
REMARK    5  A    between atoms: C_12  and  C_13
REMARK    6  A    between atoms: C_15  and  C_16
REMARK                            x       y       z     vdW  Elec       q    Type
REMARK                         _______ _______ _______ _____ _____    ______ ____
ROOT
ATOM      1  N   UNL     1       5.305   3.878  18.696  0.00  0.00    +0.000 N 
ATOM      2  C   UNL     1       6.456   4.609  18.880  0.00  0.00    +0.000 C 
ATOM      3  O   UNL     1       6.632   5.291  19.874  0.00  0.00    +0.000 OA
ATOM      4  H   UNL     1       5.226   3.374  17.801  0.00  0.00    +0.000 HD
ENDROOT
BRANCH   1  10
ATOM      5  C   UNL     1       3.316   4.925  19.760  0.00  0.00    +0.000 A 
ATOM      6  C   UNL     1       2.240   4.858  20.677  0.00  0.00    +0.000 A 
ATOM      7  C   UNL     1       2.000   3.705  21.414  0.00  0.00    +0.000 A 
ATOM      8  C   UNL     1       2.811   2.594  21.248  0.00  0.00    +0.000 A 
ATOM      9  C   UNL     1       3.884   2.632  20.360  0.00  0.00    +0.000 A 
ATOM     10  C   UNL     1       4.179   3.798  19.603  0.00  0.00    +0.000 A 
BRANCH   5  12
ATOM     11  C   UNL     1       2.536   6.871  18.515  0.00  0.00    +0.000 C 
ATOM     12  O   UNL     1       3.532   6.055  19.030  0.00  0.00    +0.000 OA
ENDBRANCH   5  12
ENDBRANCH   1  10
BRANCH   2  13
ATOM     13  C   UNL     1       7.534   4.646  17.826  0.00  0.00    +0.000 C 
BRANCH  13  14
ATOM     14  C   UNL     1       6.970   4.584  16.442  0.00  0.00    +0.000 A 
ATOM     15  N   UNL     1       7.673   4.879  15.327  0.00  0.00    +0.000 NA
ATOM     16  C   UNL     1       6.906   4.767  14.205  0.00  0.00    +0.000 A 
ATOM     17  C   UNL     1       5.585   4.388  14.432  0.00  0.00    +0.000 A 
ATOM     18  S   UNL     1       5.376   4.185  16.086  0.00  0.00    +0.000 S 
BRANCH  16  19
ATOM     19  C   UNL     1       7.453   5.025  12.837  0.00  0.00    +0.000 C 
ATOM     20 CL   UNL     1       7.003   3.709  11.723  0.00  0.00    +0.000 Cl
ENDBRANCH  16  19
ENDBRANCH  13  14
ENDBRANCH   2  13
TORSDOF 5
ENDMDL
MODEL 6
REMARK VINA RESULT:      -6.3      3.240      4.307
REMARK  Name = 
REMARK  6 active torsions:
REMARK  status: ('A' for Active; 'I' for Inactive)
REMARK    1  A    between atoms: C_1  and  O_2
REMARK    2  A    between atoms: O_2  and  C_3
REMARK    3  A    between atoms: C_8  and  N_9
REMARK    4  A    between atoms: C_10  and  C_12
REMARK    5  A    between atoms: C_12  and  C_13
REMARK    6  A    between atoms: C_15  and  C_16
REMARK                            x       y       z     vdW  Elec       q    Type
REMARK                         _______ _______ _______ _____ _____    ______ ____
ROOT
ATOM      1  N   UNL     1       4.867   4.410  18.537  0.00  0.00    +0.000 N 
ATOM      2  C   UNL     1       6.148   4.814  18.834  0.00  0.00    +0.000 C 
ATOM      3  O   UNL     1       6.488   5.086  19.972  0.00  0.00    +0.000 OA
ATOM      4  H   UNL     1       4.661   4.252  17.540  0.00  0.00    +0.000 HD
ENDROOT
BRANCH   1  10
ATOM      5  C   UNL     1       3.462   2.942  19.971  0.00  0.00    +0.000 A 
ATOM      6  C   UNL     1       2.369   2.777  20.854  0.00  0.00    +0.000 A 
ATOM      7  C   UNL     1       1.606   3.864  21.259  0.00  0.00    +0.000 A 
ATOM      8  C   UNL     1       1.918   5.137  20.808  0.00  0.00    +0.000 A 
ATOM      9  C   UNL     1       2.982   5.331  19.929  0.00  0.00    +0.000 A 
ATOM     10  C   UNL     1       3.775   4.244  19.473  0.00  0.00    +0.000 A 
BRANCH   5  12
ATOM     11  C   UNL     1       3.940   1.045  18.516  0.00  0.00    +0.000 C 
ATOM     12  O   UNL     1       4.215   1.870  19.596  0.00  0.00    +0.000 OA
ENDBRANCH   5  12
ENDBRANCH   1  10
BRANCH   2  13
ATOM     13  C   UNL     1       7.180   4.996  17.751  0.00  0.00    +0.000 C 
BRANCH  13  14
ATOM     14  C   UNL     1       6.567   5.017  16.387  0.00  0.00    +0.000 A 
ATOM     15  N   UNL     1       6.839   4.111  15.423  0.00  0.00    +0.000 NA
ATOM     16  C   UNL     1       6.164   4.386  14.270  0.00  0.00    +0.000 A 
ATOM     17  C   UNL     1       5.358   5.520  14.318  0.00  0.00    +0.000 A 
ATOM     18  S   UNL     1       5.494   6.195  15.850  0.00  0.00    +0.000 S 
BRANCH  16  19
ATOM     19  C   UNL     1       6.281   3.522  13.055  0.00  0.00    +0.000 C 
ATOM     20 CL   UNL     1       7.293   4.310  11.818  0.00  0.00    +0.000 Cl
ENDBRANCH  16  19
ENDBRANCH  13  14
ENDBRANCH   2  13
TORSDOF 5
ENDMDL
MODEL 7
REMARK VINA RESULT:      -6.2      4.230      5.318
REMARK  Name = 
REMARK  6 active torsions:
REMARK  status: ('A' for Active; 'I' for Inactive)
REMARK    1  A    between atoms: C_1  and  O_2
REMARK    2  A    between atoms: O_2  and  C_3
REMARK    3  A    between atoms: C_8  and  N_9
REMARK    4  A    between atoms: C_10  and  C_12
REMARK    5  A    between atoms: C_12  and  C_13
REMARK    6  A    between atoms: C_15  and  C_16
REMARK                            x       y       z     vdW  Elec       q    Type
REMARK                         _______ _______ _______ _____ _____    ______ ____
ROOT
ATOM      1  N   UNL     1       5.146   3.594  16.558  0.00  0.00    +0.000 N 
ATOM      2  C   UNL     1       5.633   4.645  15.818  0.00  0.00    +0.000 C 
ATOM      3  O   UNL     1       5.146   5.760  15.884  0.00  0.00    +0.000 OA
ATOM      4  H   UNL     1       5.591   2.680  16.396  0.00  0.00    +0.000 HD
ENDROOT
BRANCH   1  10
ATOM      5  C   UNL     1       4.291   3.874  18.877  0.00  0.00    +0.000 A 
ATOM      6  C   UNL     1       3.212   3.873  19.793  0.00  0.00    +0.000 A 
ATOM      7  C   UNL     1       1.908   3.663  19.362  0.00  0.00    +0.000 A 
ATOM      8  C   UNL     1       1.647   3.462  18.016  0.00  0.00    +0.000 A 
ATOM      9  C   UNL     1       2.689   3.447  17.091  0.00  0.00    +0.000 A 
ATOM     10  C   UNL     1       4.038   3.636  17.492  0.00  0.00    +0.000 A 
BRANCH   5  12
ATOM     11  C   UNL     1       6.177   5.341  19.363  0.00  0.00    +0.000 C 
ATOM     12  O   UNL     1       5.563   4.099  19.309  0.00  0.00    +0.000 OA
ENDBRANCH   5  12
ENDBRANCH   1  10
BRANCH   2  13
ATOM     13  C   UNL     1       6.764   4.453  14.839  0.00  0.00    +0.000 C 
BRANCH  13  14
ATOM     14  C   UNL     1       6.279   3.986  13.503  0.00  0.00    +0.000 A 
ATOM     15  N   UNL     1       4.978   3.786  13.200  0.00  0.00    +0.000 NA
ATOM     16  C   UNL     1       4.824   3.333  11.924  0.00  0.00    +0.000 A 
ATOM     17  C   UNL     1       6.009   3.166  11.212  0.00  0.00    +0.000 A 
ATOM     18  S   UNL     1       7.286   3.602  12.213  0.00  0.00    +0.000 S 
BRANCH  16  19
ATOM     19  C   UNL     1       3.477   3.050  11.337  0.00  0.00    +0.000 C 
ATOM     20 CL   UNL     1       3.163   4.114   9.943  0.00  0.00    +0.000 Cl
ENDBRANCH  16  19
ENDBRANCH  13  14
ENDBRANCH   2  13
TORSDOF 5
ENDMDL
MODEL 8
REMARK VINA RESULT:      -6.2      2.812      4.578
REMARK  Name = 
REMARK  6 active torsions:
REMARK  status: ('A' for Active; 'I' for Inactive)
REMARK    1  A    between atoms: C_1  and  O_2
REMARK    2  A    between atoms: O_2  and  C_3
REMARK    3  A    between atoms: C_8  and  N_9
REMARK    4  A    between atoms: C_10  and  C_12
REMARK    5  A    between atoms: C_12  and  C_13
REMARK    6  A    between atoms: C_15  and  C_16
REMARK                            x       y       z     vdW  Elec       q    Type
REMARK                         _______ _______ _______ _____ _____    ______ ____
ROOT
ATOM      1  N   UNL     1       2.708   6.380  20.033  0.00  0.00    +0.000 N 
ATOM      2  C   UNL     1       2.232   5.106  20.239  0.00  0.00    +0.000 C 
ATOM      3  O   UNL     1       1.069   4.895  20.535  0.00  0.00    +0.000 OA
ATOM      4  H   UNL     1       3.717   6.461  19.837  0.00  0.00    +0.000 HD
ENDROOT
BRANCH   1  10
ATOM      5  C   UNL     1       1.757   8.409  18.954  0.00  0.00    +0.000 A 
ATOM      6  C   UNL     1       1.051   9.631  19.053  0.00  0.00    +0.000 A 
ATOM      7  C   UNL     1       0.526  10.058  20.266  0.00  0.00    +0.000 A 
ATOM      8  C   UNL     1       0.680   9.277  21.400  0.00  0.00    +0.000 A 
ATOM      9  C   UNL     1       1.379   8.074  21.338  0.00  0.00    +0.000 A 
ATOM     10  C   UNL     1       1.950   7.611  20.123  0.00  0.00    +0.000 A 
BRANCH   5  12
ATOM     11  C   UNL     1       3.581   7.688  17.505  0.00  0.00    +0.000 C 
ATOM     12  O   UNL     1       2.252   7.992  17.755  0.00  0.00    +0.000 OA
ENDBRANCH   5  12
ENDBRANCH   1  10
BRANCH   2  13
ATOM     13  C   UNL     1       3.145   3.909  20.164  0.00  0.00    +0.000 C 
BRANCH  13  14
ATOM     14  C   UNL     1       4.163   4.045  19.076  0.00  0.00    +0.000 A 
ATOM     15  N   UNL     1       5.420   4.500  19.270  0.00  0.00    +0.000 NA
ATOM     16  C   UNL     1       6.122   4.548  18.102  0.00  0.00    +0.000 A 
ATOM     17  C   UNL     1       5.417   4.135  16.975  0.00  0.00    +0.000 A 
ATOM     18  S   UNL     1       3.869   3.695  17.458  0.00  0.00    +0.000 S 
BRANCH  16  19
ATOM     19  C   UNL     1       7.547   5.002  18.049  0.00  0.00    +0.000 C 
ATOM     20 CL   UNL     1       7.635   6.774  17.889  0.00  0.00    +0.000 Cl
ENDBRANCH  16  19
ENDBRANCH  13  14
ENDBRANCH   2  13
TORSDOF 5
ENDMDL
MODEL 9
REMARK VINA RESULT:      -6.2      3.230      3.804
REMARK  Name = 
REMARK  6 active torsions:
REMARK  status: ('A' for Active; 'I' for Inactive)
REMARK    1  A    between atoms: C_1  and  O_2
REMARK    2  A    between atoms: O_2  and  C_3
REMARK    3  A    between atoms: C_8  and  N_9
REMARK    4  A    between atoms: C_10  and  C_12
REMARK    5  A    between atoms: C_12  and  C_13
REMARK    6  A    between atoms: C_15  and  C_16
REMARK                            x       y       z     vdW  Elec       q    Type
REMARK                         _______ _______ _______ _____ _____    ______ ____
ROOT
ATOM      1  N   UNL     1       4.052   4.178  18.021  0.00  0.00    +0.000 N 
ATOM      2  C   UNL     1       5.330   4.038  18.508  0.00  0.00    +0.000 C 
ATOM      3  O   UNL     1       5.550   3.574  19.613  0.00  0.00    +0.000 OA
ATOM      4  H   UNL     1       3.965   4.628  17.098  0.00  0.00    +0.000 HD
ENDROOT
BRANCH   1  10
ATOM      5  C   UNL     1       2.266   4.692  19.674  0.00  0.00    +0.000 A 
ATOM      6  C   UNL     1       1.090   4.313  20.363  0.00  0.00    +0.000 A 
ATOM      7  C   UNL     1       0.458   3.106  20.091  0.00  0.00    +0.000 A 
ATOM      8  C   UNL     1       0.972   2.258  19.123  0.00  0.00    +0.000 A 
ATOM      9  C   UNL     1       2.135   2.598  18.435  0.00  0.00    +0.000 A 
ATOM     10  C   UNL     1       2.824   3.811  18.698  0.00  0.00    +0.000 A 
BRANCH   5  12
ATOM     11  C   UNL     1       2.324   7.129  19.654  0.00  0.00    +0.000 C 
ATOM     12  O   UNL     1       2.867   5.886  19.938  0.00  0.00    +0.000 OA
ENDBRANCH   5  12
ENDBRANCH   1  10
BRANCH   2  13
ATOM     13  C   UNL     1       6.523   4.511  17.717  0.00  0.00    +0.000 C 
BRANCH  13  14
ATOM     14  C   UNL     1       6.200   4.699  16.269  0.00  0.00    +0.000 A 
ATOM     15  N   UNL     1       6.467   3.784  15.311  0.00  0.00    +0.000 NA
ATOM     16  C   UNL     1       6.094   4.226  14.076  0.00  0.00    +0.000 A 
ATOM     17  C   UNL     1       5.535   5.502  14.053  0.00  0.00    +0.000 A 
ATOM     18  S   UNL     1       5.505   6.088  15.627  0.00  0.00    +0.000 S 
BRANCH  16  19
ATOM     19  C   UNL     1       6.268   3.393  12.846  0.00  0.00    +0.000 C 
ATOM     20 CL   UNL     1       4.765   3.366  11.889  0.00  0.00    +0.000 Cl
ENDBRANCH  16  19
ENDBRANCH  13  14
ENDBRANCH   2  13
TORSDOF 5
ENDMDL
