MODEL 1
REMARK VINA RESULT:      -6.1      0.000      0.000
REMARK  Name = 
REMARK  6 active torsions:
REMARK  status: ('A' for Active; 'I' for Inactive)
REMARK    1  A    between atoms: C_2  and  C_3
REMARK    2  A    between atoms: C_3  and  N_4
REMARK    3  A    between atoms: C_7  and  C_8
REMARK    4  A    between atoms: C_8  and  O_10
REMARK    5  A    between atoms: C_11  and  N_12
REMARK    6  A    between atoms: C_13  and  C_15
REMARK                            x       y       z     vdW  Elec       q    Type
REMARK                         _______ _______ _______ _____ _____    ______ ____
ROOT
ATOM      1  N   UNL     1       7.084   5.797  17.740  0.00  0.00    +0.000 N 
ATOM      2  C   UNL     1       6.514   5.324  18.898  0.00  0.00    +0.000 A 
ATOM      3  O   UNL     1       6.909   5.649  20.022  0.00  0.00    +0.000 OA
ATOM      4  C   UNL     1       5.293   4.475  18.798  0.00  0.00    +0.000 A 
ATOM      5  C   UNL     1       5.000   3.875  17.621  0.00  0.00    +0.000 A 
ATOM      6  C   UNL     1       5.785   4.249  16.411  0.00  0.00    +0.000 A 
ATOM      7  C   UNL     1       5.588   3.641  15.161  0.00  0.00    +0.000 A 
ATOM      8  C   UNL     1       6.282   4.088  14.042  0.00  0.00    +0.000 A 
ATOM      9  C   UNL     1       7.164   5.135  14.204  0.00  0.00    +0.000 A 
ATOM     10  N   UNL     1       7.408   5.720  15.391  0.00  0.00    +0.000 NA
ATOM     11  C   UNL     1       6.744   5.262  16.482  0.00  0.00    +0.000 A 
ENDROOT
BRANCH   5  12
ATOM     12  N   UNL     1       3.924   3.019  17.422  0.00  0.00    +0.000 N 
ATOM     13  C   UNL     1       2.599   3.452  17.439  0.00  0.00    +0.000 C 
ATOM     14  O   UNL     1       2.263   4.628  17.548  0.00  0.00    +0.000 OA
ATOM     15  H   UNL     1       4.022   2.054  17.724  0.00  0.00    +0.000 HD
BRANCH  13  16
ATOM     16  C   UNL     1       1.568   2.332  17.328  0.00  0.00    +0.000 C 
ATOM     17 CL   UNL     1       0.580   2.229  18.814  0.00  0.00    +0.000 Cl
ENDBRANCH  13  16
ENDBRANCH   5  12
BRANCH   4  18
ATOM     18  C   UNL     1       4.335   4.477  19.952  0.00  0.00    +0.000 C 
ATOM     19  O   UNL     1       3.978   3.479  20.566  0.00  0.00    +0.000 OA
BRANCH  18  20
ATOM     20  O   UNL     1       3.724   5.661  20.172  0.00  0.00    +0.000 OA
ATOM     21  H   UNL     1       2.985   5.875  19.551  0.00  0.00    +0.000 HD
ENDBRANCH  18  20
ENDBRANCH   4  18
BRANCH   1  22
ATOM     22  C   UNL     1       8.133   6.807  17.832  0.00  0.00    +0.000 C 
BRANCH  22  24
ATOM     23  C   UNL     1       8.181   9.323  17.899  0.00  0.00    +0.000 C 
ATOM     24  C   UNL     1       7.521   8.175  17.686  0.00  0.00    +0.000 C 
ENDBRANCH  22  24
ENDBRANCH   1  22
TORSDOF 6
ENDMDL
MODEL 2
REMARK VINA RESULT:      -5.9      3.495      6.209
REMARK  Name = 
REMARK  6 active torsions:
REMARK  status: ('A' for Active; 'I' for Inactive)
REMARK    1  A    between atoms: C_2  and  C_3
REMARK    2  A    between atoms: C_3  and  N_4
REMARK    3  A    between atoms: C_7  and  C_8
REMARK    4  A    between atoms: C_8  and  O_10
REMARK    5  A    between atoms: C_11  and  N_12
REMARK    6  A    between atoms: C_13  and  C_15
REMARK                            x       y       z     vdW  Elec       q    Type
REMARK                         _______ _______ _______ _____ _____    ______ ____
ROOT
ATOM      1  N   UNL     1       3.221   4.131  17.464  0.00  0.00    +0.000 N 
ATOM      2  C   UNL     1       4.487   3.667  17.202  0.00  0.00    +0.000 A 
ATOM      3  O   UNL     1       4.770   2.465  17.175  0.00  0.00    +0.000 OA
ATOM      4  C   UNL     1       5.542   4.648  16.820  0.00  0.00    +0.000 A 
ATOM      5  C   UNL     1       5.362   5.959  17.107  0.00  0.00    +0.000 A 
ATOM      6  C   UNL     1       4.030   6.406  17.602  0.00  0.00    +0.000 A 
ATOM      7  C   UNL     1       3.767   7.734  17.975  0.00  0.00    +0.000 A 
ATOM      8  C   UNL     1       2.483   8.121  18.344  0.00  0.00    +0.000 A 
ATOM      9  C   UNL     1       1.491   7.165  18.335  0.00  0.00    +0.000 A 
ATOM     10  N   UNL     1       1.711   5.875  18.020  0.00  0.00    +0.000 NA
ATOM     11  C   UNL     1       2.969   5.500  17.683  0.00  0.00    +0.000 A 
ENDROOT
BRANCH   5  12
ATOM     12  N   UNL     1       6.295   6.955  16.850  0.00  0.00    +0.000 N 
ATOM     13  C   UNL     1       7.347   7.250  17.718  0.00  0.00    +0.000 C 
ATOM     14  O   UNL     1       7.595   6.610  18.736  0.00  0.00    +0.000 OA
ATOM     15  H   UNL     1       5.990   7.766  16.319  0.00  0.00    +0.000 HD
BRANCH  13  16
ATOM     16  C   UNL     1       8.178   8.463  17.312  0.00  0.00    +0.000 C 
ATOM     17 CL   UNL     1       8.775   9.335  18.753  0.00  0.00    +0.000 Cl
ENDBRANCH  13  16
ENDBRANCH   5  12
BRANCH   4  18
ATOM     18  C   UNL     1       6.674   4.169  15.959  0.00  0.00    +0.000 C 
ATOM     19  O   UNL     1       7.851   4.467  16.123  0.00  0.00    +0.000 OA
BRANCH  18  20
ATOM     20  O   UNL     1       6.291   3.512  14.845  0.00  0.00    +0.000 OA
ATOM     21  H   UNL     1       6.769   3.770  14.018  0.00  0.00    +0.000 HD
ENDBRANCH  18  20
ENDBRANCH   4  18
BRANCH   1  22
ATOM     22  C   UNL     1       2.135   3.169  17.614  0.00  0.00    +0.000 C 
BRANCH  22  24
ATOM     23  C   UNL     1       1.077   2.915  19.885  0.00  0.00    +0.000 C 
ATOM     24  C   UNL     1       2.092   2.685  19.040  0.00  0.00    +0.000 C 
ENDBRANCH  22  24
ENDBRANCH   1  22
TORSDOF 6
ENDMDL
MODEL 3
REMARK VINA RESULT:      -5.9     11.189     12.679
REMARK  Name = 
REMARK  6 active torsions:
REMARK  status: ('A' for Active; 'I' for Inactive)
REMARK    1  A    between atoms: C_2  and  C_3
REMARK    2  A    between atoms: C_3  and  N_4
REMARK    3  A    between atoms: C_7  and  C_8
REMARK    4  A    between atoms: C_8  and  O_10
REMARK    5  A    between atoms: C_11  and  N_12
REMARK    6  A    between atoms: C_13  and  C_15
REMARK                            x       y       z     vdW  Elec       q    Type
REMARK                         _______ _______ _______ _____ _____    ______ ____
ROOT
ATOM      1  N   UNL     1      -1.985  12.034  21.896  0.00  0.00    +0.000 N 
ATOM      2  C   UNL     1      -1.634  12.116  20.570  0.00  0.00    +0.000 A 
ATOM      3  O   UNL     1      -0.471  11.994  20.174  0.00  0.00    +0.000 OA
ATOM      4  C   UNL     1      -2.716  12.239  19.552  0.00  0.00    +0.000 A 
ATOM      5  C   UNL     1      -3.945  12.652  19.940  0.00  0.00    +0.000 A 
ATOM      6  C   UNL     1      -4.235  12.766  21.397  0.00  0.00    +0.000 A 
ATOM      7  C   UNL     1      -5.462  13.237  21.891  0.00  0.00    +0.000 A 
ATOM      8  C   UNL     1      -5.717  13.239  23.258  0.00  0.00    +0.000 A 
ATOM      9  C   UNL     1      -4.732  12.773  24.101  0.00  0.00    +0.000 A 
ATOM     10  N   UNL     1      -3.529  12.348  23.669  0.00  0.00    +0.000 NA
ATOM     11  C   UNL     1      -3.280  12.371  22.337  0.00  0.00    +0.000 A 
ENDROOT
BRANCH   5  12
ATOM     12  N   UNL     1      -5.014  12.858  19.077  0.00  0.00    +0.000 N 
ATOM     13  C   UNL     1      -5.948  11.866  18.777  0.00  0.00    +0.000 C 
ATOM     14  O   UNL     1      -5.962  10.757  19.304  0.00  0.00    +0.000 OA
ATOM     15  H   UNL     1      -4.889  13.517  18.314  0.00  0.00    +0.000 HD
BRANCH  13  16
ATOM     16  C   UNL     1      -6.964  12.258  17.710  0.00  0.00    +0.000 C 
ATOM     17 CL   UNL     1      -6.681  13.930  17.147  0.00  0.00    +0.000 Cl
ENDBRANCH  13  16
ENDBRANCH   5  12
BRANCH   4  18
ATOM     18  C   UNL     1      -2.450  11.714  18.171  0.00  0.00    +0.000 C 
ATOM     19  O   UNL     1      -2.891  10.662  17.728  0.00  0.00    +0.000 OA
BRANCH  18  20
ATOM     20  O   UNL     1      -1.517  12.402  17.480  0.00  0.00    +0.000 OA
ATOM     21  H   UNL     1      -1.165  13.207  17.934  0.00  0.00    +0.000 HD
ENDBRANCH  18  20
ENDBRANCH   4  18
BRANCH   1  22
ATOM     22  C   UNL     1      -0.961  11.687  22.875  0.00  0.00    +0.000 C 
BRANCH  22  24
ATOM     23  C   UNL     1      -0.223   9.312  22.479  0.00  0.00    +0.000 C 
ATOM     24  C   UNL     1      -0.993  10.201  23.123  0.00  0.00    +0.000 C 
ENDBRANCH  22  24
ENDBRANCH   1  22
TORSDOF 6
ENDMDL
MODEL 4
REMARK VINA RESULT:      -5.8      3.861      5.805
REMARK  Name = 
REMARK  6 active torsions:
REMARK  status: ('A' for Active; 'I' for Inactive)
REMARK    1  A    between atoms: C_2  and  C_3
REMARK    2  A    between atoms: C_3  and  N_4
REMARK    3  A    between atoms: C_7  and  C_8
REMARK    4  A    between atoms: C_8  and  O_10
REMARK    5  A    between atoms: C_11  and  N_12
REMARK    6  A    between atoms: C_13  and  C_15
REMARK                            x       y       z     vdW  Elec       q    Type
REMARK                         _______ _______ _______ _____ _____    ______ ____
ROOT
ATOM      1  N   UNL     1       4.209   5.273  18.367  0.00  0.00    +0.000 N 
ATOM      2  C   UNL     1       3.957   6.599  18.112  0.00  0.00    +0.000 A 
ATOM      3  O   UNL     1       4.656   7.283  17.359  0.00  0.00    +0.000 OA
ATOM      4  C   UNL     1       2.720   7.211  18.676  0.00  0.00    +0.000 A 
ATOM      5  C   UNL     1       2.093   6.602  19.710  0.00  0.00    +0.000 A 
ATOM      6  C   UNL     1       2.534   5.237  20.111  0.00  0.00    +0.000 A 
ATOM      7  C   UNL     1       1.980   4.552  21.204  0.00  0.00    +0.000 A 
ATOM      8  C   UNL     1       2.362   3.244  21.483  0.00  0.00    +0.000 A 
ATOM      9  C   UNL     1       3.297   2.654  20.661  0.00  0.00    +0.000 A 
ATOM     10  N   UNL     1       3.880   3.290  19.627  0.00  0.00    +0.000 NA
ATOM     11  C   UNL     1       3.519   4.572  19.376  0.00  0.00    +0.000 A 
ENDROOT
BRANCH   5  12
ATOM     12  N   UNL     1       0.969   7.104  20.352  0.00  0.00    +0.000 N 
ATOM     13  C   UNL     1       1.021   8.170  21.250  0.00  0.00    +0.000 C 
ATOM     14  O   UNL     1       2.039   8.813  21.491  0.00  0.00    +0.000 OA
ATOM     15  H   UNL     1       0.212   6.458  20.560  0.00  0.00    +0.000 HD
BRANCH  13  16
ATOM     16  C   UNL     1      -0.303   8.479  21.941  0.00  0.00    +0.000 C 
ATOM     17 CL   UNL     1      -0.044   9.499  23.385  0.00  0.00    +0.000 Cl
ENDBRANCH  13  16
ENDBRANCH   5  12
BRANCH   4  18
ATOM     18  C   UNL     1       2.112   8.374  17.948  0.00  0.00    +0.000 C 
ATOM     19  O   UNL     1       0.979   8.392  17.484  0.00  0.00    +0.000 OA
BRANCH  18  20
ATOM     20  O   UNL     1       2.976   9.371  17.664  0.00  0.00    +0.000 OA
ATOM     21  H   UNL     1       3.413   9.786  18.447  0.00  0.00    +0.000 HD
ENDBRANCH  18  20
ENDBRANCH   4  18
BRANCH   1  22
ATOM     22  C   UNL     1       5.286   4.608  17.640  0.00  0.00    +0.000 C 
BRANCH  22  24
ATOM     23  C   UNL     1       5.595   4.174  15.179  0.00  0.00    +0.000 C 
ATOM     24  C   UNL     1       4.804   4.245  16.260  0.00  0.00    +0.000 C 
ENDBRANCH  22  24
ENDBRANCH   1  22
TORSDOF 6
ENDMDL
MODEL 5
REMARK VINA RESULT:      -5.7      2.816      3.730
REMARK  Name = 
REMARK  6 active torsions:
REMARK  status: ('A' for Active; 'I' for Inactive)
REMARK    1  A    between atoms: C_2  and  C_3
REMARK    2  A    between atoms: C_3  and  N_4
REMARK    3  A    between atoms: C_7  and  C_8
REMARK    4  A    between atoms: C_8  and  O_10
REMARK    5  A    between atoms: C_11  and  N_12
REMARK    6  A    between atoms: C_13  and  C_15
REMARK                            x       y       z     vdW  Elec       q    Type
REMARK                         _______ _______ _______ _____ _____    ______ ____
ROOT
ATOM      1  N   UNL     1       5.090   5.998  16.968  0.00  0.00    +0.000 N 
ATOM      2  C   UNL     1       5.072   4.624  16.966  0.00  0.00    +0.000 A 
ATOM      3  O   UNL     1       5.937   3.942  16.408  0.00  0.00    +0.000 OA
ATOM      4  C   UNL     1       4.030   3.923  17.769  0.00  0.00    +0.000 A 
ATOM      5  C   UNL     1       2.923   4.600  18.152  0.00  0.00    +0.000 A 
ATOM      6  C   UNL     1       2.877   6.075  17.942  0.00  0.00    +0.000 A 
ATOM      7  C   UNL     1       1.751   6.851  18.258  0.00  0.00    +0.000 A 
ATOM      8  C   UNL     1       1.790   8.236  18.128  0.00  0.00    +0.000 A 
ATOM      9  C   UNL     1       2.959   8.810  17.680  0.00  0.00    +0.000 A 
ATOM     10  N   UNL     1       4.047   8.098  17.331  0.00  0.00    +0.000 NA
ATOM     11  C   UNL     1       3.993   6.748  17.438  0.00  0.00    +0.000 A 
ENDROOT
BRANCH   5  12
ATOM     12  N   UNL     1       1.862   4.041  18.853  0.00  0.00    +0.000 N 
ATOM     13  C   UNL     1       1.900   3.810  20.228  0.00  0.00    +0.000 C 
ATOM     14  O   UNL     1       2.830   4.150  20.954  0.00  0.00    +0.000 OA
ATOM     15  H   UNL     1       1.265   3.380  18.364  0.00  0.00    +0.000 HD
BRANCH  13  16
ATOM     16  C   UNL     1       0.684   3.070  20.777  0.00  0.00    +0.000 C 
ATOM     17 CL   UNL     1       1.083   2.241  22.308  0.00  0.00    +0.000 Cl
ENDBRANCH  13  16
ENDBRANCH   5  12
BRANCH   4  18
ATOM     18  C   UNL     1       4.342   2.549  18.285  0.00  0.00    +0.000 C 
ATOM     19  O   UNL     1       3.778   1.523  17.926  0.00  0.00    +0.000 OA
BRANCH  18  20
ATOM     20  O   UNL     1       5.186   2.524  19.338  0.00  0.00    +0.000 OA
ATOM     21  H   UNL     1       5.013   1.810  20.000  0.00  0.00    +0.000 HD
ENDBRANCH  18  20
ENDBRANCH   4  18
BRANCH   1  22
ATOM     22  C   UNL     1       6.231   6.689  16.377  0.00  0.00    +0.000 C 
BRANCH  22  24
ATOM     23  C   UNL     1       7.863   8.107  17.667  0.00  0.00    +0.000 C 
ATOM     24  C   UNL     1       7.274   6.925  17.438  0.00  0.00    +0.000 C 
ENDBRANCH  22  24
ENDBRANCH   1  22
TORSDOF 6
ENDMDL
MODEL 6
REMARK VINA RESULT:      -5.7      3.531      6.093
REMARK  Name = 
REMARK  6 active torsions:
REMARK  status: ('A' for Active; 'I' for Inactive)
REMARK    1  A    between atoms: C_2  and  C_3
REMARK    2  A    between atoms: C_3  and  N_4
REMARK    3  A    between atoms: C_7  and  C_8
REMARK    4  A    between atoms: C_8  and  O_10
REMARK    5  A    between atoms: C_11  and  N_12
REMARK    6  A    between atoms: C_13  and  C_15
REMARK                            x       y       z     vdW  Elec       q    Type
REMARK                         _______ _______ _______ _____ _____    ______ ____
ROOT
ATOM      1  N   UNL     1       3.728   4.376  18.220  0.00  0.00    +0.000 N 
ATOM      2  C   UNL     1       5.064   4.064  18.282  0.00  0.00    +0.000 A 
ATOM      3  O   UNL     1       5.480   2.961  18.649  0.00  0.00    +0.000 OA
ATOM      4  C   UNL     1       6.053   5.057  17.775  0.00  0.00    +0.000 A 
ATOM      5  C   UNL     1       5.680   6.351  17.634  0.00  0.00    +0.000 A 
ATOM      6  C   UNL     1       4.240   6.701  17.789  0.00  0.00    +0.000 A 
ATOM      7  C   UNL     1       3.768   8.021  17.714  0.00  0.00    +0.000 A 
ATOM      8  C   UNL     1       2.404   8.286  17.774  0.00  0.00    +0.000 A 
ATOM      9  C   UNL     1       1.543   7.220  17.912  0.00  0.00    +0.000 A 
ATOM     10  N   UNL     1       1.958   5.944  18.025  0.00  0.00    +0.000 NA
ATOM     11  C   UNL     1       3.290   5.696  17.989  0.00  0.00    +0.000 A 
ENDROOT
BRANCH   5  12
ATOM     12  N   UNL     1       6.526   7.373  17.225  0.00  0.00    +0.000 N 
ATOM     13  C   UNL     1       7.688   7.717  17.915  0.00  0.00    +0.000 C 
ATOM     14  O   UNL     1       8.113   7.103  18.890  0.00  0.00    +0.000 OA
ATOM     15  H   UNL     1       6.114   8.165  16.739  0.00  0.00    +0.000 HD
BRANCH  13  16
ATOM     16  C   UNL     1       8.403   8.951  17.372  0.00  0.00    +0.000 C 
ATOM     17 CL   UNL     1       9.001   9.978  18.706  0.00  0.00    +0.000 Cl
ENDBRANCH  13  16
ENDBRANCH   5  12
BRANCH   4  18
ATOM     18  C   UNL     1       7.365   4.546  17.256  0.00  0.00    +0.000 C 
ATOM     19  O   UNL     1       7.654   4.438  16.071  0.00  0.00    +0.000 OA
BRANCH  18  20
ATOM     20  O   UNL     1       8.175   4.021  18.200  0.00  0.00    +0.000 OA
ATOM     21  H   UNL     1       8.970   4.565  18.423  0.00  0.00    +0.000 HD
ENDBRANCH  18  20
ENDBRANCH   4  18
BRANCH   1  22
ATOM     22  C   UNL     1       2.747   3.333  18.498  0.00  0.00    +0.000 C 
BRANCH  22  24
ATOM     23  C   UNL     1       1.440   3.613  20.632  0.00  0.00    +0.000 C 
ATOM     24  C   UNL     1       2.548   3.221  19.987  0.00  0.00    +0.000 C 
ENDBRANCH  22  24
ENDBRANCH   1  22
TORSDOF 6
ENDMDL
MODEL 7
REMARK VINA RESULT:      -5.7      9.089     10.360
REMARK  Name = 
REMARK  6 active torsions:
REMARK  status: ('A' for Active; 'I' for Inactive)
REMARK    1  A    between atoms: C_2  and  C_3
REMARK    2  A    between atoms: C_3  and  N_4
REMARK    3  A    between atoms: C_7  and  C_8
REMARK    4  A    between atoms: C_8  and  O_10
REMARK    5  A    between atoms: C_11  and  N_12
REMARK    6  A    between atoms: C_13  and  C_15
REMARK                            x       y       z     vdW  Elec       q    Type
REMARK                         _______ _______ _______ _____ _____    ______ ____
ROOT
ATOM      1  N   UNL     1      -2.878  12.322  19.687  0.00  0.00    +0.000 N 
ATOM      2  C   UNL     1      -1.721  12.360  20.428  0.00  0.00    +0.000 A 
ATOM      3  O   UNL     1      -1.536  13.168  21.343  0.00  0.00    +0.000 OA
ATOM      4  C   UNL     1      -0.691  11.308  20.196  0.00  0.00    +0.000 A 
ATOM      5  C   UNL     1      -0.719  10.596  19.045  0.00  0.00    +0.000 A 
ATOM      6  C   UNL     1      -1.897  10.739  18.144  0.00  0.00    +0.000 A 
ATOM      7  C   UNL     1      -1.988  10.083  16.906  0.00  0.00    +0.000 A 
ATOM      8  C   UNL     1      -3.147  10.177  16.143  0.00  0.00    +0.000 A 
ATOM      9  C   UNL     1      -4.188  10.931  16.637  0.00  0.00    +0.000 A 
ATOM     10  N   UNL     1      -4.126  11.605  17.801  0.00  0.00    +0.000 NA
ATOM     11  C   UNL     1      -2.984  11.528  18.528  0.00  0.00    +0.000 A 
ENDROOT
BRANCH   5  12
ATOM     12  N   UNL     1       0.217   9.632  18.694  0.00  0.00    +0.000 N 
ATOM     13  C   UNL     1       1.485   9.948  18.207  0.00  0.00    +0.000 C 
ATOM     14  O   UNL     1       1.920  11.093  18.121  0.00  0.00    +0.000 OA
ATOM     15  H   UNL     1      -0.126   8.744  18.338  0.00  0.00    +0.000 HD
BRANCH  13  16
ATOM     16  C   UNL     1       2.307   8.744  17.760  0.00  0.00    +0.000 C 
ATOM     17 CL   UNL     1       2.275   7.457  19.000  0.00  0.00    +0.000 Cl
ENDBRANCH  13  16
ENDBRANCH   5  12
BRANCH   4  18
ATOM     18  C   UNL     1       0.219  10.948  21.334  0.00  0.00    +0.000 C 
ATOM     19  O   UNL     1       0.047  10.002  22.093  0.00  0.00    +0.000 OA
BRANCH  18  20
ATOM     20  O   UNL     1       1.175  11.863  21.599  0.00  0.00    +0.000 OA
ATOM     21  H   UNL     1       0.916  12.803  21.435  0.00  0.00    +0.000 HD
ENDBRANCH  18  20
ENDBRANCH   4  18
BRANCH   1  22
ATOM     22  C   UNL     1      -3.981  13.201  20.059  0.00  0.00    +0.000 C 
BRANCH  22  24
ATOM     23  C   UNL     1      -6.154  12.376  21.027  0.00  0.00    +0.000 C 
ATOM     24  C   UNL     1      -4.824  12.526  21.108  0.00  0.00    +0.000 C 
ENDBRANCH  22  24
ENDBRANCH   1  22
TORSDOF 6
ENDMDL
MODEL 8
REMARK VINA RESULT:      -5.7      3.314      3.927
REMARK  Name = 
REMARK  6 active torsions:
REMARK  status: ('A' for Active; 'I' for Inactive)
REMARK    1  A    between atoms: C_2  and  C_3
REMARK    2  A    between atoms: C_3  and  N_4
REMARK    3  A    between atoms: C_7  and  C_8
REMARK    4  A    between atoms: C_8  and  O_10
REMARK    5  A    between atoms: C_11  and  N_12
REMARK    6  A    between atoms: C_13  and  C_15
REMARK                            x       y       z     vdW  Elec       q    Type
REMARK                         _______ _______ _______ _____ _____    ______ ____
ROOT
ATOM      1  N   UNL     1       2.921   7.471  18.392  0.00  0.00    +0.000 N 
ATOM      2  C   UNL     1       2.555   6.902  19.588  0.00  0.00    +0.000 A 
ATOM      3  O   UNL     1       1.951   7.521  20.469  0.00  0.00    +0.000 OA
ATOM      4  C   UNL     1       2.790   5.443  19.785  0.00  0.00    +0.000 A 
ATOM      5  C   UNL     1       3.678   4.802  18.990  0.00  0.00    +0.000 A 
ATOM      6  C   UNL     1       4.233   5.524  17.811  0.00  0.00    +0.000 A 
ATOM      7  C   UNL     1       5.199   4.960  16.963  0.00  0.00    +0.000 A 
ATOM      8  C   UNL     1       5.619   5.638  15.823  0.00  0.00    +0.000 A 
ATOM      9  C   UNL     1       5.063   6.871  15.562  0.00  0.00    +0.000 A 
ATOM     10  N   UNL     1       4.162   7.462  16.370  0.00  0.00    +0.000 NA
ATOM     11  C   UNL     1       3.776   6.805  17.491  0.00  0.00    +0.000 A 
ENDROOT
BRANCH   5  12
ATOM     12  N   UNL     1       4.021   3.463  19.115  0.00  0.00    +0.000 N 
ATOM     13  C   UNL     1       3.324   2.439  18.473  0.00  0.00    +0.000 C 
ATOM     14  O   UNL     1       2.404   2.628  17.681  0.00  0.00    +0.000 OA
ATOM     15  H   UNL     1       4.440   3.159  19.989  0.00  0.00    +0.000 HD
BRANCH  13  16
ATOM     16  C   UNL     1       3.782   1.033  18.846  0.00  0.00    +0.000 C 
ATOM     17 CL   UNL     1       4.957   1.084  20.192  0.00  0.00    +0.000 Cl
ENDBRANCH  13  16
ENDBRANCH   5  12
BRANCH   4  18
ATOM     18  C   UNL     1       1.889   4.704  20.731  0.00  0.00    +0.000 C 
ATOM     19  O   UNL     1       2.273   4.017  21.668  0.00  0.00    +0.000 OA
BRANCH  18  20
ATOM     20  O   UNL     1       0.588   4.691  20.370  0.00  0.00    +0.000 OA
ATOM     21  H   UNL     1       0.421   4.663  19.396  0.00  0.00    +0.000 HD
ENDBRANCH  18  20
ENDBRANCH   4  18
BRANCH   1  22
ATOM     22  C   UNL     1       2.493   8.835  18.100  0.00  0.00    +0.000 C 
BRANCH  22  24
ATOM     23  C   UNL     1       0.127   9.695  18.045  0.00  0.00    +0.000 C 
ATOM     24  C   UNL     1       1.058   8.819  17.642  0.00  0.00    +0.000 C 
ENDBRANCH  22  24
ENDBRANCH   1  22
TORSDOF 6
ENDMDL
MODEL 9
REMARK VINA RESULT:      -5.6      8.535      9.724
REMARK  Name = 
REMARK  6 active torsions:
REMARK  status: ('A' for Active; 'I' for Inactive)
REMARK    1  A    between atoms: C_2  and  C_3
REMARK    2  A    between atoms: C_3  and  N_4
REMARK    3  A    between atoms: C_7  and  C_8
REMARK    4  A    between atoms: C_8  and  O_10
REMARK    5  A    between atoms: C_11  and  N_12
REMARK    6  A    between atoms: C_13  and  C_15
REMARK                            x       y       z     vdW  Elec       q    Type
REMARK                         _______ _______ _______ _____ _____    ______ ____
ROOT
ATOM      1  N   UNL     1      -1.851  12.190  20.677  0.00  0.00    +0.000 N 
ATOM      2  C   UNL     1      -0.757  11.909  21.460  0.00  0.00    +0.000 A 
ATOM      3  O   UNL     1      -0.466  12.561  22.468  0.00  0.00    +0.000 OA
ATOM      4  C   UNL     1       0.049  10.694  21.149  0.00  0.00    +0.000 A 
ATOM      5  C   UNL     1      -0.054  10.127  19.924  0.00  0.00    +0.000 A 
ATOM      6  C   UNL     1      -1.122  10.606  19.002  0.00  0.00    +0.000 A 
ATOM      7  C   UNL     1      -1.271  10.115  17.695  0.00  0.00    +0.000 A 
ATOM      8  C   UNL     1      -2.339  10.527  16.905  0.00  0.00    +0.000 A 
ATOM      9  C   UNL     1      -3.232  11.427  17.443  0.00  0.00    +0.000 A 
ATOM     10  N   UNL     1      -3.103  11.949  18.677  0.00  0.00    +0.000 NA
ATOM     11  C   UNL     1      -2.047  11.560  19.433  0.00  0.00    +0.000 A 
ENDROOT
BRANCH   5  12
ATOM     12  N   UNL     1       0.685   9.030  19.501  0.00  0.00    +0.000 N 
ATOM     13  C   UNL     1       1.735   9.131  18.588  0.00  0.00    +0.000 C 
ATOM     14  O   UNL     1       2.155  10.195  18.142  0.00  0.00    +0.000 OA
ATOM     15  H   UNL     1       0.216   8.130  19.457  0.00  0.00    +0.000 HD
BRANCH  13  16
ATOM     16  C   UNL     1       2.328   7.792  18.160  0.00  0.00    +0.000 C 
ATOM     17 CL   UNL     1       2.566   6.722  19.571  0.00  0.00    +0.000 Cl
ENDBRANCH  13  16
ENDBRANCH   5  12
BRANCH   4  18
ATOM     18  C   UNL     1       0.797  10.036  22.271  0.00  0.00    +0.000 C 
ATOM     19  O   UNL     1       1.843   9.413  22.143  0.00  0.00    +0.000 OA
BRANCH  18  20
ATOM     20  O   UNL     1       0.136  10.013  23.448  0.00  0.00    +0.000 OA
ATOM     21  H   UNL     1       0.664   9.699  24.222  0.00  0.00    +0.000 HD
ENDBRANCH  18  20
ENDBRANCH   4  18
BRANCH   1  22
ATOM     22  C   UNL     1      -2.772  13.237  21.105  0.00  0.00    +0.000 C 
BRANCH  22  24
ATOM     23  C   UNL     1      -4.181  13.266  23.193  0.00  0.00    +0.000 C 
ATOM     24  C   UNL     1      -3.772  12.656  22.071  0.00  0.00    +0.000 C 
ENDBRANCH  22  24
ENDBRANCH   1  22
TORSDOF 6
ENDMDL
