MODEL 1
REMARK VINA RESULT:      -7.6      0.000      0.000
REMARK  Name = 
REMARK  2 active torsions:
REMARK  status: ('A' for Active; 'I' for Inactive)
REMARK    1  A    between atoms: C_5  and  C_6
REMARK    2  A    between atoms: N_13  and  C_14
REMARK                            x       y       z     vdW  Elec       q    Type
REMARK                         _______ _______ _______ _____ _____    ______ ____
ROOT
ATOM      1  O   UNL     1       5.015   2.098  20.421  0.00  0.00    +0.000 OA
ATOM      2  C   UNL     1       3.964   2.722  20.298  0.00  0.00    +0.000 C 
ATOM      3  C   UNL     1       2.763   2.407  21.158  0.00  0.00    +0.000 C 
ATOM      4  S   UNL     1       1.480   3.605  20.769  0.00  0.00    +0.000 S 
ATOM      5  C   UNL     1       2.334   4.203  19.287  0.00  0.00    +0.000 C 
ATOM      6  N   UNL     1       3.699   3.706  19.345  0.00  0.00    +0.000 N 
ENDROOT
BRANCH   5   7
ATOM      7  C   UNL     1       2.244   5.720  19.159  0.00  0.00    +0.000 A 
ATOM      8  C   UNL     1       2.379   6.376  17.922  0.00  0.00    +0.000 A 
ATOM      9  C   UNL     1       2.233   7.764  17.827  0.00  0.00    +0.000 A 
ATOM     10  C   UNL     1       1.937   8.509  18.964  0.00  0.00    +0.000 A 
ATOM     11 CL   UNL     1       1.726  10.213  18.843  0.00  0.00    +0.000 Cl
ATOM     12  C   UNL     1       1.803   7.884  20.200  0.00  0.00    +0.000 A 
ATOM     13  C   UNL     1       1.963   6.499  20.298  0.00  0.00    +0.000 A 
ENDBRANCH   5   7
BRANCH   6  14
ATOM     14  C   UNL     1       4.647   4.040  18.340  0.00  0.00    +0.000 A 
ATOM     15  C   UNL     1       5.776   4.821  18.641  0.00  0.00    +0.000 A 
ATOM     16  C   UNL     1       6.708   5.138  17.651  0.00  0.00    +0.000 A 
ATOM     17  C   UNL     1       6.529   4.656  16.361  0.00  0.00    +0.000 A 
ATOM     18  F   UNL     1       7.429   4.952  15.416  0.00  0.00    +0.000 F 
ATOM     19  C   UNL     1       5.428   3.874  16.041  0.00  0.00    +0.000 A 
ATOM     20  C   UNL     1       4.479   3.582  17.024  0.00  0.00    +0.000 A 
ENDBRANCH   6  14
TORSDOF 2
ENDMDL
MODEL 2
REMARK VINA RESULT:      -7.6      0.085      1.083
REMARK  Name = 
REMARK  2 active torsions:
REMARK  status: ('A' for Active; 'I' for Inactive)
REMARK    1  A    between atoms: C_5  and  C_6
REMARK    2  A    between atoms: N_13  and  C_14
REMARK                            x       y       z     vdW  Elec       q    Type
REMARK                         _______ _______ _______ _____ _____    ______ ____
ROOT
ATOM      1  O   UNL     1       5.022   2.123  20.454  0.00  0.00    +0.000 OA
ATOM      2  C   UNL     1       3.967   2.741  20.329  0.00  0.00    +0.000 C 
ATOM      3  C   UNL     1       2.765   2.413  21.183  0.00  0.00    +0.000 C 
ATOM      4  S   UNL     1       1.476   3.604  20.795  0.00  0.00    +0.000 S 
ATOM      5  C   UNL     1       2.332   4.215  19.320  0.00  0.00    +0.000 C 
ATOM      6  N   UNL     1       3.699   3.727  19.380  0.00  0.00    +0.000 N 
ENDROOT
BRANCH   5   7
ATOM      7  C   UNL     1       2.231   5.732  19.199  0.00  0.00    +0.000 A 
ATOM      8  C   UNL     1       2.406   6.398  17.972  0.00  0.00    +0.000 A 
ATOM      9  C   UNL     1       2.251   7.785  17.880  0.00  0.00    +0.000 A 
ATOM     10  C   UNL     1       1.905   8.520  19.011  0.00  0.00    +0.000 A 
ATOM     11 CL   UNL     1       1.682  10.222  18.893  0.00  0.00    +0.000 Cl
ATOM     12  C   UNL     1       1.730   7.885  20.236  0.00  0.00    +0.000 A 
ATOM     13  C   UNL     1       1.901   6.501  20.331  0.00  0.00    +0.000 A 
ENDBRANCH   5   7
BRANCH   6  14
ATOM     14  C   UNL     1       4.649   4.072  18.380  0.00  0.00    +0.000 A 
ATOM     15  C   UNL     1       4.513   3.609  17.060  0.00  0.00    +0.000 A 
ATOM     16  C   UNL     1       5.446   3.959  16.083  0.00  0.00    +0.000 A 
ATOM     17  C   UNL     1       6.506   4.793  16.413  0.00  0.00    +0.000 A 
ATOM     18  F   UNL     1       7.393   5.136  15.472  0.00  0.00    +0.000 F 
ATOM     19  C   UNL     1       6.657   5.271  17.707  0.00  0.00    +0.000 A 
ATOM     20  C   UNL     1       5.741   4.896  18.693  0.00  0.00    +0.000 A 
ENDBRANCH   6  14
TORSDOF 2
ENDMDL
MODEL 3
REMARK VINA RESULT:      -7.3      0.123      1.086
REMARK  Name = 
REMARK  2 active torsions:
REMARK  status: ('A' for Active; 'I' for Inactive)
REMARK    1  A    between atoms: C_5  and  C_6
REMARK    2  A    between atoms: N_13  and  C_14
REMARK                            x       y       z     vdW  Elec       q    Type
REMARK                         _______ _______ _______ _____ _____    ______ ____
ROOT
ATOM      1  O   UNL     1       5.063   2.105  20.470  0.00  0.00    +0.000 OA
ATOM      2  C   UNL     1       3.989   2.686  20.335  0.00  0.00    +0.000 C 
ATOM      3  C   UNL     1       2.795   2.326  21.188  0.00  0.00    +0.000 C 
ATOM      4  S   UNL     1       1.468   3.469  20.783  0.00  0.00    +0.000 S 
ATOM      5  C   UNL     1       2.309   4.095  19.305  0.00  0.00    +0.000 C 
ATOM      6  N   UNL     1       3.692   3.653  19.375  0.00  0.00    +0.000 N 
ENDROOT
BRANCH   5   7
ATOM      7  C   UNL     1       2.159   5.606  19.169  0.00  0.00    +0.000 A 
ATOM      8  C   UNL     1       1.943   6.440  20.281  0.00  0.00    +0.000 A 
ATOM      9  C   UNL     1       1.866   7.829  20.133  0.00  0.00    +0.000 A 
ATOM     10  C   UNL     1       2.019   8.400  18.873  0.00  0.00    +0.000 A 
ATOM     11 CL   UNL     1       1.956  10.110  18.693  0.00  0.00    +0.000 Cl
ATOM     12  C   UNL     1       2.229   7.596  17.757  0.00  0.00    +0.000 A 
ATOM     13  C   UNL     1       2.290   6.208  17.903  0.00  0.00    +0.000 A 
ENDBRANCH   5   7
BRANCH   6  14
ATOM     14  C   UNL     1       4.634   4.020  18.377  0.00  0.00    +0.000 A 
ATOM     15  C   UNL     1       5.732   4.843  18.683  0.00  0.00    +0.000 A 
ATOM     16  C   UNL     1       6.657   5.193  17.698  0.00  0.00    +0.000 A 
ATOM     17  C   UNL     1       6.505   4.703  16.409  0.00  0.00    +0.000 A 
ATOM     18  F   UNL     1       7.399   5.030  15.468  0.00  0.00    +0.000 F 
ATOM     19  C   UNL     1       5.436   3.880  16.082  0.00  0.00    +0.000 A 
ATOM     20  C   UNL     1       4.491   3.555  17.060  0.00  0.00    +0.000 A 
ENDBRANCH   6  14
TORSDOF 2
ENDMDL
MODEL 4
REMARK VINA RESULT:      -7.3      0.142      1.533
REMARK  Name = 
REMARK  2 active torsions:
REMARK  status: ('A' for Active; 'I' for Inactive)
REMARK    1  A    between atoms: C_5  and  C_6
REMARK    2  A    between atoms: N_13  and  C_14
REMARK                            x       y       z     vdW  Elec       q    Type
REMARK                         _______ _______ _______ _____ _____    ______ ____
ROOT
ATOM      1  O   UNL     1       5.093   2.124  20.456  0.00  0.00    +0.000 OA
ATOM      2  C   UNL     1       4.016   2.699  20.324  0.00  0.00    +0.000 C 
ATOM      3  C   UNL     1       2.826   2.336  21.181  0.00  0.00    +0.000 C 
ATOM      4  S   UNL     1       1.493   3.473  20.778  0.00  0.00    +0.000 S 
ATOM      5  C   UNL     1       2.327   4.099  19.296  0.00  0.00    +0.000 C 
ATOM      6  N   UNL     1       3.711   3.664  19.363  0.00  0.00    +0.000 N 
ENDROOT
BRANCH   5   7
ATOM      7  C   UNL     1       2.168   5.609  19.158  0.00  0.00    +0.000 A 
ATOM      8  C   UNL     1       1.955   6.445  20.269  0.00  0.00    +0.000 A 
ATOM      9  C   UNL     1       1.872   7.833  20.118  0.00  0.00    +0.000 A 
ATOM     10  C   UNL     1       2.015   8.402  18.856  0.00  0.00    +0.000 A 
ATOM     11 CL   UNL     1       1.944  10.111  18.672  0.00  0.00    +0.000 Cl
ATOM     12  C   UNL     1       2.222   7.596  17.741  0.00  0.00    +0.000 A 
ATOM     13  C   UNL     1       2.290   6.208  17.890  0.00  0.00    +0.000 A 
ENDBRANCH   5   7
BRANCH   6  14
ATOM     14  C   UNL     1       4.649   4.033  18.361  0.00  0.00    +0.000 A 
ATOM     15  C   UNL     1       4.524   3.562  17.042  0.00  0.00    +0.000 A 
ATOM     16  C   UNL     1       5.444   3.936  16.062  0.00  0.00    +0.000 A 
ATOM     17  C   UNL     1       6.480   4.802  16.387  0.00  0.00    +0.000 A 
ATOM     18  F   UNL     1       7.355   5.168  15.443  0.00  0.00    +0.000 F 
ATOM     19  C   UNL     1       6.620   5.289  17.679  0.00  0.00    +0.000 A 
ATOM     20  C   UNL     1       5.717   4.890  18.669  0.00  0.00    +0.000 A 
ENDBRANCH   6  14
TORSDOF 2
ENDMDL
MODEL 5
REMARK VINA RESULT:      -7.3      3.008      4.555
REMARK  Name = 
REMARK  2 active torsions:
REMARK  status: ('A' for Active; 'I' for Inactive)
REMARK    1  A    between atoms: C_5  and  C_6
REMARK    2  A    between atoms: N_13  and  C_14
REMARK                            x       y       z     vdW  Elec       q    Type
REMARK                         _______ _______ _______ _____ _____    ______ ____
ROOT
ATOM      1  O   UNL     1       3.819   2.795  16.911  0.00  0.00    +0.000 OA
ATOM      2  C   UNL     1       4.027   3.989  17.111  0.00  0.00    +0.000 C 
ATOM      3  C   UNL     1       4.935   4.785  16.204  0.00  0.00    +0.000 C 
ATOM      4  S   UNL     1       4.885   6.499  16.745  0.00  0.00    +0.000 S 
ATOM      5  C   UNL     1       4.053   6.097  18.304  0.00  0.00    +0.000 C 
ATOM      6  N   UNL     1       3.556   4.736  18.190  0.00  0.00    +0.000 N 
ENDROOT
BRANCH   5   7
ATOM      7  C   UNL     1       2.970   7.116  18.643  0.00  0.00    +0.000 A 
ATOM      8  C   UNL     1       2.418   7.220  19.932  0.00  0.00    +0.000 A 
ATOM      9  C   UNL     1       1.467   8.202  20.229  0.00  0.00    +0.000 A 
ATOM     10  C   UNL     1       1.069   9.100  19.243  0.00  0.00    +0.000 A 
ATOM     11 CL   UNL     1      -0.077  10.329  19.614  0.00  0.00    +0.000 Cl
ATOM     12  C   UNL     1       1.597   9.015  17.959  0.00  0.00    +0.000 A 
ATOM     13  C   UNL     1       2.536   8.023  17.658  0.00  0.00    +0.000 A 
ENDBRANCH   5   7
BRANCH   6  14
ATOM     14  C   UNL     1       2.812   4.134  19.240  0.00  0.00    +0.000 A 
ATOM     15  C   UNL     1       1.418   3.977  19.143  0.00  0.00    +0.000 A 
ATOM     16  C   UNL     1       0.695   3.377  20.176  0.00  0.00    +0.000 A 
ATOM     17  C   UNL     1       1.363   2.909  21.299  0.00  0.00    +0.000 A 
ATOM     18  F   UNL     1       0.670   2.324  22.283  0.00  0.00    +0.000 F 
ATOM     19  C   UNL     1       2.740   3.043  21.415  0.00  0.00    +0.000 A 
ATOM     20  C   UNL     1       3.461   3.671  20.396  0.00  0.00    +0.000 A 
ENDBRANCH   6  14
TORSDOF 2
ENDMDL
MODEL 6
REMARK VINA RESULT:      -7.3      2.980      4.445
REMARK  Name = 
REMARK  2 active torsions:
REMARK  status: ('A' for Active; 'I' for Inactive)
REMARK    1  A    between atoms: C_5  and  C_6
REMARK    2  A    between atoms: N_13  and  C_14
REMARK                            x       y       z     vdW  Elec       q    Type
REMARK                         _______ _______ _______ _____ _____    ______ ____
ROOT
ATOM      1  O   UNL     1       3.878   2.664  16.922  0.00  0.00    +0.000 OA
ATOM      2  C   UNL     1       4.092   3.857  17.120  0.00  0.00    +0.000 C 
ATOM      3  C   UNL     1       5.009   4.646  16.216  0.00  0.00    +0.000 C 
ATOM      4  S   UNL     1       4.966   6.362  16.753  0.00  0.00    +0.000 S 
ATOM      5  C   UNL     1       4.124   5.968  18.308  0.00  0.00    +0.000 C 
ATOM      6  N   UNL     1       3.620   4.610  18.195  0.00  0.00    +0.000 N 
ENDROOT
BRANCH   5   7
ATOM      7  C   UNL     1       3.045   6.994  18.639  0.00  0.00    +0.000 A 
ATOM      8  C   UNL     1       2.487   7.104  19.925  0.00  0.00    +0.000 A 
ATOM      9  C   UNL     1       1.540   8.093  20.214  0.00  0.00    +0.000 A 
ATOM     10  C   UNL     1       1.152   8.991  19.224  0.00  0.00    +0.000 A 
ATOM     11 CL   UNL     1       0.012  10.227  19.586  0.00  0.00    +0.000 Cl
ATOM     12  C   UNL     1       1.687   8.900  17.943  0.00  0.00    +0.000 A 
ATOM     13  C   UNL     1       2.621   7.902  17.650  0.00  0.00    +0.000 A 
ENDBRANCH   5   7
BRANCH   6  14
ATOM     14  C   UNL     1       2.866   4.015  19.243  0.00  0.00    +0.000 A 
ATOM     15  C   UNL     1       3.498   3.510  20.393  0.00  0.00    +0.000 A 
ATOM     16  C   UNL     1       2.750   2.934  21.422  0.00  0.00    +0.000 A 
ATOM     17  C   UNL     1       1.367   2.881  21.318  0.00  0.00    +0.000 A 
ATOM     18  F   UNL     1       0.650   2.339  22.310  0.00  0.00    +0.000 F 
ATOM     19  C   UNL     1       0.718   3.382  20.197  0.00  0.00    +0.000 A 
ATOM     20  C   UNL     1       1.468   3.931  19.153  0.00  0.00    +0.000 A 
ENDBRANCH   6  14
TORSDOF 2
ENDMDL
MODEL 7
REMARK VINA RESULT:      -7.2      1.243      1.678
REMARK  Name = 
REMARK  2 active torsions:
REMARK  status: ('A' for Active; 'I' for Inactive)
REMARK    1  A    between atoms: C_5  and  C_6
REMARK    2  A    between atoms: N_13  and  C_14
REMARK                            x       y       z     vdW  Elec       q    Type
REMARK                         _______ _______ _______ _____ _____    ______ ____
ROOT
ATOM      1  O   UNL     1       5.040   2.468  19.669  0.00  0.00    +0.000 OA
ATOM      2  C   UNL     1       3.967   3.043  19.506  0.00  0.00    +0.000 C 
ATOM      3  C   UNL     1       2.661   2.374  19.863  0.00  0.00    +0.000 C 
ATOM      4  S   UNL     1       1.343   3.569  19.603  0.00  0.00    +0.000 S 
ATOM      5  C   UNL     1       2.413   4.716  18.696  0.00  0.00    +0.000 C 
ATOM      6  N   UNL     1       3.786   4.298  18.923  0.00  0.00    +0.000 N 
ENDROOT
BRANCH   5   7
ATOM      7  C   UNL     1       2.145   6.165  19.088  0.00  0.00    +0.000 A 
ATOM      8  C   UNL     1       2.199   7.215  18.154  0.00  0.00    +0.000 A 
ATOM      9  C   UNL     1       1.892   8.527  18.530  0.00  0.00    +0.000 A 
ATOM     10  C   UNL     1       1.513   8.800  19.841  0.00  0.00    +0.000 A 
ATOM     11 CL   UNL     1       1.103  10.408  20.298  0.00  0.00    +0.000 Cl
ATOM     12  C   UNL     1       1.455   7.780  20.784  0.00  0.00    +0.000 A 
ATOM     13  C   UNL     1       1.778   6.472  20.412  0.00  0.00    +0.000 A 
ENDBRANCH   5   7
BRANCH   6  14
ATOM     14  C   UNL     1       4.878   5.026  18.378  0.00  0.00    +0.000 A 
ATOM     15  C   UNL     1       4.901   5.391  17.021  0.00  0.00    +0.000 A 
ATOM     16  C   UNL     1       5.973   6.113  16.495  0.00  0.00    +0.000 A 
ATOM     17  C   UNL     1       7.016   6.496  17.327  0.00  0.00    +0.000 A 
ATOM     18  F   UNL     1       8.039   7.198  16.823  0.00  0.00    +0.000 F 
ATOM     19  C   UNL     1       7.013   6.157  18.673  0.00  0.00    +0.000 A 
ATOM     20  C   UNL     1       5.955   5.407  19.194  0.00  0.00    +0.000 A 
ENDBRANCH   6  14
TORSDOF 2
ENDMDL
MODEL 8
REMARK VINA RESULT:      -7.1      1.012      1.119
REMARK  Name = 
REMARK  2 active torsions:
REMARK  status: ('A' for Active; 'I' for Inactive)
REMARK    1  A    between atoms: C_5  and  C_6
REMARK    2  A    between atoms: N_13  and  C_14
REMARK                            x       y       z     vdW  Elec       q    Type
REMARK                         _______ _______ _______ _____ _____    ______ ____
ROOT
ATOM      1  O   UNL     1       4.839   2.290  19.849  0.00  0.00    +0.000 OA
ATOM      2  C   UNL     1       3.784   2.897  19.686  0.00  0.00    +0.000 C 
ATOM      3  C   UNL     1       2.463   2.291  20.100  0.00  0.00    +0.000 C 
ATOM      4  S   UNL     1       1.184   3.523  19.819  0.00  0.00    +0.000 S 
ATOM      5  C   UNL     1       2.272   4.591  18.842  0.00  0.00    +0.000 C 
ATOM      6  N   UNL     1       3.634   4.132  19.056  0.00  0.00    +0.000 N 
ENDROOT
BRANCH   5   7
ATOM      7  C   UNL     1       2.065   6.064  19.179  0.00  0.00    +0.000 A 
ATOM      8  C   UNL     1       2.223   7.081  18.219  0.00  0.00    +0.000 A 
ATOM      9  C   UNL     1       1.970   8.418  18.542  0.00  0.00    +0.000 A 
ATOM     10  C   UNL     1       1.543   8.751  19.825  0.00  0.00    +0.000 A 
ATOM     11 CL   UNL     1       1.201  10.392  20.215  0.00  0.00    +0.000 Cl
ATOM     12  C   UNL     1       1.384   7.765  20.792  0.00  0.00    +0.000 A 
ATOM     13  C   UNL     1       1.651   6.430  20.474  0.00  0.00    +0.000 A 
ENDBRANCH   5   7
BRANCH   6  14
ATOM     14  C   UNL     1       4.738   4.797  18.457  0.00  0.00    +0.000 A 
ATOM     15  C   UNL     1       5.738   5.396  19.243  0.00  0.00    +0.000 A 
ATOM     16  C   UNL     1       6.823   6.040  18.647  0.00  0.00    +0.000 A 
ATOM     17  C   UNL     1       6.928   6.069  17.263  0.00  0.00    +0.000 A 
ATOM     18  F   UNL     1       7.976   6.677  16.694  0.00  0.00    +0.000 F 
ATOM     19  C   UNL     1       5.961   5.477  16.464  0.00  0.00    +0.000 A 
ATOM     20  C   UNL     1       4.857   4.858  17.060  0.00  0.00    +0.000 A 
ENDBRANCH   6  14
TORSDOF 2
ENDMDL
MODEL 9
REMARK VINA RESULT:      -7.0      3.021      4.431
REMARK  Name = 
REMARK  2 active torsions:
REMARK  status: ('A' for Active; 'I' for Inactive)
REMARK    1  A    between atoms: C_5  and  C_6
REMARK    2  A    between atoms: N_13  and  C_14
REMARK                            x       y       z     vdW  Elec       q    Type
REMARK                         _______ _______ _______ _____ _____    ______ ____
ROOT
ATOM      1  O   UNL     1       3.858   2.891  16.794  0.00  0.00    +0.000 OA
ATOM      2  C   UNL     1       4.090   4.077  17.016  0.00  0.00    +0.000 C 
ATOM      3  C   UNL     1       5.020   4.869  16.127  0.00  0.00    +0.000 C 
ATOM      4  S   UNL     1       5.002   6.575  16.698  0.00  0.00    +0.000 S 
ATOM      5  C   UNL     1       4.153   6.163  18.245  0.00  0.00    +0.000 C 
ATOM      6  N   UNL     1       3.628   4.815  18.105  0.00  0.00    +0.000 N 
ENDROOT
BRANCH   5   7
ATOM      7  C   UNL     1       3.089   7.198  18.595  0.00  0.00    +0.000 A 
ATOM      8  C   UNL     1       2.577   8.097  17.642  0.00  0.00    +0.000 A 
ATOM      9  C   UNL     1       1.560   8.997  17.978  0.00  0.00    +0.000 A 
ATOM     10  C   UNL     1       1.034   8.997  19.267  0.00  0.00    +0.000 A 
ATOM     11 CL   UNL     1      -0.239  10.082  19.673  0.00  0.00    +0.000 Cl
ATOM     12  C   UNL     1       1.526   8.121  20.228  0.00  0.00    +0.000 A 
ATOM     13  C   UNL     1       2.553   7.232  19.896  0.00  0.00    +0.000 A 
ENDBRANCH   5   7
BRANCH   6  14
ATOM     14  C   UNL     1       2.865   4.211  19.140  0.00  0.00    +0.000 A 
ATOM     15  C   UNL     1       1.473   4.055  19.019  0.00  0.00    +0.000 A 
ATOM     16  C   UNL     1       0.732   3.453  20.037  0.00  0.00    +0.000 A 
ATOM     17  C   UNL     1       1.380   2.981  21.170  0.00  0.00    +0.000 A 
ATOM     18  F   UNL     1       0.669   2.394  22.140  0.00  0.00    +0.000 F 
ATOM     19  C   UNL     1       2.754   3.114  21.311  0.00  0.00    +0.000 A 
ATOM     20  C   UNL     1       3.493   3.744  20.305  0.00  0.00    +0.000 A 
ENDBRANCH   6  14
TORSDOF 2
ENDMDL
