MODEL 1
REMARK VINA RESULT:      -8.5      0.000      0.000
REMARK  Name = 
REMARK  3 active torsions:
REMARK  status: ('A' for Active; 'I' for Inactive)
REMARK    1  A    between atoms: C_1  and  C_2
REMARK    2  A    between atoms: C_4  and  N_5
REMARK    3  A    between atoms: N_5  and  C_6
REMARK                            x       y       z     vdW  Elec       q    Type
REMARK                         _______ _______ _______ _____ _____    ______ ____
ROOT
ATOM      1  C   UNL     1       8.100   7.803  18.261  0.00  0.00    +0.000 C 
ATOM      2  C   UNL     1       7.447   6.622  17.585  0.00  0.00    +0.000 A 
ATOM      3  C   UNL     1       6.702   5.673  18.464  0.00  0.00    +0.000 A 
ATOM      4  C   UNL     1       6.148   4.596  17.873  0.00  0.00    +0.000 A 
ATOM      5  N   UNL     1       6.271   4.482  16.474  0.00  0.00    +0.000 N 
ATOM      6  N   UNL     1       5.783   3.509  15.655  0.00  0.00    +0.000 NA
ATOM      7  C   UNL     1       6.257   3.894  14.470  0.00  0.00    +0.000 A 
ATOM      8  N   UNL     1       6.983   5.045  14.460  0.00  0.00    +0.000 NA
ATOM      9  C   UNL     1       6.989   5.419  15.721  0.00  0.00    +0.000 A 
ATOM     10  N   UNL     1       7.582   6.504  16.298  0.00  0.00    +0.000 NA
ENDROOT
BRANCH   4  11
ATOM     11  N   UNL     1       5.449   3.593  18.544  0.00  0.00    +0.000 N 
ATOM     12  H   UNL     1       5.977   3.242  19.349  0.00  0.00    +0.000 HD
BRANCH  11  13
ATOM     13  C   UNL     1       4.061   3.630  18.839  0.00  0.00    +0.000 A 
ATOM     14  C   UNL     1       3.206   4.301  17.953  0.00  0.00    +0.000 A 
ATOM     15  C   UNL     1       1.840   4.431  18.227  0.00  0.00    +0.000 A 
ATOM     16  C   UNL     1       1.310   3.904  19.403  0.00  0.00    +0.000 A 
ATOM     17  C   UNL     1       2.148   3.239  20.290  0.00  0.00    +0.000 A 
ATOM     18 CL   UNL     1       1.509   2.587  21.749  0.00  0.00    +0.000 Cl
ATOM     19  C   UNL     1       3.509   3.099  20.014  0.00  0.00    +0.000 A 
ENDBRANCH  11  13
ENDBRANCH   4  11
TORSDOF 2
ENDMDL
MODEL 2
REMARK VINA RESULT:      -8.2      1.006      1.058
REMARK  Name = 
REMARK  3 active torsions:
REMARK  status: ('A' for Active; 'I' for Inactive)
REMARK    1  A    between atoms: C_1  and  C_2
REMARK    2  A    between atoms: C_4  and  N_5
REMARK    3  A    between atoms: N_5  and  C_6
REMARK                            x       y       z     vdW  Elec       q    Type
REMARK                         _______ _______ _______ _____ _____    ______ ____
ROOT
ATOM      1  C   UNL     1       8.066   7.845  18.270  0.00  0.00    +0.000 C 
ATOM      2  C   UNL     1       7.438   6.644  17.606  0.00  0.00    +0.000 A 
ATOM      3  C   UNL     1       6.777   5.650  18.501  0.00  0.00    +0.000 A 
ATOM      4  C   UNL     1       6.247   4.557  17.919  0.00  0.00    +0.000 A 
ATOM      5  N   UNL     1       6.314   4.466  16.514  0.00  0.00    +0.000 N 
ATOM      6  N   UNL     1       5.835   3.482  15.703  0.00  0.00    +0.000 NA
ATOM      7  C   UNL     1       6.239   3.904  14.504  0.00  0.00    +0.000 A 
ATOM      8  N   UNL     1       6.911   5.087  14.480  0.00  0.00    +0.000 NA
ATOM      9  C   UNL     1       6.955   5.445  15.746  0.00  0.00    +0.000 A 
ATOM     10  N   UNL     1       7.523   6.549  16.312  0.00  0.00    +0.000 NA
ENDROOT
BRANCH   4  11
ATOM     11  N   UNL     1       5.624   3.514  18.605  0.00  0.00    +0.000 N 
ATOM     12  H   UNL     1       6.108   3.301  19.483  0.00  0.00    +0.000 HD
BRANCH  11  13
ATOM     13  C   UNL     1       4.221   3.372  18.764  0.00  0.00    +0.000 A 
ATOM     14  C   UNL     1       3.557   2.396  18.006  0.00  0.00    +0.000 A 
ATOM     15  C   UNL     1       2.166   2.257  18.068  0.00  0.00    +0.000 A 
ATOM     16  C   UNL     1       1.415   3.104  18.879  0.00  0.00    +0.000 A 
ATOM     17  C   UNL     1       2.061   4.075  19.634  0.00  0.00    +0.000 A 
ATOM     18 CL   UNL     1       1.146   5.133  20.637  0.00  0.00    +0.000 Cl
ATOM     19  C   UNL     1       3.450   4.210  19.581  0.00  0.00    +0.000 A 
ENDBRANCH  11  13
ENDBRANCH   4  11
TORSDOF 2
ENDMDL
MODEL 3
REMARK VINA RESULT:      -8.0      1.327      1.619
REMARK  Name = 
REMARK  3 active torsions:
REMARK  status: ('A' for Active; 'I' for Inactive)
REMARK    1  A    between atoms: C_1  and  C_2
REMARK    2  A    between atoms: C_4  and  N_5
REMARK    3  A    between atoms: N_5  and  C_6
REMARK                            x       y       z     vdW  Elec       q    Type
REMARK                         _______ _______ _______ _____ _____    ______ ____
ROOT
ATOM      1  C   UNL     1       8.115   7.899  18.273  0.00  0.00    +0.000 C 
ATOM      2  C   UNL     1       7.450   6.697  17.647  0.00  0.00    +0.000 A 
ATOM      3  C   UNL     1       6.789   5.736  18.577  0.00  0.00    +0.000 A 
ATOM      4  C   UNL     1       6.227   4.640  18.029  0.00  0.00    +0.000 A 
ATOM      5  N   UNL     1       6.262   4.519  16.626  0.00  0.00    +0.000 N 
ATOM      6  N   UNL     1       5.748   3.527  15.845  0.00  0.00    +0.000 NA
ATOM      7  C   UNL     1       6.135   3.916  14.630  0.00  0.00    +0.000 A 
ATOM      8  N   UNL     1       6.829   5.085  14.567  0.00  0.00    +0.000 NA
ATOM      9  C   UNL     1       6.905   5.468  15.823  0.00  0.00    +0.000 A 
ATOM     10  N   UNL     1       7.506   6.573  16.354  0.00  0.00    +0.000 NA
ENDROOT
BRANCH   4  11
ATOM     11  N   UNL     1       5.598   3.625  18.750  0.00  0.00    +0.000 N 
ATOM     12  H   UNL     1       6.278   3.048  19.255  0.00  0.00    +0.000 HD
BRANCH  11  13
ATOM     13  C   UNL     1       4.417   3.788  19.519  0.00  0.00    +0.000 A 
ATOM     14  C   UNL     1       3.854   2.658  20.130  0.00  0.00    +0.000 A 
ATOM     15  C   UNL     1       2.652   2.744  20.841  0.00  0.00    +0.000 A 
ATOM     16  C   UNL     1       1.986   3.963  20.940  0.00  0.00    +0.000 A 
ATOM     17  C   UNL     1       2.532   5.090  20.338  0.00  0.00    +0.000 A 
ATOM     18 CL   UNL     1       1.717   6.601  20.447  0.00  0.00    +0.000 Cl
ATOM     19  C   UNL     1       3.736   5.008  19.636  0.00  0.00    +0.000 A 
ENDBRANCH  11  13
ENDBRANCH   4  11
TORSDOF 2
ENDMDL
MODEL 4
REMARK VINA RESULT:      -8.0      1.849      3.194
REMARK  Name = 
REMARK  3 active torsions:
REMARK  status: ('A' for Active; 'I' for Inactive)
REMARK    1  A    between atoms: C_1  and  C_2
REMARK    2  A    between atoms: C_4  and  N_5
REMARK    3  A    between atoms: N_5  and  C_6
REMARK                            x       y       z     vdW  Elec       q    Type
REMARK                         _______ _______ _______ _____ _____    ______ ____
ROOT
ATOM      1  C   UNL     1       6.330   3.997  13.934  0.00  0.00    +0.000 C 
ATOM      2  C   UNL     1       6.242   4.462  15.367  0.00  0.00    +0.000 A 
ATOM      3  C   UNL     1       4.950   5.071  15.798  0.00  0.00    +0.000 A 
ATOM      4  C   UNL     1       4.876   5.523  17.065  0.00  0.00    +0.000 A 
ATOM      5  N   UNL     1       6.002   5.337  17.892  0.00  0.00    +0.000 N 
ATOM      6  N   UNL     1       6.161   5.683  19.201  0.00  0.00    +0.000 NA
ATOM      7  C   UNL     1       7.426   5.322  19.420  0.00  0.00    +0.000 A 
ATOM      8  N   UNL     1       8.078   4.751  18.371  0.00  0.00    +0.000 NA
ATOM      9  C   UNL     1       7.180   4.756  17.409  0.00  0.00    +0.000 A 
ATOM     10  N   UNL     1       7.290   4.314  16.122  0.00  0.00    +0.000 NA
ENDROOT
BRANCH   4  11
ATOM     11  N   UNL     1       3.761   6.148  17.622  0.00  0.00    +0.000 N 
ATOM     12  H   UNL     1       3.283   6.742  16.938  0.00  0.00    +0.000 HD
BRANCH  11  13
ATOM     13  C   UNL     1       2.819   5.517  18.476  0.00  0.00    +0.000 A 
ATOM     14  C   UNL     1       2.558   6.093  19.727  0.00  0.00    +0.000 A 
ATOM     15  C   UNL     1       1.693   5.477  20.639  0.00  0.00    +0.000 A 
ATOM     16  C   UNL     1       1.086   4.266  20.317  0.00  0.00    +0.000 A 
ATOM     17  C   UNL     1       1.337   3.685  19.081  0.00  0.00    +0.000 A 
ATOM     18 CL   UNL     1       0.599   2.185  18.671  0.00  0.00    +0.000 Cl
ATOM     19  C   UNL     1       2.192   4.301  18.166  0.00  0.00    +0.000 A 
ENDBRANCH  11  13
ENDBRANCH   4  11
TORSDOF 2
ENDMDL
MODEL 5
REMARK VINA RESULT:      -8.0      1.070      1.180
REMARK  Name = 
REMARK  3 active torsions:
REMARK  status: ('A' for Active; 'I' for Inactive)
REMARK    1  A    between atoms: C_1  and  C_2
REMARK    2  A    between atoms: C_4  and  N_5
REMARK    3  A    between atoms: N_5  and  C_6
REMARK                            x       y       z     vdW  Elec       q    Type
REMARK                         _______ _______ _______ _____ _____    ______ ____
ROOT
ATOM      1  C   UNL     1       8.139   7.921  18.191  0.00  0.00    +0.000 C 
ATOM      2  C   UNL     1       7.451   6.720  17.588  0.00  0.00    +0.000 A 
ATOM      3  C   UNL     1       6.681   5.848  18.522  0.00  0.00    +0.000 A 
ATOM      4  C   UNL     1       6.096   4.753  17.998  0.00  0.00    +0.000 A 
ATOM      5  N   UNL     1       6.214   4.550  16.608  0.00  0.00    +0.000 N 
ATOM      6  N   UNL     1       5.698   3.542  15.850  0.00  0.00    +0.000 NA
ATOM      7  C   UNL     1       6.182   3.841  14.644  0.00  0.00    +0.000 A 
ATOM      8  N   UNL     1       6.941   4.968  14.564  0.00  0.00    +0.000 NA
ATOM      9  C   UNL     1       6.958   5.418  15.801  0.00  0.00    +0.000 A 
ATOM     10  N   UNL     1       7.582   6.519  16.310  0.00  0.00    +0.000 NA
ENDROOT
BRANCH   4  11
ATOM     11  N   UNL     1       5.369   3.813  18.729  0.00  0.00    +0.000 N 
ATOM     12  H   UNL     1       5.918   3.439  19.509  0.00  0.00    +0.000 HD
BRANCH  11  13
ATOM     13  C   UNL     1       4.007   3.953  19.101  0.00  0.00    +0.000 A 
ATOM     14  C   UNL     1       3.651   5.008  19.953  0.00  0.00    +0.000 A 
ATOM     15  C   UNL     1       2.336   5.154  20.411  0.00  0.00    +0.000 A 
ATOM     16  C   UNL     1       1.360   4.236  20.034  0.00  0.00    +0.000 A 
ATOM     17  C   UNL     1       1.700   3.185  19.191  0.00  0.00    +0.000 A 
ATOM     18 CL   UNL     1       0.506   2.039  18.721  0.00  0.00    +0.000 Cl
ATOM     19  C   UNL     1       3.009   3.043  18.726  0.00  0.00    +0.000 A 
ENDBRANCH  11  13
ENDBRANCH   4  11
TORSDOF 2
ENDMDL
MODEL 6
REMARK VINA RESULT:      -8.0      0.917      2.618
REMARK  Name = 
REMARK  3 active torsions:
REMARK  status: ('A' for Active; 'I' for Inactive)
REMARK    1  A    between atoms: C_1  and  C_2
REMARK    2  A    between atoms: C_4  and  N_5
REMARK    3  A    between atoms: N_5  and  C_6
REMARK                            x       y       z     vdW  Elec       q    Type
REMARK                         _______ _______ _______ _____ _____    ______ ____
ROOT
ATOM      1  C   UNL     1       6.249   3.926  13.386  0.00  0.00    +0.000 C 
ATOM      2  C   UNL     1       6.390   4.408  14.809  0.00  0.00    +0.000 A 
ATOM      3  C   UNL     1       5.739   3.580  15.866  0.00  0.00    +0.000 A 
ATOM      4  C   UNL     1       5.829   4.024  17.136  0.00  0.00    +0.000 A 
ATOM      5  N   UNL     1       6.571   5.199  17.366  0.00  0.00    +0.000 N 
ATOM      6  N   UNL     1       6.822   5.827  18.550  0.00  0.00    +0.000 NA
ATOM      7  C   UNL     1       7.507   6.896  18.144  0.00  0.00    +0.000 A 
ATOM      8  N   UNL     1       7.736   6.991  16.807  0.00  0.00    +0.000 NA
ATOM      9  C   UNL     1       7.150   5.919  16.316  0.00  0.00    +0.000 A 
ATOM     10  N   UNL     1       7.052   5.506  15.019  0.00  0.00    +0.000 NA
ENDROOT
BRANCH   4  11
ATOM     11  N   UNL     1       5.253   3.396  18.240  0.00  0.00    +0.000 N 
ATOM     12  H   UNL     1       5.844   3.484  19.072  0.00  0.00    +0.000 HD
BRANCH  11  13
ATOM     13  C   UNL     1       3.881   3.476  18.594  0.00  0.00    +0.000 A 
ATOM     14  C   UNL     1       2.994   4.097  17.703  0.00  0.00    +0.000 A 
ATOM     15  C   UNL     1       1.644   4.268  18.030  0.00  0.00    +0.000 A 
ATOM     16  C   UNL     1       1.163   3.832  19.262  0.00  0.00    +0.000 A 
ATOM     17  C   UNL     1       2.032   3.216  20.154  0.00  0.00    +0.000 A 
ATOM     18 CL   UNL     1       1.454   2.678  21.683  0.00  0.00    +0.000 Cl
ATOM     19  C   UNL     1       3.377   3.036  19.827  0.00  0.00    +0.000 A 
ENDBRANCH  11  13
ENDBRANCH   4  11
TORSDOF 2
ENDMDL
MODEL 7
REMARK VINA RESULT:      -7.9      1.537      2.959
REMARK  Name = 
REMARK  3 active torsions:
REMARK  status: ('A' for Active; 'I' for Inactive)
REMARK    1  A    between atoms: C_1  and  C_2
REMARK    2  A    between atoms: C_4  and  N_5
REMARK    3  A    between atoms: N_5  and  C_6
REMARK                            x       y       z     vdW  Elec       q    Type
REMARK                         _______ _______ _______ _____ _____    ______ ____
ROOT
ATOM      1  C   UNL     1       5.592   4.009  13.844  0.00  0.00    +0.000 C 
ATOM      2  C   UNL     1       5.982   4.507  15.214  0.00  0.00    +0.000 A 
ATOM      3  C   UNL     1       5.475   3.728  16.382  0.00  0.00    +0.000 A 
ATOM      4  C   UNL     1       5.788   4.188  17.609  0.00  0.00    +0.000 A 
ATOM      5  N   UNL     1       6.608   5.332  17.690  0.00  0.00    +0.000 N 
ATOM      6  N   UNL     1       7.074   5.966  18.802  0.00  0.00    +0.000 NA
ATOM      7  C   UNL     1       7.731   6.995  18.267  0.00  0.00    +0.000 A 
ATOM      8  N   UNL     1       7.745   7.057  16.908  0.00  0.00    +0.000 NA
ATOM      9  C   UNL     1       7.041   6.006  16.543  0.00  0.00    +0.000 A 
ATOM     10  N   UNL     1       6.717   5.577  15.289  0.00  0.00    +0.000 NA
ENDROOT
BRANCH   4  11
ATOM     11  N   UNL     1       5.371   3.606  18.806  0.00  0.00    +0.000 N 
ATOM     12  H   UNL     1       6.076   3.715  19.542  0.00  0.00    +0.000 HD
BRANCH  11  13
ATOM     13  C   UNL     1       4.065   3.716  19.350  0.00  0.00    +0.000 A 
ATOM     14  C   UNL     1       3.254   2.573  19.381  0.00  0.00    +0.000 A 
ATOM     15  C   UNL     1       1.933   2.636  19.840  0.00  0.00    +0.000 A 
ATOM     16  C   UNL     1       1.399   3.850  20.262  0.00  0.00    +0.000 A 
ATOM     17  C   UNL     1       2.192   4.991  20.236  0.00  0.00    +0.000 A 
ATOM     18 CL   UNL     1       1.543   6.500  20.750  0.00  0.00    +0.000 Cl
ATOM     19  C   UNL     1       3.512   4.928  19.787  0.00  0.00    +0.000 A 
ENDBRANCH  11  13
ENDBRANCH   4  11
TORSDOF 2
ENDMDL
MODEL 8
REMARK VINA RESULT:      -7.8      0.958      1.018
REMARK  Name = 
REMARK  3 active torsions:
REMARK  status: ('A' for Active; 'I' for Inactive)
REMARK    1  A    between atoms: C_1  and  C_2
REMARK    2  A    between atoms: C_4  and  N_5
REMARK    3  A    between atoms: N_5  and  C_6
REMARK                            x       y       z     vdW  Elec       q    Type
REMARK                         _______ _______ _______ _____ _____    ______ ____
ROOT
ATOM      1  C   UNL     1       7.960   6.074  19.275  0.00  0.00    +0.000 C 
ATOM      2  C   UNL     1       7.297   5.437  18.077  0.00  0.00    +0.000 A 
ATOM      3  C   UNL     1       6.200   4.465  18.355  0.00  0.00    +0.000 A 
ATOM      4  C   UNL     1       5.629   3.864  17.293  0.00  0.00    +0.000 A 
ATOM      5  N   UNL     1       6.075   4.240  16.010  0.00  0.00    +0.000 N 
ATOM      6  N   UNL     1       5.643   3.798  14.796  0.00  0.00    +0.000 NA
ATOM      7  C   UNL     1       6.459   4.450  13.968  0.00  0.00    +0.000 A 
ATOM      8  N   UNL     1       7.358   5.290  14.549  0.00  0.00    +0.000 NA
ATOM      9  C   UNL     1       7.114   5.162  15.836  0.00  0.00    +0.000 A 
ATOM     10  N   UNL     1       7.728   5.765  16.895  0.00  0.00    +0.000 NA
ENDROOT
BRANCH   4  11
ATOM     11  N   UNL     1       4.616   2.908  17.370  0.00  0.00    +0.000 N 
ATOM     12  H   UNL     1       4.999   1.966  17.495  0.00  0.00    +0.000 HD
BRANCH  11  13
ATOM     13  C   UNL     1       3.414   3.058  18.109  0.00  0.00    +0.000 A 
ATOM     14  C   UNL     1       2.316   3.667  17.485  0.00  0.00    +0.000 A 
ATOM     15  C   UNL     1       1.128   3.906  18.185  0.00  0.00    +0.000 A 
ATOM     16  C   UNL     1       1.026   3.550  19.528  0.00  0.00    +0.000 A 
ATOM     17  C   UNL     1       2.107   2.946  20.158  0.00  0.00    +0.000 A 
ATOM     18 CL   UNL     1       1.998   2.506  21.818  0.00  0.00    +0.000 Cl
ATOM     19  C   UNL     1       3.290   2.699  19.459  0.00  0.00    +0.000 A 
ENDBRANCH  11  13
ENDBRANCH   4  11
TORSDOF 2
ENDMDL
MODEL 9
REMARK VINA RESULT:      -7.8      1.394      2.854
REMARK  Name = 
REMARK  3 active torsions:
REMARK  status: ('A' for Active; 'I' for Inactive)
REMARK    1  A    between atoms: C_1  and  C_2
REMARK    2  A    between atoms: C_4  and  N_5
REMARK    3  A    between atoms: N_5  and  C_6
REMARK                            x       y       z     vdW  Elec       q    Type
REMARK                         _______ _______ _______ _____ _____    ______ ____
ROOT
ATOM      1  C   UNL     1       6.151   3.893  13.581  0.00  0.00    +0.000 C 
ATOM      2  C   UNL     1       6.367   4.464  14.962  0.00  0.00    +0.000 A 
ATOM      3  C   UNL     1       5.743   3.726  16.099  0.00  0.00    +0.000 A 
ATOM      4  C   UNL     1       5.900   4.250  17.331  0.00  0.00    +0.000 A 
ATOM      5  N   UNL     1       6.680   5.418  17.450  0.00  0.00    +0.000 N 
ATOM      6  N   UNL     1       6.999   6.115  18.577  0.00  0.00    +0.000 NA
ATOM      7  C   UNL     1       7.691   7.136  18.072  0.00  0.00    +0.000 A 
ATOM      8  N   UNL     1       7.863   7.135  16.722  0.00  0.00    +0.000 NA
ATOM      9  C   UNL     1       7.230   6.050  16.329  0.00  0.00    +0.000 A 
ATOM     10  N   UNL     1       7.065   5.555  15.069  0.00  0.00    +0.000 NA
ENDROOT
BRANCH   4  11
ATOM     11  N   UNL     1       5.358   3.712  18.498  0.00  0.00    +0.000 N 
ATOM     12  H   UNL     1       6.008   3.796  19.286  0.00  0.00    +0.000 HD
BRANCH  11  13
ATOM     13  C   UNL     1       4.021   3.902  18.934  0.00  0.00    +0.000 A 
ATOM     14  C   UNL     1       3.742   4.981  19.786  0.00  0.00    +0.000 A 
ATOM     15  C   UNL     1       2.457   5.177  20.306  0.00  0.00    +0.000 A 
ATOM     16  C   UNL     1       1.434   4.286  19.991  0.00  0.00    +0.000 A 
ATOM     17  C   UNL     1       1.698   3.213  19.149  0.00  0.00    +0.000 A 
ATOM     18 CL   UNL     1       0.445   2.101  18.755  0.00  0.00    +0.000 Cl
ATOM     19  C   UNL     1       2.976   3.021  18.622  0.00  0.00    +0.000 A 
ENDBRANCH  11  13
ENDBRANCH   4  11
TORSDOF 2
ENDMDL
