MODEL 1
REMARK VINA RESULT:      -6.0      0.000      0.000
REMARK  Name = 
REMARK  6 active torsions:
REMARK  status: ('A' for Active; 'I' for Inactive)
REMARK    1  A    between atoms: C_1  and  C_2
REMARK    2  A    between atoms: C_2  and  C_3
REMARK    3  A    between atoms: C_2  and  S_4
REMARK    4  A    between atoms: S_4  and  C_5
REMARK    5  A    between atoms: C_8  and  C_9
REMARK    6  A    between atoms: C_16  and  C_17
REMARK                            x       y       z     vdW  Elec       q    Type
REMARK                         _______ _______ _______ _____ _____    ______ ____
ROOT
ATOM      1  C   UNL     1       4.888   4.445  16.833  0.00  0.00    +0.000 A 
ATOM      2  S   UNL     1       3.572   3.397  17.152  0.00  0.00    +0.000 S 
ATOM      3  C   UNL     1       2.648   4.664  17.828  0.00  0.00    +0.000 A 
ATOM      4  C   UNL     1       3.325   5.871  17.880  0.00  0.00    +0.000 A 
ATOM      5  C   UNL     1       4.654   5.718  17.323  0.00  0.00    +0.000 A 
ENDROOT
BRANCH   4   6
ATOM      6  C   UNL     1       2.667   7.077  18.413  0.00  0.00    +0.000 A 
ATOM      7  C   UNL     1       2.260   7.148  19.756  0.00  0.00    +0.000 A 
ATOM      8  C   UNL     1       1.594   8.276  20.249  0.00  0.00    +0.000 A 
ATOM      9  C   UNL     1       1.345   9.358  19.410  0.00  0.00    +0.000 A 
ATOM     10 CL   UNL     1       0.522  10.742  20.012  0.00  0.00    +0.000 Cl
ATOM     11  C   UNL     1       1.753   9.317  18.081  0.00  0.00    +0.000 A 
ATOM     12  C   UNL     1       2.398   8.179  17.583  0.00  0.00    +0.000 A 
ENDBRANCH   4   6
BRANCH   5  13
ATOM     13  C   UNL     1       5.638   6.761  17.229  0.00  0.00    +0.000 C 
ATOM     14  N   UNL     1       6.411   7.620  17.118  0.00  0.00    +0.000 NA
ENDBRANCH   5  13
BRANCH   1  15
ATOM     15  S   UNL     1       6.323   3.876  15.978  0.00  0.00    +0.000 S 
BRANCH  15  17
ATOM     16  C   UNL     1       7.445   5.213  13.810  0.00  0.00    +0.000 C 
ATOM     17  C   UNL     1       6.116   4.681  14.343  0.00  0.00    +0.000 C 
ATOM     18  C   UNL     1       5.525   3.674  13.357  0.00  0.00    +0.000 C 
ENDBRANCH  15  17
ENDBRANCH   1  15
TORSDOF 4
ENDMDL
MODEL 2
REMARK VINA RESULT:      -5.9      0.203      1.154
REMARK  Name = 
REMARK  6 active torsions:
REMARK  status: ('A' for Active; 'I' for Inactive)
REMARK    1  A    between atoms: C_1  and  C_2
REMARK    2  A    between atoms: C_2  and  C_3
REMARK    3  A    between atoms: C_2  and  S_4
REMARK    4  A    between atoms: S_4  and  C_5
REMARK    5  A    between atoms: C_8  and  C_9
REMARK    6  A    between atoms: C_16  and  C_17
REMARK                            x       y       z     vdW  Elec       q    Type
REMARK                         _______ _______ _______ _____ _____    ______ ____
ROOT
ATOM      1  C   UNL     1       4.660   4.300  16.855  0.00  0.00    +0.000 A 
ATOM      2  S   UNL     1       3.315   3.298  17.196  0.00  0.00    +0.000 S 
ATOM      3  C   UNL     1       2.435   4.600  17.862  0.00  0.00    +0.000 A 
ATOM      4  C   UNL     1       3.148   5.786  17.895  0.00  0.00    +0.000 A 
ATOM      5  C   UNL     1       4.469   5.586  17.331  0.00  0.00    +0.000 A 
ENDROOT
BRANCH   4   6
ATOM      6  C   UNL     1       2.532   7.018  18.417  0.00  0.00    +0.000 A 
ATOM      7  C   UNL     1       2.318   8.130  17.585  0.00  0.00    +0.000 A 
ATOM      8  C   UNL     1       1.775   9.317  18.093  0.00  0.00    +0.000 A 
ATOM      9  C   UNL     1       1.419   9.399  19.435  0.00  0.00    +0.000 A 
ATOM     10 CL   UNL     1       0.759  10.858  20.062  0.00  0.00    +0.000 Cl
ATOM     11  C   UNL     1       1.607   8.306  20.274  0.00  0.00    +0.000 A 
ATOM     12  C   UNL     1       2.173   7.128  19.771  0.00  0.00    +0.000 A 
ENDBRANCH   4   6
BRANCH   5  13
ATOM     13  C   UNL     1       5.483   6.597  17.218  0.00  0.00    +0.000 C 
ATOM     14  N   UNL     1       6.272   7.445  17.139  0.00  0.00    +0.000 NA
ENDBRANCH   5  13
BRANCH   1  15
ATOM     15  S   UNL     1       6.071   3.678  15.998  0.00  0.00    +0.000 S 
BRANCH  15  17
ATOM     16  C   UNL     1       7.287   5.229  14.033  0.00  0.00    +0.000 C 
ATOM     17  C   UNL     1       5.956   4.578  14.404  0.00  0.00    +0.000 C 
ATOM     18  C   UNL     1       5.529   3.604  13.306  0.00  0.00    +0.000 C 
ENDBRANCH  15  17
ENDBRANCH   1  15
TORSDOF 4
ENDMDL
MODEL 3
REMARK VINA RESULT:      -5.7      3.018      3.646
REMARK  Name = 
REMARK  6 active torsions:
REMARK  status: ('A' for Active; 'I' for Inactive)
REMARK    1  A    between atoms: C_1  and  C_2
REMARK    2  A    between atoms: C_2  and  C_3
REMARK    3  A    between atoms: C_2  and  S_4
REMARK    4  A    between atoms: S_4  and  C_5
REMARK    5  A    between atoms: C_8  and  C_9
REMARK    6  A    between atoms: C_16  and  C_17
REMARK                            x       y       z     vdW  Elec       q    Type
REMARK                         _______ _______ _______ _____ _____    ______ ____
ROOT
ATOM      1  C   UNL     1       3.988   5.437  18.469  0.00  0.00    +0.000 A 
ATOM      2  S   UNL     1       4.666   6.362  17.197  0.00  0.00    +0.000 S 
ATOM      3  C   UNL     1       3.616   7.671  17.507  0.00  0.00    +0.000 A 
ATOM      4  C   UNL     1       2.707   7.420  18.520  0.00  0.00    +0.000 A 
ATOM      5  C   UNL     1       2.915   6.088  19.054  0.00  0.00    +0.000 A 
ENDROOT
BRANCH   4   6
ATOM      6  C   UNL     1       1.740   8.452  18.935  0.00  0.00    +0.000 A 
ATOM      7  C   UNL     1       1.390   8.616  20.285  0.00  0.00    +0.000 A 
ATOM      8  C   UNL     1       0.437   9.566  20.673  0.00  0.00    +0.000 A 
ATOM      9  C   UNL     1      -0.164  10.377  19.716  0.00  0.00    +0.000 A 
ATOM     10 CL   UNL     1      -1.340  11.539  20.188  0.00  0.00    +0.000 Cl
ATOM     11  C   UNL     1       0.178  10.243  18.374  0.00  0.00    +0.000 A 
ATOM     12  C   UNL     1       1.114   9.277  17.985  0.00  0.00    +0.000 A 
ENDBRANCH   4   6
BRANCH   5  13
ATOM     13  C   UNL     1       2.144   5.486  20.106  0.00  0.00    +0.000 C 
ATOM     14  N   UNL     1       1.552   4.968  20.960  0.00  0.00    +0.000 NA
ENDBRANCH   5  13
BRANCH   1  15
ATOM     15  S   UNL     1       4.646   3.859  18.904  0.00  0.00    +0.000 S 
BRANCH  15  17
ATOM     16  C   UNL     1       2.593   3.135  17.171  0.00  0.00    +0.000 C 
ATOM     17  C   UNL     1       3.239   2.754  18.501  0.00  0.00    +0.000 C 
ATOM     18  C   UNL     1       3.735   1.309  18.443  0.00  0.00    +0.000 C 
ENDBRANCH  15  17
ENDBRANCH   1  15
TORSDOF 4
ENDMDL
MODEL 4
REMARK VINA RESULT:      -5.6      2.945      3.835
REMARK  Name = 
REMARK  6 active torsions:
REMARK  status: ('A' for Active; 'I' for Inactive)
REMARK    1  A    between atoms: C_1  and  C_2
REMARK    2  A    between atoms: C_2  and  C_3
REMARK    3  A    between atoms: C_2  and  S_4
REMARK    4  A    between atoms: S_4  and  C_5
REMARK    5  A    between atoms: C_8  and  C_9
REMARK    6  A    between atoms: C_16  and  C_17
REMARK                            x       y       z     vdW  Elec       q    Type
REMARK                         _______ _______ _______ _____ _____    ______ ____
ROOT
ATOM      1  C   UNL     1       4.026   4.980  18.605  0.00  0.00    +0.000 A 
ATOM      2  S   UNL     1       4.878   5.851  17.403  0.00  0.00    +0.000 S 
ATOM      3  C   UNL     1       3.900   7.232  17.622  0.00  0.00    +0.000 A 
ATOM      4  C   UNL     1       2.889   7.048  18.550  0.00  0.00    +0.000 A 
ATOM      5  C   UNL     1       2.953   5.706  19.095  0.00  0.00    +0.000 A 
ENDROOT
BRANCH   4   6
ATOM      6  C   UNL     1       1.964   8.147  18.880  0.00  0.00    +0.000 A 
ATOM      7  C   UNL     1       1.446   8.984  17.879  0.00  0.00    +0.000 A 
ATOM      8  C   UNL     1       0.604  10.056  18.198  0.00  0.00    +0.000 A 
ATOM      9  C   UNL     1       0.254  10.292  19.524  0.00  0.00    +0.000 A 
ATOM     10 CL   UNL     1      -0.774  11.613  19.920  0.00  0.00    +0.000 Cl
ATOM     11  C   UNL     1       0.742   9.467  20.532  0.00  0.00    +0.000 A 
ATOM     12  C   UNL     1       1.602   8.410  20.213  0.00  0.00    +0.000 A 
ENDBRANCH   4   6
BRANCH   5  13
ATOM     13  C   UNL     1       2.050   5.164  20.071  0.00  0.00    +0.000 C 
ATOM     14  N   UNL     1       1.333   4.683  20.848  0.00  0.00    +0.000 NA
ENDBRANCH   5  13
BRANCH   1  15
ATOM     15  S   UNL     1       4.529   3.360  19.092  0.00  0.00    +0.000 S 
BRANCH  15  17
ATOM     16  C   UNL     1       2.252   1.762  19.013  0.00  0.00    +0.000 C 
ATOM     17  C   UNL     1       3.369   2.314  18.130  0.00  0.00    +0.000 C 
ATOM     18  C   UNL     1       2.772   3.140  16.991  0.00  0.00    +0.000 C 
ENDBRANCH  15  17
ENDBRANCH   1  15
TORSDOF 4
ENDMDL
MODEL 5
REMARK VINA RESULT:      -5.6      2.867      3.680
REMARK  Name = 
REMARK  6 active torsions:
REMARK  status: ('A' for Active; 'I' for Inactive)
REMARK    1  A    between atoms: C_1  and  C_2
REMARK    2  A    between atoms: C_2  and  C_3
REMARK    3  A    between atoms: C_2  and  S_4
REMARK    4  A    between atoms: S_4  and  C_5
REMARK    5  A    between atoms: C_8  and  C_9
REMARK    6  A    between atoms: C_16  and  C_17
REMARK                            x       y       z     vdW  Elec       q    Type
REMARK                         _______ _______ _______ _____ _____    ______ ____
ROOT
ATOM      1  C   UNL     1       4.095   4.616  18.707  0.00  0.00    +0.000 A 
ATOM      2  S   UNL     1       4.997   5.380  17.468  0.00  0.00    +0.000 S 
ATOM      3  C   UNL     1       4.098   6.824  17.619  0.00  0.00    +0.000 A 
ATOM      4  C   UNL     1       3.077   6.741  18.550  0.00  0.00    +0.000 A 
ATOM      5  C   UNL     1       3.065   5.425  19.158  0.00  0.00    +0.000 A 
ENDROOT
BRANCH   4   6
ATOM      6  C   UNL     1       2.216   7.905  18.825  0.00  0.00    +0.000 A 
ATOM      7  C   UNL     1       1.776   8.189  20.128  0.00  0.00    +0.000 A 
ATOM      8  C   UNL     1       0.921   9.268  20.382  0.00  0.00    +0.000 A 
ATOM      9  C   UNL     1       0.509  10.089  19.336  0.00  0.00    +0.000 A 
ATOM     10 CL   UNL     1      -0.547  11.410  19.643  0.00  0.00    +0.000 Cl
ATOM     11  C   UNL     1       0.944   9.835  18.039  0.00  0.00    +0.000 A 
ATOM     12  C   UNL     1       1.780   8.742  17.784  0.00  0.00    +0.000 A 
ENDBRANCH   4   6
BRANCH   5  13
ATOM     13  C   UNL     1       2.131   4.981  20.155  0.00  0.00    +0.000 C 
ATOM     14  N   UNL     1       1.387   4.579  20.951  0.00  0.00    +0.000 NA
ENDBRANCH   5  13
BRANCH   1  15
ATOM     15  S   UNL     1       4.505   2.995  19.271  0.00  0.00    +0.000 S 
BRANCH  15  17
ATOM     16  C   UNL     1       2.075   1.643  19.156  0.00  0.00    +0.000 C 
ATOM     17  C   UNL     1       3.314   1.969  18.325  0.00  0.00    +0.000 C 
ATOM     18  C   UNL     1       2.907   2.713  17.054  0.00  0.00    +0.000 C 
ENDBRANCH  15  17
ENDBRANCH   1  15
TORSDOF 4
ENDMDL
MODEL 6
REMARK VINA RESULT:      -5.5      2.406      3.468
REMARK  Name = 
REMARK  6 active torsions:
REMARK  status: ('A' for Active; 'I' for Inactive)
REMARK    1  A    between atoms: C_1  and  C_2
REMARK    2  A    between atoms: C_2  and  C_3
REMARK    3  A    between atoms: C_2  and  S_4
REMARK    4  A    between atoms: S_4  and  C_5
REMARK    5  A    between atoms: C_8  and  C_9
REMARK    6  A    between atoms: C_16  and  C_17
REMARK                            x       y       z     vdW  Elec       q    Type
REMARK                         _______ _______ _______ _____ _____    ______ ____
ROOT
ATOM      1  C   UNL     1       3.689   5.869  18.230  0.00  0.00    +0.000 A 
ATOM      2  S   UNL     1       3.929   7.106  17.071  0.00  0.00    +0.000 S 
ATOM      3  C   UNL     1       2.932   8.191  17.931  0.00  0.00    +0.000 A 
ATOM      4  C   UNL     1       2.358   7.634  19.061  0.00  0.00    +0.000 A 
ATOM      5  C   UNL     1       2.785   6.256  19.205  0.00  0.00    +0.000 A 
ENDROOT
BRANCH   4   6
ATOM      6  C   UNL     1       1.486   8.438  19.935  0.00  0.00    +0.000 A 
ATOM      7  C   UNL     1       0.700   9.480  19.414  0.00  0.00    +0.000 A 
ATOM      8  C   UNL     1      -0.093  10.273  20.251  0.00  0.00    +0.000 A 
ATOM      9  C   UNL     1      -0.125  10.021  21.619  0.00  0.00    +0.000 A 
ATOM     10 CL   UNL     1      -1.093  10.999  22.651  0.00  0.00    +0.000 Cl
ATOM     11  C   UNL     1       0.632   8.985  22.156  0.00  0.00    +0.000 A 
ATOM     12  C   UNL     1       1.443   8.208  21.320  0.00  0.00    +0.000 A 
ENDBRANCH   4   6
BRANCH   5  13
ATOM     13  C   UNL     1       2.374   5.367  20.256  0.00  0.00    +0.000 C 
ATOM     14  N   UNL     1       2.008   4.634  21.078  0.00  0.00    +0.000 NA
ENDBRANCH   5  13
BRANCH   1  15
ATOM     15  S   UNL     1       4.534   4.325  18.110  0.00  0.00    +0.000 S 
BRANCH  15  17
ATOM     16  C   UNL     1       7.261   4.620  17.639  0.00  0.00    +0.000 C 
ATOM     17  C   UNL     1       5.899   4.745  16.959  0.00  0.00    +0.000 C 
ATOM     18  C   UNL     1       5.837   3.820  15.745  0.00  0.00    +0.000 C 
ENDBRANCH  15  17
ENDBRANCH   1  15
TORSDOF 4
ENDMDL
MODEL 7
REMARK VINA RESULT:      -5.5      3.687      6.509
REMARK  Name = 
REMARK  6 active torsions:
REMARK  status: ('A' for Active; 'I' for Inactive)
REMARK    1  A    between atoms: C_1  and  C_2
REMARK    2  A    between atoms: C_2  and  C_3
REMARK    3  A    between atoms: C_2  and  S_4
REMARK    4  A    between atoms: S_4  and  C_5
REMARK    5  A    between atoms: C_8  and  C_9
REMARK    6  A    between atoms: C_16  and  C_17
REMARK                            x       y       z     vdW  Elec       q    Type
REMARK                         _______ _______ _______ _____ _____    ______ ____
ROOT
ATOM      1  C   UNL     1       3.426   4.264  19.522  0.00  0.00    +0.000 A 
ATOM      2  S   UNL     1       4.012   2.666  19.703  0.00  0.00    +0.000 S 
ATOM      3  C   UNL     1       4.987   2.800  18.308  0.00  0.00    +0.000 A 
ATOM      4  C   UNL     1       4.847   4.012  17.654  0.00  0.00    +0.000 A 
ATOM      5  C   UNL     1       3.899   4.851  18.360  0.00  0.00    +0.000 A 
ENDROOT
BRANCH   4   6
ATOM      6  C   UNL     1       5.633   4.307  16.442  0.00  0.00    +0.000 A 
ATOM      7  C   UNL     1       6.851   5.002  16.520  0.00  0.00    +0.000 A 
ATOM      8  C   UNL     1       7.575   5.322  15.365  0.00  0.00    +0.000 A 
ATOM      9  C   UNL     1       7.098   4.932  14.117  0.00  0.00    +0.000 A 
ATOM     10 CL   UNL     1       7.981   5.330  12.696  0.00  0.00    +0.000 Cl
ATOM     11  C   UNL     1       5.902   4.229  14.017  0.00  0.00    +0.000 A 
ATOM     12  C   UNL     1       5.168   3.931  15.171  0.00  0.00    +0.000 A 
ENDBRANCH   4   6
BRANCH   5  13
ATOM     13  C   UNL     1       3.499   6.170  17.958  0.00  0.00    +0.000 C 
ATOM     14  N   UNL     1       3.148   7.239  17.669  0.00  0.00    +0.000 NA
ENDBRANCH   5  13
BRANCH   1  15
ATOM     15  S   UNL     1       2.353   4.987  20.722  0.00  0.00    +0.000 S 
BRANCH  15  17
ATOM     16  C   UNL     1       0.704   3.205  19.362  0.00  0.00    +0.000 C 
ATOM     17  C   UNL     1       0.973   3.779  20.751  0.00  0.00    +0.000 C 
ATOM     18  C   UNL     1       1.313   2.650  21.724  0.00  0.00    +0.000 C 
ENDBRANCH  15  17
ENDBRANCH   1  15
TORSDOF 4
ENDMDL
MODEL 8
REMARK VINA RESULT:      -5.4      2.585      3.555
REMARK  Name = 
REMARK  6 active torsions:
REMARK  status: ('A' for Active; 'I' for Inactive)
REMARK    1  A    between atoms: C_1  and  C_2
REMARK    2  A    between atoms: C_2  and  C_3
REMARK    3  A    between atoms: C_2  and  S_4
REMARK    4  A    between atoms: S_4  and  C_5
REMARK    5  A    between atoms: C_8  and  C_9
REMARK    6  A    between atoms: C_16  and  C_17
REMARK                            x       y       z     vdW  Elec       q    Type
REMARK                         _______ _______ _______ _____ _____    ______ ____
ROOT
ATOM      1  C   UNL     1       3.330   4.551  19.747  0.00  0.00    +0.000 A 
ATOM      2  S   UNL     1       2.221   4.338  21.034  0.00  0.00    +0.000 S 
ATOM      3  C   UNL     1       1.596   5.914  20.838  0.00  0.00    +0.000 A 
ATOM      4  C   UNL     1       2.241   6.643  19.854  0.00  0.00    +0.000 A 
ATOM      5  C   UNL     1       3.283   5.840  19.244  0.00  0.00    +0.000 A 
ENDROOT
BRANCH   4   6
ATOM      6  C   UNL     1       1.814   8.017  19.536  0.00  0.00    +0.000 A 
ATOM      7  C   UNL     1       2.034   8.569  18.263  0.00  0.00    +0.000 A 
ATOM      8  C   UNL     1       1.670   9.890  17.976  0.00  0.00    +0.000 A 
ATOM      9  C   UNL     1       1.061  10.670  18.954  0.00  0.00    +0.000 A 
ATOM     10 CL   UNL     1       0.618  12.294  18.607  0.00  0.00    +0.000 Cl
ATOM     11  C   UNL     1       0.818  10.140  20.218  0.00  0.00    +0.000 A 
ATOM     12  C   UNL     1       1.205   8.827  20.510  0.00  0.00    +0.000 A 
ENDBRANCH   4   6
BRANCH   5  13
ATOM     13  C   UNL     1       4.162   6.280  18.197  0.00  0.00    +0.000 C 
ATOM     14  N   UNL     1       4.908   6.633  17.380  0.00  0.00    +0.000 NA
ENDBRANCH   5  13
BRANCH   1  15
ATOM     15  S   UNL     1       4.365   3.230  19.202  0.00  0.00    +0.000 S 
BRANCH  15  17
ATOM     16  C   UNL     1       2.036   1.739  18.889  0.00  0.00    +0.000 C 
ATOM     17  C   UNL     1       3.223   2.300  18.108  0.00  0.00    +0.000 C 
ATOM     18  C   UNL     1       2.725   3.224  16.998  0.00  0.00    +0.000 C 
ENDBRANCH  15  17
ENDBRANCH   1  15
TORSDOF 4
ENDMDL
MODEL 9
REMARK VINA RESULT:      -5.4      2.583      3.377
REMARK  Name = 
REMARK  6 active torsions:
REMARK  status: ('A' for Active; 'I' for Inactive)
REMARK    1  A    between atoms: C_1  and  C_2
REMARK    2  A    between atoms: C_2  and  C_3
REMARK    3  A    between atoms: C_2  and  S_4
REMARK    4  A    between atoms: S_4  and  C_5
REMARK    5  A    between atoms: C_8  and  C_9
REMARK    6  A    between atoms: C_16  and  C_17
REMARK                            x       y       z     vdW  Elec       q    Type
REMARK                         _______ _______ _______ _____ _____    ______ ____
ROOT
ATOM      1  C   UNL     1       3.353   4.582  19.710  0.00  0.00    +0.000 A 
ATOM      2  S   UNL     1       2.229   4.339  20.978  0.00  0.00    +0.000 S 
ATOM      3  C   UNL     1       1.601   5.917  20.808  0.00  0.00    +0.000 A 
ATOM      4  C   UNL     1       2.255   6.668  19.847  0.00  0.00    +0.000 A 
ATOM      5  C   UNL     1       3.307   5.882  19.233  0.00  0.00    +0.000 A 
ENDROOT
BRANCH   4   6
ATOM      6  C   UNL     1       1.827   8.047  19.553  0.00  0.00    +0.000 A 
ATOM      7  C   UNL     1       1.217   8.843  20.537  0.00  0.00    +0.000 A 
ATOM      8  C   UNL     1       0.769  10.136  20.244  0.00  0.00    +0.000 A 
ATOM      9  C   UNL     1       0.944  10.658  18.966  0.00  0.00    +0.000 A 
ATOM     10 CL   UNL     1       0.388  12.244  18.602  0.00  0.00    +0.000 Cl
ATOM     11  C   UNL     1       1.558   9.895  17.979  0.00  0.00    +0.000 A 
ATOM     12  C   UNL     1       1.985   8.593  18.267  0.00  0.00    +0.000 A 
ENDBRANCH   4   6
BRANCH   5  13
ATOM     13  C   UNL     1       4.198   6.346  18.206  0.00  0.00    +0.000 C 
ATOM     14  N   UNL     1       4.912   6.682  17.355  0.00  0.00    +0.000 NA
ENDBRANCH   5  13
BRANCH   1  15
ATOM     15  S   UNL     1       4.399   3.276  19.150  0.00  0.00    +0.000 S 
BRANCH  15  17
ATOM     16  C   UNL     1       2.144   1.674  18.840  0.00  0.00    +0.000 C 
ATOM     17  C   UNL     1       3.263   2.347  18.049  0.00  0.00    +0.000 C 
ATOM     18  C   UNL     1       2.668   3.304  17.017  0.00  0.00    +0.000 C 
ENDBRANCH  15  17
ENDBRANCH   1  15
TORSDOF 4
ENDMDL
