MODEL 1
REMARK VINA RESULT:      -7.9      0.000      0.000
REMARK  Name = 
REMARK  4 active torsions:
REMARK  status: ('A' for Active; 'I' for Inactive)
REMARK    1  A    between atoms: C_7  and  O_8
REMARK    2  A    between atoms: O_8  and  C_9
REMARK    3  A    between atoms: C_12  and  C_13
REMARK    4  A    between atoms: N_14  and  N_15
REMARK                            x       y       z     vdW  Elec       q    Type
REMARK                         _______ _______ _______ _____ _____    ______ ____
ROOT
ATOM      1  C   UNL     1       2.205   7.514  19.440  0.00  0.00    +0.000 A 
ATOM      2  C   UNL     1       1.563   8.091  20.541  0.00  0.00    +0.000 A 
ATOM      3  C   UNL     1       0.826   9.270  20.388  0.00  0.00    +0.000 A 
ATOM      4  C   UNL     1       0.734   9.877  19.130  0.00  0.00    +0.000 A 
ATOM      5  C   UNL     1       1.342   9.274  18.026  0.00  0.00    +0.000 A 
ATOM      6  C   UNL     1       2.125   8.133  18.192  0.00  0.00    +0.000 A 
ENDROOT
BRANCH   4   7
ATOM      7  C   UNL     1      -0.028  11.142  19.014  0.00  0.00    +0.000 C 
ATOM      8  N   UNL     1       0.357  12.303  18.564  0.00  0.00    +0.000 NA
BRANCH   8   9
ATOM      9  N   UNL     1       1.664  12.473  18.236  0.00  0.00    +0.000 N 
ATOM     10  C   UNL     1       2.425  13.566  18.492  0.00  0.00    +0.000 A 
ATOM     11  N   UNL     1       3.672  13.637  18.079  0.00  0.00    +0.000 NA
ATOM     12  C   UNL     1       4.257  14.813  18.509  0.00  0.00    +0.000 A 
ATOM     13  C   UNL     1       5.589  15.209  18.266  0.00  0.00    +0.000 A 
ATOM     14  C   UNL     1       6.069  16.402  18.816  0.00  0.00    +0.000 A 
ATOM     15  C   UNL     1       5.237  17.205  19.591  0.00  0.00    +0.000 A 
ATOM     16  C   UNL     1       3.904  16.848  19.818  0.00  0.00    +0.000 A 
ATOM     17  C   UNL     1       3.434  15.646  19.265  0.00  0.00    +0.000 A 
ATOM     18  S   UNL     1       1.869  14.942  19.362  0.00  0.00    +0.000 S 
ATOM     19  H   UNL     1       2.208  11.670  17.930  0.00  0.00    +0.000 HD
ENDBRANCH   8   9
ENDBRANCH   4   7
BRANCH   1  20
ATOM     20  O   UNL     1       2.921   6.363  19.685  0.00  0.00    +0.000 OA
BRANCH  20  27
ATOM     21 CL   UNL     1       3.821   5.054  17.170  0.00  0.00    +0.000 Cl
ATOM     22  C   UNL     1       2.666   4.435  18.295  0.00  0.00    +0.000 A 
ATOM     23  C   UNL     1       2.069   3.201  18.022  0.00  0.00    +0.000 A 
ATOM     24  C   UNL     1       1.135   2.664  18.907  0.00  0.00    +0.000 A 
ATOM     25  C   UNL     1       0.821   3.339  20.084  0.00  0.00    +0.000 A 
ATOM     26  C   UNL     1       1.438   4.557  20.373  0.00  0.00    +0.000 A 
ATOM     27  C   UNL     1       2.325   5.139  19.456  0.00  0.00    +0.000 A 
ENDBRANCH  20  27
ENDBRANCH   1  20
TORSDOF 4
ENDMDL
MODEL 2
REMARK VINA RESULT:      -7.8      3.674      5.623
REMARK  Name = 
REMARK  4 active torsions:
REMARK  status: ('A' for Active; 'I' for Inactive)
REMARK    1  A    between atoms: C_7  and  O_8
REMARK    2  A    between atoms: O_8  and  C_9
REMARK    3  A    between atoms: C_12  and  C_13
REMARK    4  A    between atoms: N_14  and  N_15
REMARK                            x       y       z     vdW  Elec       q    Type
REMARK                         _______ _______ _______ _____ _____    ______ ____
ROOT
ATOM      1  C   UNL     1       2.266   7.412  19.552  0.00  0.00    +0.000 A 
ATOM      2  C   UNL     1       2.381   7.877  18.237  0.00  0.00    +0.000 A 
ATOM      3  C   UNL     1       1.747   9.063  17.852  0.00  0.00    +0.000 A 
ATOM      4  C   UNL     1       0.991   9.784  18.783  0.00  0.00    +0.000 A 
ATOM      5  C   UNL     1       0.914   9.338  20.105  0.00  0.00    +0.000 A 
ATOM      6  C   UNL     1       1.496   8.126  20.472  0.00  0.00    +0.000 A 
ENDROOT
BRANCH   4   7
ATOM      7  C   UNL     1       0.308  11.018  18.330  0.00  0.00    +0.000 C 
ATOM      8  N   UNL     1      -0.356  11.900  19.023  0.00  0.00    +0.000 NA
BRANCH   8   9
ATOM      9  N   UNL     1      -0.580  11.657  20.340  0.00  0.00    +0.000 N 
ATOM     10  C   UNL     1      -1.660  12.050  21.061  0.00  0.00    +0.000 A 
ATOM     11  N   UNL     1      -1.744  11.799  22.350  0.00  0.00    +0.000 NA
ATOM     12  C   UNL     1      -2.954  12.239  22.850  0.00  0.00    +0.000 A 
ATOM     13  C   UNL     1      -3.389  12.116  24.186  0.00  0.00    +0.000 A 
ATOM     14  C   UNL     1      -4.670  12.552  24.543  0.00  0.00    +0.000 A 
ATOM     15  C   UNL     1      -5.511  13.116  23.589  0.00  0.00    +0.000 A 
ATOM     16  C   UNL     1      -5.090  13.278  22.265  0.00  0.00    +0.000 A 
ATOM     17  C   UNL     1      -3.804  12.832  21.918  0.00  0.00    +0.000 A 
ATOM     18  S   UNL     1      -3.006  12.889  20.396  0.00  0.00    +0.000 S 
ATOM     19  H   UNL     1      -0.001  10.977  20.826  0.00  0.00    +0.000 HD
ENDBRANCH   8   9
ENDBRANCH   4   7
BRANCH   1  20
ATOM     20  O   UNL     1       2.910   6.229  19.840  0.00  0.00    +0.000 OA
BRANCH  20  27
ATOM     21 CL   UNL     1       3.791   4.879  17.339  0.00  0.00    +0.000 Cl
ATOM     22  C   UNL     1       2.589   4.316  18.444  0.00  0.00    +0.000 A 
ATOM     23  C   UNL     1       1.939   3.111  18.159  0.00  0.00    +0.000 A 
ATOM     24  C   UNL     1       0.965   2.618  19.027  0.00  0.00    +0.000 A 
ATOM     25  C   UNL     1       0.663   3.307  20.199  0.00  0.00    +0.000 A 
ATOM     26  C   UNL     1       1.331   4.495  20.500  0.00  0.00    +0.000 A 
ATOM     27  C   UNL     1       2.261   5.034  19.599  0.00  0.00    +0.000 A 
ENDBRANCH  20  27
ENDBRANCH   1  20
TORSDOF 4
ENDMDL
MODEL 3
REMARK VINA RESULT:      -7.7      5.495      8.640
REMARK  Name = 
REMARK  4 active torsions:
REMARK  status: ('A' for Active; 'I' for Inactive)
REMARK    1  A    between atoms: C_7  and  O_8
REMARK    2  A    between atoms: O_8  and  C_9
REMARK    3  A    between atoms: C_12  and  C_13
REMARK    4  A    between atoms: N_14  and  N_15
REMARK                            x       y       z     vdW  Elec       q    Type
REMARK                         _______ _______ _______ _____ _____    ______ ____
ROOT
ATOM      1  C   UNL     1       1.445   9.231  19.087  0.00  0.00    +0.000 A 
ATOM      2  C   UNL     1       1.223   8.819  20.406  0.00  0.00    +0.000 A 
ATOM      3  C   UNL     1       1.517   7.508  20.792  0.00  0.00    +0.000 A 
ATOM      4  C   UNL     1       2.032   6.603  19.857  0.00  0.00    +0.000 A 
ATOM      5  C   UNL     1       2.292   7.031  18.553  0.00  0.00    +0.000 A 
ATOM      6  C   UNL     1       1.942   8.319  18.154  0.00  0.00    +0.000 A 
ENDROOT
BRANCH   4   7
ATOM      7  C   UNL     1       2.301   5.214  20.297  0.00  0.00    +0.000 C 
ATOM      8  N   UNL     1       3.408   4.529  20.247  0.00  0.00    +0.000 NA
BRANCH   8   9
ATOM      9  N   UNL     1       4.482   5.073  19.618  0.00  0.00    +0.000 N 
ATOM     10  C   UNL     1       4.904   4.799  18.358  0.00  0.00    +0.000 A 
ATOM     11  N   UNL     1       5.993   5.353  17.871  0.00  0.00    +0.000 NA
ATOM     12  C   UNL     1       6.184   4.971  16.557  0.00  0.00    +0.000 A 
ATOM     13  C   UNL     1       7.239   5.389  15.720  0.00  0.00    +0.000 A 
ATOM     14  C   UNL     1       7.276   4.970  14.387  0.00  0.00    +0.000 A 
ATOM     15  C   UNL     1       6.284   4.133  13.885  0.00  0.00    +0.000 A 
ATOM     16  C   UNL     1       5.246   3.679  14.705  0.00  0.00    +0.000 A 
ATOM     17  C   UNL     1       5.217   4.110  16.041  0.00  0.00    +0.000 A 
ATOM     18  S   UNL     1       4.088   3.734  17.282  0.00  0.00    +0.000 S 
ATOM     19  H   UNL     1       4.934   5.889  20.022  0.00  0.00    +0.000 HD
ENDBRANCH   8   9
ENDBRANCH   4   7
BRANCH   1  20
ATOM     20  O   UNL     1       1.113  10.534  18.790  0.00  0.00    +0.000 OA
BRANCH  20  27
ATOM     21 CL   UNL     1       0.417  12.859  20.511  0.00  0.00    +0.000 Cl
ATOM     22  C   UNL     1      -0.663  11.966  19.500  0.00  0.00    +0.000 A 
ATOM     23  C   UNL     1      -2.010  12.343  19.472  0.00  0.00    +0.000 A 
ATOM     24  C   UNL     1      -2.913  11.652  18.666  0.00  0.00    +0.000 A 
ATOM     25  C   UNL     1      -2.471  10.607  17.860  0.00  0.00    +0.000 A 
ATOM     26  C   UNL     1      -1.122  10.247  17.865  0.00  0.00    +0.000 A 
ATOM     27  C   UNL     1      -0.219  10.890  18.723  0.00  0.00    +0.000 A 
ENDBRANCH  20  27
ENDBRANCH   1  20
TORSDOF 4
ENDMDL
MODEL 4
REMARK VINA RESULT:      -7.7      1.801      2.348
REMARK  Name = 
REMARK  4 active torsions:
REMARK  status: ('A' for Active; 'I' for Inactive)
REMARK    1  A    between atoms: C_7  and  O_8
REMARK    2  A    between atoms: O_8  and  C_9
REMARK    3  A    between atoms: C_12  and  C_13
REMARK    4  A    between atoms: N_14  and  N_15
REMARK                            x       y       z     vdW  Elec       q    Type
REMARK                         _______ _______ _______ _____ _____    ______ ____
ROOT
ATOM      1  C   UNL     1       2.466   7.303  18.673  0.00  0.00    +0.000 A 
ATOM      2  C   UNL     1       1.945   8.423  18.015  0.00  0.00    +0.000 A 
ATOM      3  C   UNL     1       1.185   9.362  18.720  0.00  0.00    +0.000 A 
ATOM      4  C   UNL     1       0.942   9.180  20.086  0.00  0.00    +0.000 A 
ATOM      5  C   UNL     1       1.501   8.083  20.747  0.00  0.00    +0.000 A 
ATOM      6  C   UNL     1       2.206   7.118  20.032  0.00  0.00    +0.000 A 
ENDROOT
BRANCH   4   7
ATOM      7  C   UNL     1       0.106  10.180  20.791  0.00  0.00    +0.000 C 
ATOM      8  N   UNL     1       0.211  11.479  20.814  0.00  0.00    +0.000 NA
BRANCH   8   9
ATOM      9  N   UNL     1       1.282  12.056  20.211  0.00  0.00    +0.000 N 
ATOM     10  C   UNL     1       1.308  13.267  19.598  0.00  0.00    +0.000 A 
ATOM     11  N   UNL     1       2.396  13.702  19.001  0.00  0.00    +0.000 NA
ATOM     12  C   UNL     1       2.199  14.977  18.506  0.00  0.00    +0.000 A 
ATOM     13  C   UNL     1       3.158  15.756  17.826  0.00  0.00    +0.000 A 
ATOM     14  C   UNL     1       2.841  17.060  17.433  0.00  0.00    +0.000 A 
ATOM     15  C   UNL     1       1.581  17.588  17.698  0.00  0.00    +0.000 A 
ATOM     16  C   UNL     1       0.603  16.822  18.342  0.00  0.00    +0.000 A 
ATOM     17  C   UNL     1       0.935  15.516  18.737  0.00  0.00    +0.000 A 
ATOM     18  S   UNL     1      -0.033  14.342  19.537  0.00  0.00    +0.000 S 
ATOM     19  H   UNL     1       2.208  11.664  20.360  0.00  0.00    +0.000 HD
ENDBRANCH   8   9
ENDBRANCH   4   7
BRANCH   1  20
ATOM     20  O   UNL     1       3.189   6.422  17.899  0.00  0.00    +0.000 OA
BRANCH  20  27
ATOM     21 CL   UNL     1       5.535   5.164  19.228  0.00  0.00    +0.000 Cl
ATOM     22  C   UNL     1       4.090   4.366  18.721  0.00  0.00    +0.000 A 
ATOM     23  C   UNL     1       3.982   2.988  18.934  0.00  0.00    +0.000 A 
ATOM     24  C   UNL     1       2.831   2.306  18.543  0.00  0.00    +0.000 A 
ATOM     25  C   UNL     1       1.769   3.003  17.972  0.00  0.00    +0.000 A 
ATOM     26  C   UNL     1       1.861   4.383  17.785  0.00  0.00    +0.000 A 
ATOM     27  C   UNL     1       3.042   5.065  18.110  0.00  0.00    +0.000 A 
ENDBRANCH  20  27
ENDBRANCH   1  20
TORSDOF 4
ENDMDL
MODEL 5
REMARK VINA RESULT:      -7.7      1.369      1.831
REMARK  Name = 
REMARK  4 active torsions:
REMARK  status: ('A' for Active; 'I' for Inactive)
REMARK    1  A    between atoms: C_7  and  O_8
REMARK    2  A    between atoms: O_8  and  C_9
REMARK    3  A    between atoms: C_12  and  C_13
REMARK    4  A    between atoms: N_14  and  N_15
REMARK                            x       y       z     vdW  Elec       q    Type
REMARK                         _______ _______ _______ _____ _____    ______ ____
ROOT
ATOM      1  C   UNL     1       1.833   7.780  20.070  0.00  0.00    +0.000 A 
ATOM      2  C   UNL     1       1.779   8.523  18.886  0.00  0.00    +0.000 A 
ATOM      3  C   UNL     1       0.921   9.623  18.784  0.00  0.00    +0.000 A 
ATOM      4  C   UNL     1       0.111   9.980  19.869  0.00  0.00    +0.000 A 
ATOM      5  C   UNL     1       0.201   9.260  21.063  0.00  0.00    +0.000 A 
ATOM      6  C   UNL     1       1.011   8.129  21.143  0.00  0.00    +0.000 A 
ENDROOT
BRANCH   4   7
ATOM      7  C   UNL     1      -0.808  11.131  19.712  0.00  0.00    +0.000 C 
ATOM      8  N   UNL     1      -0.658  12.368  20.092  0.00  0.00    +0.000 NA
BRANCH   8   9
ATOM      9  N   UNL     1       0.430  12.693  20.837  0.00  0.00    +0.000 N 
ATOM     10  C   UNL     1       1.573  13.270  20.389  0.00  0.00    +0.000 A 
ATOM     11  N   UNL     1       2.585  13.492  21.200  0.00  0.00    +0.000 NA
ATOM     12  C   UNL     1       3.607  14.140  20.532  0.00  0.00    +0.000 A 
ATOM     13  C   UNL     1       4.832  14.550  21.096  0.00  0.00    +0.000 A 
ATOM     14  C   UNL     1       5.755  15.254  20.315  0.00  0.00    +0.000 A 
ATOM     15  C   UNL     1       5.475  15.542  18.983  0.00  0.00    +0.000 A 
ATOM     16  C   UNL     1       4.280  15.117  18.393  0.00  0.00    +0.000 A 
ATOM     17  C   UNL     1       3.359  14.415  19.188  0.00  0.00    +0.000 A 
ATOM     18  S   UNL     1       1.824  13.768  18.762  0.00  0.00    +0.000 S 
ATOM     19  H   UNL     1       0.359  12.683  21.852  0.00  0.00    +0.000 HD
ENDBRANCH   8   9
ENDBRANCH   4   7
BRANCH   1  20
ATOM     20  O   UNL     1       2.694   6.704  20.077  0.00  0.00    +0.000 OA
BRANCH  20  27
ATOM     21 CL   UNL     1       3.796   5.854  17.448  0.00  0.00    +0.000 Cl
ATOM     22  C   UNL     1       2.678   4.974  18.429  0.00  0.00    +0.000 A 
ATOM     23  C   UNL     1       2.219   3.737  17.965  0.00  0.00    +0.000 A 
ATOM     24  C   UNL     1       1.320   2.994  18.728  0.00  0.00    +0.000 A 
ATOM     25  C   UNL     1       0.905   3.464  19.971  0.00  0.00    +0.000 A 
ATOM     26  C   UNL     1       1.384   4.684  20.449  0.00  0.00    +0.000 A 
ATOM     27  C   UNL     1       2.234   5.472  19.659  0.00  0.00    +0.000 A 
ENDBRANCH  20  27
ENDBRANCH   1  20
TORSDOF 4
ENDMDL
MODEL 6
REMARK VINA RESULT:      -7.7      1.662      2.061
REMARK  Name = 
REMARK  4 active torsions:
REMARK  status: ('A' for Active; 'I' for Inactive)
REMARK    1  A    between atoms: C_7  and  O_8
REMARK    2  A    between atoms: O_8  and  C_9
REMARK    3  A    between atoms: C_12  and  C_13
REMARK    4  A    between atoms: N_14  and  N_15
REMARK                            x       y       z     vdW  Elec       q    Type
REMARK                         _______ _______ _______ _____ _____    ______ ____
ROOT
ATOM      1  C   UNL     1       2.425   7.775  18.758  0.00  0.00    +0.000 A 
ATOM      2  C   UNL     1       1.880   8.719  17.880  0.00  0.00    +0.000 A 
ATOM      3  C   UNL     1       0.900   9.611  18.327  0.00  0.00    +0.000 A 
ATOM      4  C   UNL     1       0.460   9.559  19.654  0.00  0.00    +0.000 A 
ATOM      5  C   UNL     1       1.038   8.643  20.537  0.00  0.00    +0.000 A 
ATOM      6  C   UNL     1       1.970   7.715  20.077  0.00  0.00    +0.000 A 
ENDROOT
BRANCH   4   7
ATOM      7  C   UNL     1      -0.602  10.499  20.081  0.00  0.00    +0.000 C 
ATOM      8  N   UNL     1      -0.495  11.668  20.646  0.00  0.00    +0.000 NA
BRANCH   8   9
ATOM      9  N   UNL     1       0.738  12.100  21.020  0.00  0.00    +0.000 N 
ATOM     10  C   UNL     1       1.506  13.011  20.371  0.00  0.00    +0.000 A 
ATOM     11  N   UNL     1       2.710  13.313  20.803  0.00  0.00    +0.000 NA
ATOM     12  C   UNL     1       3.271  14.303  20.018  0.00  0.00    +0.000 A 
ATOM     13  C   UNL     1       4.543  14.883  20.203  0.00  0.00    +0.000 A 
ATOM     14  C   UNL     1       4.960  15.924  19.367  0.00  0.00    +0.000 A 
ATOM     15  C   UNL     1       4.132  16.381  18.346  0.00  0.00    +0.000 A 
ATOM     16  C   UNL     1       2.881  15.798  18.122  0.00  0.00    +0.000 A 
ATOM     17  C   UNL     1       2.470  14.758  18.972  0.00  0.00    +0.000 A 
ATOM     18  S   UNL     1       1.009  13.852  18.955  0.00  0.00    +0.000 S 
ATOM     19  H   UNL     1       1.079  11.882  21.953  0.00  0.00    +0.000 HD
ENDBRANCH   8   9
ENDBRANCH   4   7
BRANCH   1  20
ATOM     20  O   UNL     1       3.373   6.926  18.231  0.00  0.00    +0.000 OA
BRANCH  20  27
ATOM     21 CL   UNL     1       5.662   5.351  19.293  0.00  0.00    +0.000 Cl
ATOM     22  C   UNL     1       4.156   4.723  18.725  0.00  0.00    +0.000 A 
ATOM     23  C   UNL     1       3.964   3.338  18.745  0.00  0.00    +0.000 A 
ATOM     24  C   UNL     1       2.762   2.790  18.300  0.00  0.00    +0.000 A 
ATOM     25  C   UNL     1       1.734   3.625  17.867  0.00  0.00    +0.000 A 
ATOM     26  C   UNL     1       1.912   5.009  17.873  0.00  0.00    +0.000 A 
ATOM     27  C   UNL     1       3.143   5.565  18.253  0.00  0.00    +0.000 A 
ENDBRANCH  20  27
ENDBRANCH   1  20
TORSDOF 4
ENDMDL
MODEL 7
REMARK VINA RESULT:      -7.6      1.319      1.416
REMARK  Name = 
REMARK  4 active torsions:
REMARK  status: ('A' for Active; 'I' for Inactive)
REMARK    1  A    between atoms: C_7  and  O_8
REMARK    2  A    between atoms: O_8  and  C_9
REMARK    3  A    between atoms: C_12  and  C_13
REMARK    4  A    between atoms: N_14  and  N_15
REMARK                            x       y       z     vdW  Elec       q    Type
REMARK                         _______ _______ _______ _____ _____    ______ ____
ROOT
ATOM      1  C   UNL     1       1.894   7.758  19.952  0.00  0.00    +0.000 A 
ATOM      2  C   UNL     1       1.156   8.078  21.097  0.00  0.00    +0.000 A 
ATOM      3  C   UNL     1       0.317   9.197  21.104  0.00  0.00    +0.000 A 
ATOM      4  C   UNL     1       0.218  10.002  19.963  0.00  0.00    +0.000 A 
ATOM      5  C   UNL     1       0.924   9.654  18.809  0.00  0.00    +0.000 A 
ATOM      6  C   UNL     1       1.805   8.575  18.823  0.00  0.00    +0.000 A 
ENDROOT
BRANCH   4   7
ATOM      7  C   UNL     1      -0.656  11.197  20.020  0.00  0.00    +0.000 C 
ATOM      8  N   UNL     1      -0.385  12.402  20.435  0.00  0.00    +0.000 NA
BRANCH   8   9
ATOM      9  N   UNL     1       0.823  12.637  21.010  0.00  0.00    +0.000 N 
ATOM     10  C   UNL     1       1.795  13.459  20.539  0.00  0.00    +0.000 A 
ATOM     11  N   UNL     1       2.950  13.567  21.158  0.00  0.00    +0.000 NA
ATOM     12  C   UNL     1       3.750  14.502  20.529  0.00  0.00    +0.000 A 
ATOM     13  C   UNL     1       5.045  14.887  20.933  0.00  0.00    +0.000 A 
ATOM     14  C   UNL     1       5.719  15.895  20.235  0.00  0.00    +0.000 A 
ATOM     15  C   UNL     1       5.123  16.512  19.139  0.00  0.00    +0.000 A 
ATOM     16  C   UNL     1       3.853  16.124  18.701  0.00  0.00    +0.000 A 
ATOM     17  C   UNL     1       3.184  15.114  19.411  0.00  0.00    +0.000 A 
ATOM     18  S   UNL     1       1.634  14.426  19.126  0.00  0.00    +0.000 S 
ATOM     19  H   UNL     1       0.987  12.330  21.965  0.00  0.00    +0.000 HD
ENDBRANCH   8   9
ENDBRANCH   4   7
BRANCH   1  20
ATOM     20  O   UNL     1       2.706   6.648  20.038  0.00  0.00    +0.000 OA
BRANCH  20  27
ATOM     21 CL   UNL     1       3.688   5.843  17.348  0.00  0.00    +0.000 Cl
ATOM     22  C   UNL     1       2.610   4.950  18.360  0.00  0.00    +0.000 A 
ATOM     23  C   UNL     1       2.124   3.724  17.894  0.00  0.00    +0.000 A 
ATOM     24  C   UNL     1       1.255   2.970  18.681  0.00  0.00    +0.000 A 
ATOM     25  C   UNL     1       0.897   3.418  19.950  0.00  0.00    +0.000 A 
ATOM     26  C   UNL     1       1.403   4.627  20.429  0.00  0.00    +0.000 A 
ATOM     27  C   UNL     1       2.221   5.426  19.617  0.00  0.00    +0.000 A 
ENDBRANCH  20  27
ENDBRANCH   1  20
TORSDOF 4
ENDMDL
MODEL 8
REMARK VINA RESULT:      -7.6      2.585      3.409
REMARK  Name = 
REMARK  4 active torsions:
REMARK  status: ('A' for Active; 'I' for Inactive)
REMARK    1  A    between atoms: C_7  and  O_8
REMARK    2  A    between atoms: O_8  and  C_9
REMARK    3  A    between atoms: C_12  and  C_13
REMARK    4  A    between atoms: N_14  and  N_15
REMARK                            x       y       z     vdW  Elec       q    Type
REMARK                         _______ _______ _______ _____ _____    ______ ____
ROOT
ATOM      1  C   UNL     1       2.896   6.962  18.231  0.00  0.00    +0.000 A 
ATOM      2  C   UNL     1       2.599   6.735  19.580  0.00  0.00    +0.000 A 
ATOM      3  C   UNL     1       1.805   7.642  20.288  0.00  0.00    +0.000 A 
ATOM      4  C   UNL     1       1.309   8.783  19.647  0.00  0.00    +0.000 A 
ATOM      5  C   UNL     1       1.573   8.983  18.290  0.00  0.00    +0.000 A 
ATOM      6  C   UNL     1       2.414   8.111  17.602  0.00  0.00    +0.000 A 
ENDROOT
BRANCH   4   7
ATOM      7  C   UNL     1       0.498   9.738  20.439  0.00  0.00    +0.000 C 
ATOM      8  N   UNL     1       0.573  11.037  20.499  0.00  0.00    +0.000 NA
BRANCH   8   9
ATOM      9  N   UNL     1       1.587  11.661  19.847  0.00  0.00    +0.000 N 
ATOM     10  C   UNL     1       1.576  12.928  19.360  0.00  0.00    +0.000 A 
ATOM     11  N   UNL     1       2.605  13.409  18.698  0.00  0.00    +0.000 NA
ATOM     12  C   UNL     1       2.385  14.730  18.356  0.00  0.00    +0.000 A 
ATOM     13  C   UNL     1       3.285  15.564  17.660  0.00  0.00    +0.000 A 
ATOM     14  C   UNL     1       2.956  16.905  17.435  0.00  0.00    +0.000 A 
ATOM     15  C   UNL     1       1.742  17.416  17.883  0.00  0.00    +0.000 A 
ATOM     16  C   UNL     1       0.821  16.600  18.547  0.00  0.00    +0.000 A 
ATOM     17  C   UNL     1       1.164  15.257  18.771  0.00  0.00    +0.000 A 
ATOM     18  S   UNL     1       0.259  14.017  19.547  0.00  0.00    +0.000 S 
ATOM     19  H   UNL     1       2.515  11.246  19.858  0.00  0.00    +0.000 HD
ENDBRANCH   8   9
ENDBRANCH   4   7
BRANCH   1  20
ATOM     20  O   UNL     1       3.698   6.025  17.616  0.00  0.00    +0.000 OA
BRANCH  20  27
ATOM     21 CL   UNL     1       4.734   3.833  19.339  0.00  0.00    +0.000 Cl
ATOM     22  C   UNL     1       5.661   5.098  18.616  0.00  0.00    +0.000 A 
ATOM     23  C   UNL     1       7.039   5.129  18.850  0.00  0.00    +0.000 A 
ATOM     24  C   UNL     1       7.824   6.131  18.281  0.00  0.00    +0.000 A 
ATOM     25  C   UNL     1       7.243   7.084  17.448  0.00  0.00    +0.000 A 
ATOM     26  C   UNL     1       5.872   7.038  17.189  0.00  0.00    +0.000 A 
ATOM     27  C   UNL     1       5.063   6.076  17.812  0.00  0.00    +0.000 A 
ENDBRANCH  20  27
ENDBRANCH   1  20
TORSDOF 4
ENDMDL
MODEL 9
REMARK VINA RESULT:      -7.6      1.055      1.505
REMARK  Name = 
REMARK  4 active torsions:
REMARK  status: ('A' for Active; 'I' for Inactive)
REMARK    1  A    between atoms: C_7  and  O_8
REMARK    2  A    between atoms: O_8  and  C_9
REMARK    3  A    between atoms: C_12  and  C_13
REMARK    4  A    between atoms: N_14  and  N_15
REMARK                            x       y       z     vdW  Elec       q    Type
REMARK                         _______ _______ _______ _____ _____    ______ ____
ROOT
ATOM      1  C   UNL     1       2.321   7.455  19.404  0.00  0.00    +0.000 A 
ATOM      2  C   UNL     1       1.654   8.014  20.500  0.00  0.00    +0.000 A 
ATOM      3  C   UNL     1       0.863   9.156  20.334  0.00  0.00    +0.000 A 
ATOM      4  C   UNL     1       0.740   9.743  19.069  0.00  0.00    +0.000 A 
ATOM      5  C   UNL     1       1.374   9.155  17.971  0.00  0.00    +0.000 A 
ATOM      6  C   UNL     1       2.210   8.055  18.148  0.00  0.00    +0.000 A 
ENDROOT
BRANCH   4   7
ATOM      7  C   UNL     1      -0.081  10.969  18.940  0.00  0.00    +0.000 C 
ATOM      8  N   UNL     1       0.260  12.153  18.514  0.00  0.00    +0.000 NA
BRANCH   8   9
ATOM      9  N   UNL     1       1.567  12.391  18.231  0.00  0.00    +0.000 N 
ATOM     10  C   UNL     1       2.266  13.514  18.533  0.00  0.00    +0.000 A 
ATOM     11  N   UNL     1       3.520  13.653  18.162  0.00  0.00    +0.000 NA
ATOM     12  C   UNL     1       4.035  14.846  18.634  0.00  0.00    +0.000 A 
ATOM     13  C   UNL     1       5.352  15.310  18.442  0.00  0.00    +0.000 A 
ATOM     14  C   UNL     1       5.758  16.513  19.030  0.00  0.00    +0.000 A 
ATOM     15  C   UNL     1       4.864  17.258  19.793  0.00  0.00    +0.000 A 
ATOM     16  C   UNL     1       3.544  16.834  19.970  0.00  0.00    +0.000 A 
ATOM     17  C   UNL     1       3.150  15.623  19.379  0.00  0.00    +0.000 A 
ATOM     18  S   UNL     1       1.618  14.843  19.412  0.00  0.00    +0.000 S 
ATOM     19  H   UNL     1       2.158  11.622  17.927  0.00  0.00    +0.000 HD
ENDBRANCH   8   9
ENDBRANCH   4   7
BRANCH   1  20
ATOM     20  O   UNL     1       3.090   6.341  19.661  0.00  0.00    +0.000 OA
BRANCH  20  27
ATOM     21 CL   UNL     1       0.935   4.489  20.541  0.00  0.00    +0.000 Cl
ATOM     22  C   UNL     1       1.976   4.283  19.179  0.00  0.00    +0.000 A 
ATOM     23  C   UNL     1       1.823   3.136  18.393  0.00  0.00    +0.000 A 
ATOM     24  C   UNL     1       2.640   2.933  17.282  0.00  0.00    +0.000 A 
ATOM     25  C   UNL     1       3.588   3.890  16.930  0.00  0.00    +0.000 A 
ATOM     26  C   UNL     1       3.723   5.050  17.695  0.00  0.00    +0.000 A 
ATOM     27  C   UNL     1       2.955   5.230  18.854  0.00  0.00    +0.000 A 
ENDBRANCH  20  27
ENDBRANCH   1  20
TORSDOF 4
ENDMDL
