MODEL 1
REMARK VINA RESULT:      -7.6      0.000      0.000
REMARK  Name = 
REMARK  15 active torsions:
REMARK  status: ('A' for Active; 'I' for Inactive)
REMARK    1  A    between atoms: C_1  and  O_2
REMARK    2  A    between atoms: O_2  and  C_3
REMARK    3  A    between atoms: C_3  and  C_4
REMARK    4  A    between atoms: C_4  and  C_5
REMARK    5  A    between atoms: C_5  and  C_6
REMARK    6  A    between atoms: N_8  and  CA_9
REMARK    7  A    between atoms: CA_9  and  C_10
REMARK    8  A    between atoms: CA_9  and  C_27
REMARK    9  A    between atoms: C_10  and  C_11
REMARK   10  A    between atoms: C_14  and  C_15
REMARK   11  A    between atoms: C_16  and  O_17
REMARK   12  A    between atoms: O_17  and  C_18
REMARK   13  A    between atoms: C_22  and  O_23
REMARK   14  A    between atoms: O_23  and  C_24
REMARK   15  A    between atoms: C_27  and  OXT_29
REMARK                            x       y       z     vdW  Elec       q    Type
REMARK                         _______ _______ _______ _____ _____    ______ ____
ROOT
ATOM      1  CA  UNL     1       2.809   4.322  19.128  0.00  0.00    +0.000 C 
ENDROOT
BRANCH   1   4
ATOM      2  C   UNL     1       5.068   4.440  18.038  0.00  0.00    +0.000 C 
ATOM      3  O   UNL     1       5.560   3.814  18.979  0.00  0.00    +0.000 OA
ATOM      4  N   UNL     1       3.715   4.696  18.022  0.00  0.00    +0.000 N 
ATOM      5  H   UNL     1       3.322   5.073  17.161  0.00  0.00    +0.000 HD
BRANCH   2   6
ATOM      6  C   UNL     1       5.881   4.948  16.805  0.00  0.00    +0.000 C 
ATOM      7  C   UNL     1       5.424   6.350  16.401  0.00  0.00    +0.000 C 
ATOM      8  C   UNL     1       6.215   7.251  17.318  0.00  0.00    +0.000 C 
ATOM      9  C   UNL     1       7.471   6.459  17.618  0.00  0.00    +0.000 C 
ATOM     10  O   UNL     1       7.253   5.097  17.221  0.00  0.00    +0.000 OA
BRANCH   6  11
ATOM     11  C   UNL     1       5.814   3.915  15.664  0.00  0.00    +0.000 C 
BRANCH  11  12
ATOM     12  C   UNL     1       6.134   4.488  14.276  0.00  0.00    +0.000 C 
BRANCH  12  14
ATOM     13  C   UNL     1       6.709   3.589  12.176  0.00  0.00    +0.000 C 
ATOM     14  O   UNL     1       5.795   3.531  13.269  0.00  0.00    +0.000 OA
ENDBRANCH  12  14
ENDBRANCH  11  12
ENDBRANCH   6  11
ENDBRANCH   2   6
ENDBRANCH   1   4
BRANCH   1  15
ATOM     15  C   UNL     1       1.378   4.071  18.606  0.00  0.00    +0.000 C 
ATOM     16  O   UNL     1       1.015   4.250  17.448  0.00  0.00    +0.000 OA
BRANCH  15  17
ATOM     17  OXT UNL     1       0.505   3.700  19.570  0.00  0.00    +0.000 OA
ATOM     18  HXT UNL     1       0.945   3.205  20.304  0.00  0.00    +0.000 HD
ENDBRANCH  15  17
ENDBRANCH   1  15
BRANCH   1  19
ATOM     19  C   UNL     1       2.754   5.370  20.262  0.00  0.00    +0.000 C 
BRANCH  19  20
ATOM     20  C   UNL     1       2.303   6.769  19.916  0.00  0.00    +0.000 A 
ATOM     21  C   UNL     1       2.507   7.369  18.683  0.00  0.00    +0.000 A 
ATOM     22  C   UNL     1       1.916   8.608  18.374  0.00  0.00    +0.000 A 
ATOM     23  C   UNL     1       1.122   9.356  19.269  0.00  0.00    +0.000 A 
ATOM     24  C   UNL     1       1.049   8.765  20.549  0.00  0.00    +0.000 A 
ATOM     25  C   UNL     1       1.608   7.512  20.868  0.00  0.00    +0.000 A 
BRANCH  23  26
ATOM     26  C   UNL     1       0.427  10.681  18.891  0.00  0.00    +0.000 A 
ATOM     27  C   UNL     1      -0.818  10.733  18.171  0.00  0.00    +0.000 A 
ATOM     28  C   UNL     1      -1.422  11.955  17.805  0.00  0.00    +0.000 A 
ATOM     29  C   UNL     1      -0.844  13.166  18.123  0.00  0.00    +0.000 A 
ATOM     30  C   UNL     1       0.334  13.173  18.841  0.00  0.00    +0.000 A 
ATOM     31  C   UNL     1       0.968  11.970  19.224  0.00  0.00    +0.000 A 
BRANCH  27  32
ATOM     32  O   UNL     1      -1.496   9.567  17.896  0.00  0.00    +0.000 OA
ATOM     33  C   UNL     1      -2.893   9.638  17.633  0.00  0.00    +0.000 C 
ENDBRANCH  27  32
BRANCH  31  34
ATOM     34  O   UNL     1       2.076  12.065  20.035  0.00  0.00    +0.000 OA
ATOM     35  C   UNL     1       2.337  13.337  20.625  0.00  0.00    +0.000 C 
ENDBRANCH  31  34
ENDBRANCH  23  26
ENDBRANCH  19  20
ENDBRANCH   1  19
TORSDOF 12
ENDMDL
MODEL 2
REMARK VINA RESULT:      -7.6      1.328      1.816
REMARK  Name = 
REMARK  15 active torsions:
REMARK  status: ('A' for Active; 'I' for Inactive)
REMARK    1  A    between atoms: C_1  and  O_2
REMARK    2  A    between atoms: O_2  and  C_3
REMARK    3  A    between atoms: C_3  and  C_4
REMARK    4  A    between atoms: C_4  and  C_5
REMARK    5  A    between atoms: C_5  and  C_6
REMARK    6  A    between atoms: N_8  and  CA_9
REMARK    7  A    between atoms: CA_9  and  C_10
REMARK    8  A    between atoms: CA_9  and  C_27
REMARK    9  A    between atoms: C_10  and  C_11
REMARK   10  A    between atoms: C_14  and  C_15
REMARK   11  A    between atoms: C_16  and  O_17
REMARK   12  A    between atoms: O_17  and  C_18
REMARK   13  A    between atoms: C_22  and  O_23
REMARK   14  A    between atoms: O_23  and  C_24
REMARK   15  A    between atoms: C_27  and  OXT_29
REMARK                            x       y       z     vdW  Elec       q    Type
REMARK                         _______ _______ _______ _____ _____    ______ ____
ROOT
ATOM      1  CA  UNL     1       3.249   3.626  18.647  0.00  0.00    +0.000 C 
ENDROOT
BRANCH   1   4
ATOM      2  C   UNL     1       5.460   4.309  17.670  0.00  0.00    +0.000 C 
ATOM      3  O   UNL     1       6.042   3.850  18.655  0.00  0.00    +0.000 OA
ATOM      4  N   UNL     1       4.090   4.202  17.576  0.00  0.00    +0.000 N 
ATOM      5  H   UNL     1       3.663   4.448  16.685  0.00  0.00    +0.000 HD
BRANCH   2   6
ATOM      6  C   UNL     1       6.183   4.988  16.463  0.00  0.00    +0.000 C 
ATOM      7  C   UNL     1       5.426   6.239  16.019  0.00  0.00    +0.000 C 
ATOM      8  C   UNL     1       5.940   7.307  16.953  0.00  0.00    +0.000 C 
ATOM      9  C   UNL     1       7.334   6.837  17.318  0.00  0.00    +0.000 C 
ATOM     10  O   UNL     1       7.461   5.460  16.933  0.00  0.00    +0.000 OA
BRANCH   6  11
ATOM     11  C   UNL     1       6.412   3.962  15.337  0.00  0.00    +0.000 C 
BRANCH  11  12
ATOM     12  C   UNL     1       5.491   4.144  14.123  0.00  0.00    +0.000 C 
BRANCH  12  14
ATOM     13  C   UNL     1       5.126   3.247  11.975  0.00  0.00    +0.000 C 
ATOM     14  O   UNL     1       6.101   3.571  12.963  0.00  0.00    +0.000 OA
ENDBRANCH  12  14
ENDBRANCH  11  12
ENDBRANCH   6  11
ENDBRANCH   2   6
ENDBRANCH   1   4
BRANCH   1  15
ATOM     15  C   UNL     1       1.802   3.415  18.156  0.00  0.00    +0.000 C 
ATOM     16  O   UNL     1       1.305   3.973  17.184  0.00  0.00    +0.000 OA
BRANCH  15  17
ATOM     17  OXT UNL     1       1.072   2.598  18.950  0.00  0.00    +0.000 OA
ATOM     18  HXT UNL     1       0.575   3.095  19.644  0.00  0.00    +0.000 HD
ENDBRANCH  15  17
ENDBRANCH   1  15
BRANCH   1  19
ATOM     19  C   UNL     1       3.224   4.476  19.937  0.00  0.00    +0.000 C 
BRANCH  19  20
ATOM     20  C   UNL     1       2.429   5.760  19.927  0.00  0.00    +0.000 A 
ATOM     21  C   UNL     1       1.353   6.016  20.762  0.00  0.00    +0.000 A 
ATOM     22  C   UNL     1       0.765   7.293  20.815  0.00  0.00    +0.000 A 
ATOM     23  C   UNL     1       1.168   8.388  20.023  0.00  0.00    +0.000 A 
ATOM     24  C   UNL     1       2.180   8.044  19.100  0.00  0.00    +0.000 A 
ATOM     25  C   UNL     1       2.800   6.780  19.053  0.00  0.00    +0.000 A 
BRANCH  23  26
ATOM     26  C   UNL     1       0.555   9.800  20.141  0.00  0.00    +0.000 A 
ATOM     27  C   UNL     1      -0.094  10.465  19.043  0.00  0.00    +0.000 A 
ATOM     28  C   UNL     1      -0.620  11.769  19.161  0.00  0.00    +0.000 A 
ATOM     29  C   UNL     1      -0.536  12.474  20.343  0.00  0.00    +0.000 A 
ATOM     30  C   UNL     1       0.049  11.869  21.438  0.00  0.00    +0.000 A 
ATOM     31  C   UNL     1       0.586  10.566  21.357  0.00  0.00    +0.000 A 
BRANCH  27  32
ATOM     32  O   UNL     1      -0.292   9.790  17.859  0.00  0.00    +0.000 OA
ATOM     33  C   UNL     1      -1.558   9.899  17.218  0.00  0.00    +0.000 C 
ENDBRANCH  27  32
BRANCH  31  34
ATOM     34  O   UNL     1       1.048   9.994  22.521  0.00  0.00    +0.000 OA
ATOM     35  C   UNL     1       0.065   9.562  23.461  0.00  0.00    +0.000 C 
ENDBRANCH  31  34
ENDBRANCH  23  26
ENDBRANCH  19  20
ENDBRANCH   1  19
TORSDOF 12
ENDMDL
MODEL 3
REMARK VINA RESULT:      -7.5      0.360      1.051
REMARK  Name = 
REMARK  15 active torsions:
REMARK  status: ('A' for Active; 'I' for Inactive)
REMARK    1  A    between atoms: C_1  and  O_2
REMARK    2  A    between atoms: O_2  and  C_3
REMARK    3  A    between atoms: C_3  and  C_4
REMARK    4  A    between atoms: C_4  and  C_5
REMARK    5  A    between atoms: C_5  and  C_6
REMARK    6  A    between atoms: N_8  and  CA_9
REMARK    7  A    between atoms: CA_9  and  C_10
REMARK    8  A    between atoms: CA_9  and  C_27
REMARK    9  A    between atoms: C_10  and  C_11
REMARK   10  A    between atoms: C_14  and  C_15
REMARK   11  A    between atoms: C_16  and  O_17
REMARK   12  A    between atoms: O_17  and  C_18
REMARK   13  A    between atoms: C_22  and  O_23
REMARK   14  A    between atoms: O_23  and  C_24
REMARK   15  A    between atoms: C_27  and  OXT_29
REMARK                            x       y       z     vdW  Elec       q    Type
REMARK                         _______ _______ _______ _____ _____    ______ ____
ROOT
ATOM      1  CA  UNL     1       2.958   4.551  19.374  0.00  0.00    +0.000 C 
ENDROOT
BRANCH   1   4
ATOM      2  C   UNL     1       5.124   4.621  18.106  0.00  0.00    +0.000 C 
ATOM      3  O   UNL     1       5.702   4.088  19.054  0.00  0.00    +0.000 OA
ATOM      4  N   UNL     1       3.767   4.846  18.173  0.00  0.00    +0.000 N 
ATOM      5  H   UNL     1       3.300   5.140  17.317  0.00  0.00    +0.000 HD
BRANCH   2   6
ATOM      6  C   UNL     1       5.827   5.036  16.774  0.00  0.00    +0.000 C 
ATOM      7  C   UNL     1       5.324   6.401  16.304  0.00  0.00    +0.000 C 
ATOM      8  C   UNL     1       6.178   7.373  17.082  0.00  0.00    +0.000 C 
ATOM      9  C   UNL     1       7.463   6.612  17.336  0.00  0.00    +0.000 C 
ATOM     10  O   UNL     1       7.227   5.222  17.062  0.00  0.00    +0.000 OA
BRANCH   6  11
ATOM     11  C   UNL     1       5.677   3.920  15.724  0.00  0.00    +0.000 C 
BRANCH  11  12
ATOM     12  C   UNL     1       6.466   4.162  14.430  0.00  0.00    +0.000 C 
BRANCH  12  14
ATOM     13  C   UNL     1       6.440   3.370  12.211  0.00  0.00    +0.000 C 
ATOM     14  O   UNL     1       5.650   3.842  13.300  0.00  0.00    +0.000 OA
ENDBRANCH  12  14
ENDBRANCH  11  12
ENDBRANCH   6  11
ENDBRANCH   2   6
ENDBRANCH   1   4
BRANCH   1  15
ATOM     15  C   UNL     1       1.512   4.176  18.985  0.00  0.00    +0.000 C 
ATOM     16  O   UNL     1       0.646   3.817  19.775  0.00  0.00    +0.000 OA
BRANCH  15  17
ATOM     17  OXT UNL     1       1.285   4.201  17.652  0.00  0.00    +0.000 OA
ATOM     18  HXT UNL     1       0.320   4.242  17.437  0.00  0.00    +0.000 HD
ENDBRANCH  15  17
ENDBRANCH   1  15
BRANCH   1  19
ATOM     19  C   UNL     1       2.919   5.711  20.394  0.00  0.00    +0.000 C 
BRANCH  19  20
ATOM     20  C   UNL     1       2.146   6.955  20.026  0.00  0.00    +0.000 A 
ATOM     21  C   UNL     1       1.253   7.594  20.872  0.00  0.00    +0.000 A 
ATOM     22  C   UNL     1       0.695   8.839  20.529  0.00  0.00    +0.000 A 
ATOM     23  C   UNL     1       0.944   9.516  19.316  0.00  0.00    +0.000 A 
ATOM     24  C   UNL     1       1.756   8.767  18.437  0.00  0.00    +0.000 A 
ATOM     25  C   UNL     1       2.348   7.534  18.775  0.00  0.00    +0.000 A 
BRANCH  23  26
ATOM     26  C   UNL     1       0.374  10.911  18.985  0.00  0.00    +0.000 A 
ATOM     27  C   UNL     1      -0.900  11.103  18.345  0.00  0.00    +0.000 A 
ATOM     28  C   UNL     1      -1.390  12.387  18.020  0.00  0.00    +0.000 A 
ATOM     29  C   UNL     1      -0.665  13.525  18.302  0.00  0.00    +0.000 A 
ATOM     30  C   UNL     1       0.550  13.399  18.944  0.00  0.00    +0.000 A 
ATOM     31  C   UNL     1       1.072  12.132  19.285  0.00  0.00    +0.000 A 
BRANCH  27  32
ATOM     32  O   UNL     1      -1.716  10.020  18.112  0.00  0.00    +0.000 OA
ATOM     33  C   UNL     1      -2.377   9.923  16.855  0.00  0.00    +0.000 C 
ENDBRANCH  27  32
BRANCH  31  34
ATOM     34  O   UNL     1       2.232  12.099  20.024  0.00  0.00    +0.000 OA
ATOM     35  C   UNL     1       2.580  13.289  20.731  0.00  0.00    +0.000 C 
ENDBRANCH  31  34
ENDBRANCH  23  26
ENDBRANCH  19  20
ENDBRANCH   1  19
TORSDOF 12
ENDMDL
MODEL 4
REMARK VINA RESULT:      -7.4      0.632      2.359
REMARK  Name = 
REMARK  15 active torsions:
REMARK  status: ('A' for Active; 'I' for Inactive)
REMARK    1  A    between atoms: C_1  and  O_2
REMARK    2  A    between atoms: O_2  and  C_3
REMARK    3  A    between atoms: C_3  and  C_4
REMARK    4  A    between atoms: C_4  and  C_5
REMARK    5  A    between atoms: C_5  and  C_6
REMARK    6  A    between atoms: N_8  and  CA_9
REMARK    7  A    between atoms: CA_9  and  C_10
REMARK    8  A    between atoms: CA_9  and  C_27
REMARK    9  A    between atoms: C_10  and  C_11
REMARK   10  A    between atoms: C_14  and  C_15
REMARK   11  A    between atoms: C_16  and  O_17
REMARK   12  A    between atoms: O_17  and  C_18
REMARK   13  A    between atoms: C_22  and  O_23
REMARK   14  A    between atoms: O_23  and  C_24
REMARK   15  A    between atoms: C_27  and  OXT_29
REMARK                            x       y       z     vdW  Elec       q    Type
REMARK                         _______ _______ _______ _____ _____    ______ ____
ROOT
ATOM      1  CA  UNL     1       2.861   4.423  19.125  0.00  0.00    +0.000 C 
ENDROOT
BRANCH   1   4
ATOM      2  C   UNL     1       5.050   4.634  17.912  0.00  0.00    +0.000 C 
ATOM      3  O   UNL     1       5.581   3.880  18.729  0.00  0.00    +0.000 OA
ATOM      4  N   UNL     1       3.706   4.918  18.018  0.00  0.00    +0.000 N 
ATOM      5  H   UNL     1       3.272   5.413  17.241  0.00  0.00    +0.000 HD
BRANCH   2   6
ATOM      6  C   UNL     1       5.798   5.280  16.702  0.00  0.00    +0.000 C 
ATOM      7  C   UNL     1       5.426   6.757  16.567  0.00  0.00    +0.000 C 
ATOM      8  C   UNL     1       6.360   7.440  17.536  0.00  0.00    +0.000 C 
ATOM      9  C   UNL     1       7.568   6.527  17.589  0.00  0.00    +0.000 C 
ATOM     10  O   UNL     1       7.207   5.266  17.006  0.00  0.00    +0.000 OA
BRANCH   6  11
ATOM     11  C   UNL     1       5.554   4.454  15.425  0.00  0.00    +0.000 C 
BRANCH  11  12
ATOM     12  C   UNL     1       6.810   4.225  14.573  0.00  0.00    +0.000 C 
BRANCH  12  14
ATOM     13  C   UNL     1       7.807   5.161  12.654  0.00  0.00    +0.000 C 
ATOM     14  O   UNL     1       7.162   5.434  13.896  0.00  0.00    +0.000 OA
ENDBRANCH  12  14
ENDBRANCH  11  12
ENDBRANCH   6  11
ENDBRANCH   2   6
ENDBRANCH   1   4
BRANCH   1  15
ATOM     15  C   UNL     1       1.460   4.027  18.612  0.00  0.00    +0.000 C 
ATOM     16  O   UNL     1       1.087   4.130  17.448  0.00  0.00    +0.000 OA
BRANCH  15  17
ATOM     17  OXT UNL     1       0.620   3.616  19.589  0.00  0.00    +0.000 OA
ATOM     18  HXT UNL     1       1.067   3.561  20.469  0.00  0.00    +0.000 HD
ENDBRANCH  15  17
ENDBRANCH   1  15
BRANCH   1  19
ATOM     19  C   UNL     1       2.705   5.435  20.283  0.00  0.00    +0.000 C 
BRANCH  19  20
ATOM     20  C   UNL     1       2.254   6.836  19.946  0.00  0.00    +0.000 A 
ATOM     21  C   UNL     1       2.486   7.457  18.730  0.00  0.00    +0.000 A 
ATOM     22  C   UNL     1       1.894   8.697  18.425  0.00  0.00    +0.000 A 
ATOM     23  C   UNL     1       1.069   9.424  19.308  0.00  0.00    +0.000 A 
ATOM     24  C   UNL     1       0.966   8.812  20.577  0.00  0.00    +0.000 A 
ATOM     25  C   UNL     1       1.526   7.558  20.890  0.00  0.00    +0.000 A 
BRANCH  23  26
ATOM     26  C   UNL     1       0.375  10.750  18.933  0.00  0.00    +0.000 A 
ATOM     27  C   UNL     1       0.894  12.038  19.309  0.00  0.00    +0.000 A 
ATOM     28  C   UNL     1       0.228  13.239  18.984  0.00  0.00    +0.000 A 
ATOM     29  C   UNL     1      -0.962  13.235  18.286  0.00  0.00    +0.000 A 
ATOM     30  C   UNL     1      -1.487  12.027  17.873  0.00  0.00    +0.000 A 
ATOM     31  C   UNL     1      -0.849  10.805  18.180  0.00  0.00    +0.000 A 
BRANCH  27  32
ATOM     32  O   UNL     1       2.119  12.124  19.930  0.00  0.00    +0.000 OA
ATOM     33  C   UNL     1       2.483  13.352  20.551  0.00  0.00    +0.000 C 
ENDBRANCH  27  32
BRANCH  31  34
ATOM     34  O   UNL     1      -1.376   9.657  17.634  0.00  0.00    +0.000 OA
ATOM     35  C   UNL     1      -2.377   9.821  16.631  0.00  0.00    +0.000 C 
ENDBRANCH  31  34
ENDBRANCH  23  26
ENDBRANCH  19  20
ENDBRANCH   1  19
TORSDOF 12
ENDMDL
MODEL 5
REMARK VINA RESULT:      -7.3      0.428      2.442
REMARK  Name = 
REMARK  15 active torsions:
REMARK  status: ('A' for Active; 'I' for Inactive)
REMARK    1  A    between atoms: C_1  and  O_2
REMARK    2  A    between atoms: O_2  and  C_3
REMARK    3  A    between atoms: C_3  and  C_4
REMARK    4  A    between atoms: C_4  and  C_5
REMARK    5  A    between atoms: C_5  and  C_6
REMARK    6  A    between atoms: N_8  and  CA_9
REMARK    7  A    between atoms: CA_9  and  C_10
REMARK    8  A    between atoms: CA_9  and  C_27
REMARK    9  A    between atoms: C_10  and  C_11
REMARK   10  A    between atoms: C_14  and  C_15
REMARK   11  A    between atoms: C_16  and  O_17
REMARK   12  A    between atoms: O_17  and  C_18
REMARK   13  A    between atoms: C_22  and  O_23
REMARK   14  A    between atoms: O_23  and  C_24
REMARK   15  A    between atoms: C_27  and  OXT_29
REMARK                            x       y       z     vdW  Elec       q    Type
REMARK                         _______ _______ _______ _____ _____    ______ ____
ROOT
ATOM      1  CA  UNL     1       2.896   4.466  19.460  0.00  0.00    +0.000 C 
ENDROOT
BRANCH   1   4
ATOM      2  C   UNL     1       5.007   4.528  18.100  0.00  0.00    +0.000 C 
ATOM      3  O   UNL     1       5.609   3.938  18.998  0.00  0.00    +0.000 OA
ATOM      4  N   UNL     1       3.661   4.790  18.237  0.00  0.00    +0.000 N 
ATOM      5  H   UNL     1       3.167   5.134  17.416  0.00  0.00    +0.000 HD
BRANCH   2   6
ATOM      6  C   UNL     1       5.663   4.980  16.757  0.00  0.00    +0.000 C 
ATOM      7  C   UNL     1       5.213   6.394  16.388  0.00  0.00    +0.000 C 
ATOM      8  C   UNL     1       6.157   7.275  17.170  0.00  0.00    +0.000 C 
ATOM      9  C   UNL     1       7.410   6.435  17.314  0.00  0.00    +0.000 C 
ATOM     10  O   UNL     1       7.084   5.077  16.979  0.00  0.00    +0.000 OA
BRANCH   6  11
ATOM     11  C   UNL     1       5.400   3.934  15.658  0.00  0.00    +0.000 C 
BRANCH  11  12
ATOM     12  C   UNL     1       6.397   3.979  14.493  0.00  0.00    +0.000 C 
BRANCH  12  14
ATOM     13  C   UNL     1       6.625   3.592  12.179  0.00  0.00    +0.000 C 
ATOM     14  O   UNL     1       5.708   3.764  13.258  0.00  0.00    +0.000 OA
ENDBRANCH  12  14
ENDBRANCH  11  12
ENDBRANCH   6  11
ENDBRANCH   2   6
ENDBRANCH   1   4
BRANCH   1  15
ATOM     15  C   UNL     1       1.455   4.041  19.110  0.00  0.00    +0.000 C 
ATOM     16  O   UNL     1       1.021   3.913  17.970  0.00  0.00    +0.000 OA
BRANCH  15  17
ATOM     17  OXT UNL     1       0.656   3.888  20.190  0.00  0.00    +0.000 OA
ATOM     18  HXT UNL     1       0.279   2.976  20.252  0.00  0.00    +0.000 HD
ENDBRANCH  15  17
ENDBRANCH   1  15
BRANCH   1  19
ATOM     19  C   UNL     1       2.845   5.624  20.481  0.00  0.00    +0.000 C 
BRANCH  19  20
ATOM     20  C   UNL     1       2.064   6.863  20.112  0.00  0.00    +0.000 A 
ATOM     21  C   UNL     1       1.105   7.448  20.923  0.00  0.00    +0.000 A 
ATOM     22  C   UNL     1       0.537   8.692  20.592  0.00  0.00    +0.000 A 
ATOM     23  C   UNL     1       0.844   9.421  19.424  0.00  0.00    +0.000 A 
ATOM     24  C   UNL     1       1.728   8.726  18.570  0.00  0.00    +0.000 A 
ATOM     25  C   UNL     1       2.329   7.495  18.899  0.00  0.00    +0.000 A 
BRANCH  23  26
ATOM     26  C   UNL     1       0.261  10.815  19.108  0.00  0.00    +0.000 A 
ATOM     27  C   UNL     1       0.775  12.027  19.690  0.00  0.00    +0.000 A 
ATOM     28  C   UNL     1       0.208  13.290  19.415  0.00  0.00    +0.000 A 
ATOM     29  C   UNL     1      -0.873  13.423  18.570  0.00  0.00    +0.000 A 
ATOM     30  C   UNL     1      -1.385  12.296  17.961  0.00  0.00    +0.000 A 
ATOM     31  C   UNL     1      -0.844  11.016  18.211  0.00  0.00    +0.000 A 
BRANCH  27  32
ATOM     32  O   UNL     1       1.906  11.980  20.474  0.00  0.00    +0.000 OA
ATOM     33  C   UNL     1       2.606  13.193  20.731  0.00  0.00    +0.000 C 
ENDBRANCH  27  32
BRANCH  31  34
ATOM     34  O   UNL     1      -1.337   9.961  17.477  0.00  0.00    +0.000 OA
ATOM     35  C   UNL     1      -2.624  10.134  16.885  0.00  0.00    +0.000 C 
ENDBRANCH  31  34
ENDBRANCH  23  26
ENDBRANCH  19  20
ENDBRANCH   1  19
TORSDOF 12
ENDMDL
MODEL 6
REMARK VINA RESULT:      -7.2      2.575      9.125
REMARK  Name = 
REMARK  15 active torsions:
REMARK  status: ('A' for Active; 'I' for Inactive)
REMARK    1  A    between atoms: C_1  and  O_2
REMARK    2  A    between atoms: O_2  and  C_3
REMARK    3  A    between atoms: C_3  and  C_4
REMARK    4  A    between atoms: C_4  and  C_5
REMARK    5  A    between atoms: C_5  and  C_6
REMARK    6  A    between atoms: N_8  and  CA_9
REMARK    7  A    between atoms: CA_9  and  C_10
REMARK    8  A    between atoms: CA_9  and  C_27
REMARK    9  A    between atoms: C_10  and  C_11
REMARK   10  A    between atoms: C_14  and  C_15
REMARK   11  A    between atoms: C_16  and  O_17
REMARK   12  A    between atoms: O_17  and  C_18
REMARK   13  A    between atoms: C_22  and  O_23
REMARK   14  A    between atoms: O_23  and  C_24
REMARK   15  A    between atoms: C_27  and  OXT_29
REMARK                            x       y       z     vdW  Elec       q    Type
REMARK                         _______ _______ _______ _____ _____    ______ ____
ROOT
ATOM      1  CA  UNL     1       0.091  11.780  18.966  0.00  0.00    +0.000 C 
ENDROOT
BRANCH   1   4
ATOM      2  C   UNL     1       2.181  13.168  18.859  0.00  0.00    +0.000 C 
ATOM      3  O   UNL     1       2.639  12.420  17.994  0.00  0.00    +0.000 OA
ATOM      4  N   UNL     1       0.918  12.941  19.359  0.00  0.00    +0.000 N 
ATOM      5  H   UNL     1       0.513  13.664  19.950  0.00  0.00    +0.000 HD
BRANCH   2   6
ATOM      6  C   UNL     1       2.930  14.418  19.420  0.00  0.00    +0.000 C 
ATOM      7  C   UNL     1       4.110  14.787  18.520  0.00  0.00    +0.000 C 
ATOM      8  C   UNL     1       3.474  15.627  17.440  0.00  0.00    +0.000 C 
ATOM      9  C   UNL     1       2.267  16.245  18.117  0.00  0.00    +0.000 C 
ATOM     10  O   UNL     1       2.025  15.538  19.342  0.00  0.00    +0.000 OA
BRANCH   6  11
ATOM     11  C   UNL     1       3.316  14.189  20.893  0.00  0.00    +0.000 C 
BRANCH  11  12
ATOM     12  C   UNL     1       2.450  14.960  21.898  0.00  0.00    +0.000 C 
BRANCH  12  14
ATOM     13  C   UNL     1       0.116  15.046  22.214  0.00  0.00    +0.000 C 
ATOM     14  O   UNL     1       1.270  14.208  22.196  0.00  0.00    +0.000 OA
ENDBRANCH  12  14
ENDBRANCH  11  12
ENDBRANCH   6  11
ENDBRANCH   2   6
ENDBRANCH   1   4
BRANCH   1  15
ATOM     15  C   UNL     1      -1.399  12.173  18.875  0.00  0.00    +0.000 C 
ATOM     16  O   UNL     1      -2.118  11.968  17.903  0.00  0.00    +0.000 OA
BRANCH  15  17
ATOM     17  OXT UNL     1      -1.849  12.851  19.955  0.00  0.00    +0.000 OA
ATOM     18  HXT UNL     1      -1.296  12.688  20.758  0.00  0.00    +0.000 HD
ENDBRANCH  15  17
ENDBRANCH   1  15
BRANCH   1  19
ATOM     19  C   UNL     1       0.235  10.570  19.916  0.00  0.00    +0.000 C 
BRANCH  19  20
ATOM     20  C   UNL     1       1.111   9.422  19.476  0.00  0.00    +0.000 A 
ATOM     21  C   UNL     1       1.550   8.412  20.318  0.00  0.00    +0.000 A 
ATOM     22  C   UNL     1       2.223   7.286  19.808  0.00  0.00    +0.000 A 
ATOM     23  C   UNL     1       2.543   7.099  18.447  0.00  0.00    +0.000 A 
ATOM     24  C   UNL     1       2.188   8.209  17.651  0.00  0.00    +0.000 A 
ATOM     25  C   UNL     1       1.488   9.331  18.138  0.00  0.00    +0.000 A 
BRANCH  23  26
ATOM     26  C   UNL     1       3.222   5.827  17.896  0.00  0.00    +0.000 A 
ATOM     27  C   UNL     1       4.572   5.815  17.399  0.00  0.00    +0.000 A 
ATOM     28  C   UNL     1       5.166   4.649  16.869  0.00  0.00    +0.000 A 
ATOM     29  C   UNL     1       4.475   3.458  16.802  0.00  0.00    +0.000 A 
ATOM     30  C   UNL     1       3.187   3.407  17.296  0.00  0.00    +0.000 A 
ATOM     31  C   UNL     1       2.561   4.552  17.833  0.00  0.00    +0.000 A 
BRANCH  27  32
ATOM     32  O   UNL     1       5.351   6.944  17.514  0.00  0.00    +0.000 OA
ATOM     33  C   UNL     1       6.758   6.821  17.339  0.00  0.00    +0.000 C 
ENDBRANCH  27  32
BRANCH  31  34
ATOM     34  O   UNL     1       1.320   4.389  18.407  0.00  0.00    +0.000 OA
ATOM     35  C   UNL     1       1.206   3.397  19.426  0.00  0.00    +0.000 C 
ENDBRANCH  31  34
ENDBRANCH  23  26
ENDBRANCH  19  20
ENDBRANCH   1  19
TORSDOF 12
ENDMDL
MODEL 7
REMARK VINA RESULT:      -7.1      1.251      1.553
REMARK  Name = 
REMARK  15 active torsions:
REMARK  status: ('A' for Active; 'I' for Inactive)
REMARK    1  A    between atoms: C_1  and  O_2
REMARK    2  A    between atoms: O_2  and  C_3
REMARK    3  A    between atoms: C_3  and  C_4
REMARK    4  A    between atoms: C_4  and  C_5
REMARK    5  A    between atoms: C_5  and  C_6
REMARK    6  A    between atoms: N_8  and  CA_9
REMARK    7  A    between atoms: CA_9  and  C_10
REMARK    8  A    between atoms: CA_9  and  C_27
REMARK    9  A    between atoms: C_10  and  C_11
REMARK   10  A    between atoms: C_14  and  C_15
REMARK   11  A    between atoms: C_16  and  O_17
REMARK   12  A    between atoms: O_17  and  C_18
REMARK   13  A    between atoms: C_22  and  O_23
REMARK   14  A    between atoms: O_23  and  C_24
REMARK   15  A    between atoms: C_27  and  OXT_29
REMARK                            x       y       z     vdW  Elec       q    Type
REMARK                         _______ _______ _______ _____ _____    ______ ____
ROOT
ATOM      1  CA  UNL     1       2.824   3.778  18.743  0.00  0.00    +0.000 C 
ENDROOT
BRANCH   1   4
ATOM      2  C   UNL     1       5.005   4.302  17.614  0.00  0.00    +0.000 C 
ATOM      3  O   UNL     1       5.617   3.747  18.528  0.00  0.00    +0.000 OA
ATOM      4  N   UNL     1       3.628   4.324  17.629  0.00  0.00    +0.000 N 
ATOM      5  H   UNL     1       3.158   4.649  16.786  0.00  0.00    +0.000 HD
BRANCH   2   6
ATOM      6  C   UNL     1       5.692   4.967  16.379  0.00  0.00    +0.000 C 
ATOM      7  C   UNL     1       5.183   6.396  16.186  0.00  0.00    +0.000 C 
ATOM      8  C   UNL     1       6.046   7.202  17.125  0.00  0.00    +0.000 C 
ATOM      9  C   UNL     1       7.335   6.409  17.213  0.00  0.00    +0.000 C 
ATOM     10  O   UNL     1       7.095   5.098  16.680  0.00  0.00    +0.000 OA
BRANCH   6  11
ATOM     11  C   UNL     1       5.529   4.073  15.135  0.00  0.00    +0.000 C 
BRANCH  11  12
ATOM     12  C   UNL     1       6.355   4.523  13.923  0.00  0.00    +0.000 C 
BRANCH  12  14
ATOM     13  C   UNL     1       5.480   3.299  12.109  0.00  0.00    +0.000 C 
ATOM     14  O   UNL     1       6.555   3.417  13.038  0.00  0.00    +0.000 OA
ENDBRANCH  12  14
ENDBRANCH  11  12
ENDBRANCH   6  11
ENDBRANCH   2   6
ENDBRANCH   1   4
BRANCH   1  15
ATOM     15  C   UNL     1       1.333   3.691  18.354  0.00  0.00    +0.000 C 
ATOM     16  O   UNL     1       0.493   3.024  18.948  0.00  0.00    +0.000 OA
BRANCH  15  17
ATOM     17  OXT UNL     1       1.026   4.369  17.224  0.00  0.00    +0.000 OA
ATOM     18  HXT UNL     1       0.121   4.151  16.890  0.00  0.00    +0.000 HD
ENDBRANCH  15  17
ENDBRANCH   1  15
BRANCH   1  19
ATOM     19  C   UNL     1       2.956   4.585  20.054  0.00  0.00    +0.000 C 
BRANCH  19  20
ATOM     20  C   UNL     1       2.421   5.997  20.076  0.00  0.00    +0.000 A 
ATOM     21  C   UNL     1       2.727   6.959  19.127  0.00  0.00    +0.000 A 
ATOM     22  C   UNL     1       2.065   8.201  19.114  0.00  0.00    +0.000 A 
ATOM     23  C   UNL     1       1.089   8.592  20.055  0.00  0.00    +0.000 A 
ATOM     24  C   UNL     1       0.904   7.630  21.072  0.00  0.00    +0.000 A 
ATOM     25  C   UNL     1       1.536   6.371  21.085  0.00  0.00    +0.000 A 
BRANCH  23  26
ATOM     26  C   UNL     1       0.324   9.931  19.986  0.00  0.00    +0.000 A 
ATOM     27  C   UNL     1      -0.341  10.391  18.796  0.00  0.00    +0.000 A 
ATOM     28  C   UNL     1      -1.008  11.633  18.743  0.00  0.00    +0.000 A 
ATOM     29  C   UNL     1      -1.054  12.472  19.836  0.00  0.00    +0.000 A 
ATOM     30  C   UNL     1      -0.458  12.064  21.013  0.00  0.00    +0.000 A 
ATOM     31  C   UNL     1       0.218  10.828  21.104  0.00  0.00    +0.000 A 
BRANCH  27  32
ATOM     32  O   UNL     1      -0.412   9.569  17.694  0.00  0.00    +0.000 OA
ATOM     33  C   UNL     1      -1.572   9.631  16.873  0.00  0.00    +0.000 C 
ENDBRANCH  27  32
BRANCH  31  34
ATOM     34  O   UNL     1       0.684  10.447  22.342  0.00  0.00    +0.000 OA
ATOM     35  C   UNL     1      -0.287   9.991  23.284  0.00  0.00    +0.000 C 
ENDBRANCH  31  34
ENDBRANCH  23  26
ENDBRANCH  19  20
ENDBRANCH   1  19
TORSDOF 12
ENDMDL
MODEL 8
REMARK VINA RESULT:      -7.0      1.741      3.086
REMARK  Name = 
REMARK  15 active torsions:
REMARK  status: ('A' for Active; 'I' for Inactive)
REMARK    1  A    between atoms: C_1  and  O_2
REMARK    2  A    between atoms: O_2  and  C_3
REMARK    3  A    between atoms: C_3  and  C_4
REMARK    4  A    between atoms: C_4  and  C_5
REMARK    5  A    between atoms: C_5  and  C_6
REMARK    6  A    between atoms: N_8  and  CA_9
REMARK    7  A    between atoms: CA_9  and  C_10
REMARK    8  A    between atoms: CA_9  and  C_27
REMARK    9  A    between atoms: C_10  and  C_11
REMARK   10  A    between atoms: C_14  and  C_15
REMARK   11  A    between atoms: C_16  and  O_17
REMARK   12  A    between atoms: O_17  and  C_18
REMARK   13  A    between atoms: C_22  and  O_23
REMARK   14  A    between atoms: O_23  and  C_24
REMARK   15  A    between atoms: C_27  and  OXT_29
REMARK                            x       y       z     vdW  Elec       q    Type
REMARK                         _______ _______ _______ _____ _____    ______ ____
ROOT
ATOM      1  CA  UNL     1       3.941   5.076  19.766  0.00  0.00    +0.000 C 
ENDROOT
BRANCH   1   4
ATOM      2  C   UNL     1       6.120   5.769  18.726  0.00  0.00    +0.000 C 
ATOM      3  O   UNL     1       6.717   5.454  19.757  0.00  0.00    +0.000 OA
ATOM      4  N   UNL     1       4.758   5.576  18.641  0.00  0.00    +0.000 N 
ATOM      5  H   UNL     1       4.327   5.698  17.726  0.00  0.00    +0.000 HD
BRANCH   2   6
ATOM      6  C   UNL     1       6.815   6.349  17.454  0.00  0.00    +0.000 C 
ATOM      7  C   UNL     1       7.111   5.236  16.448  0.00  0.00    +0.000 C 
ATOM      8  C   UNL     1       5.810   5.092  15.697  0.00  0.00    +0.000 C 
ATOM      9  C   UNL     1       5.181   6.468  15.784  0.00  0.00    +0.000 C 
ATOM     10  O   UNL     1       5.868   7.216  16.799  0.00  0.00    +0.000 OA
BRANCH   6  11
ATOM     11  C   UNL     1       8.053   7.174  17.855  0.00  0.00    +0.000 C 
BRANCH  11  12
ATOM     12  C   UNL     1       7.859   8.693  17.749  0.00  0.00    +0.000 C 
BRANCH  12  14
ATOM     13  C   UNL     1       9.068  10.645  18.275  0.00  0.00    +0.000 C 
ATOM     14  O   UNL     1       8.671   9.352  18.725  0.00  0.00    +0.000 OA
ENDBRANCH  12  14
ENDBRANCH  11  12
ENDBRANCH   6  11
ENDBRANCH   2   6
ENDBRANCH   1   4
BRANCH   1  15
ATOM     15  C   UNL     1       4.075   3.544  19.904  0.00  0.00    +0.000 C 
ATOM     16  O   UNL     1       3.335   2.836  20.578  0.00  0.00    +0.000 OA
BRANCH  15  17
ATOM     17  OXT UNL     1       5.151   3.033  19.265  0.00  0.00    +0.000 OA
ATOM     18  HXT UNL     1       5.639   3.718  18.744  0.00  0.00    +0.000 HD
ENDBRANCH  15  17
ENDBRANCH   1  15
BRANCH   1  19
ATOM     19  C   UNL     1       2.444   5.442  19.653  0.00  0.00    +0.000 C 
BRANCH  19  20
ATOM     20  C   UNL     1       2.079   6.896  19.477  0.00  0.00    +0.000 A 
ATOM     21  C   UNL     1       2.186   7.585  18.280  0.00  0.00    +0.000 A 
ATOM     22  C   UNL     1       1.673   8.888  18.145  0.00  0.00    +0.000 A 
ATOM     23  C   UNL     1       1.059   9.613  19.188  0.00  0.00    +0.000 A 
ATOM     24  C   UNL     1       1.087   8.919  20.418  0.00  0.00    +0.000 A 
ATOM     25  C   UNL     1       1.570   7.604  20.564  0.00  0.00    +0.000 A 
BRANCH  23  26
ATOM     26  C   UNL     1       0.442  11.016  19.006  0.00  0.00    +0.000 A 
ATOM     27  C   UNL     1      -0.862  11.228  18.436  0.00  0.00    +0.000 A 
ATOM     28  C   UNL     1      -1.397  12.521  18.247  0.00  0.00    +0.000 A 
ATOM     29  C   UNL     1      -0.689  13.650  18.602  0.00  0.00    +0.000 A 
ATOM     30  C   UNL     1       0.554  13.501  19.182  0.00  0.00    +0.000 A 
ATOM     31  C   UNL     1       1.121  12.224  19.387  0.00  0.00    +0.000 A 
BRANCH  27  32
ATOM     32  O   UNL     1      -1.661  10.147  18.140  0.00  0.00    +0.000 OA
ATOM     33  C   UNL     1      -2.020   9.918  16.782  0.00  0.00    +0.000 C 
ENDBRANCH  27  32
BRANCH  31  34
ATOM     34  O   UNL     1       2.312  12.159  20.074  0.00  0.00    +0.000 OA
ATOM     35  C   UNL     1       2.796  13.375  20.641  0.00  0.00    +0.000 C 
ENDBRANCH  31  34
ENDBRANCH  23  26
ENDBRANCH  19  20
ENDBRANCH   1  19
TORSDOF 12
ENDMDL
MODEL 9
REMARK VINA RESULT:      -7.0      1.249      3.448
REMARK  Name = 
REMARK  15 active torsions:
REMARK  status: ('A' for Active; 'I' for Inactive)
REMARK    1  A    between atoms: C_1  and  O_2
REMARK    2  A    between atoms: O_2  and  C_3
REMARK    3  A    between atoms: C_3  and  C_4
REMARK    4  A    between atoms: C_4  and  C_5
REMARK    5  A    between atoms: C_5  and  C_6
REMARK    6  A    between atoms: N_8  and  CA_9
REMARK    7  A    between atoms: CA_9  and  C_10
REMARK    8  A    between atoms: CA_9  and  C_27
REMARK    9  A    between atoms: C_10  and  C_11
REMARK   10  A    between atoms: C_14  and  C_15
REMARK   11  A    between atoms: C_16  and  O_17
REMARK   12  A    between atoms: O_17  and  C_18
REMARK   13  A    between atoms: C_22  and  O_23
REMARK   14  A    between atoms: O_23  and  C_24
REMARK   15  A    between atoms: C_27  and  OXT_29
REMARK                            x       y       z     vdW  Elec       q    Type
REMARK                         _______ _______ _______ _____ _____    ______ ____
ROOT
ATOM      1  CA  UNL     1       2.972   4.594  19.628  0.00  0.00    +0.000 C 
ENDROOT
BRANCH   1   4
ATOM      2  C   UNL     1       5.248   4.659  18.570  0.00  0.00    +0.000 C 
ATOM      3  O   UNL     1       5.538   3.594  19.116  0.00  0.00    +0.000 OA
ATOM      4  N   UNL     1       3.991   5.196  18.743  0.00  0.00    +0.000 N 
ATOM      5  H   UNL     1       3.737   5.987  18.154  0.00  0.00    +0.000 HD
BRANCH   2   6
ATOM      6  C   UNL     1       6.214   5.453  17.633  0.00  0.00    +0.000 C 
ATOM      7  C   UNL     1       6.958   4.501  16.697  0.00  0.00    +0.000 C 
ATOM      8  C   UNL     1       5.986   4.300  15.560  0.00  0.00    +0.000 C 
ATOM      9  C   UNL     1       5.174   5.579  15.541  0.00  0.00    +0.000 C 
ATOM     10  O   UNL     1       5.403   6.279  16.773  0.00  0.00    +0.000 OA
BRANCH   6  11
ATOM     11  C   UNL     1       7.139   6.359  18.468  0.00  0.00    +0.000 C 
BRANCH  11  12
ATOM     12  C   UNL     1       7.876   7.429  17.652  0.00  0.00    +0.000 C 
BRANCH  12  14
ATOM     13  C   UNL     1       8.419   9.663  18.169  0.00  0.00    +0.000 C 
ATOM     14  O   UNL     1       8.597   8.296  18.533  0.00  0.00    +0.000 OA
ENDBRANCH  12  14
ENDBRANCH  11  12
ENDBRANCH   6  11
ENDBRANCH   2   6
ENDBRANCH   1   4
BRANCH   1  15
ATOM     15  C   UNL     1       1.771   4.075  18.810  0.00  0.00    +0.000 C 
ATOM     16  O   UNL     1       0.912   3.310  19.237  0.00  0.00    +0.000 OA
BRANCH  15  17
ATOM     17  OXT UNL     1       1.776   4.480  17.520  0.00  0.00    +0.000 OA
ATOM     18  HXT UNL     1       2.688   4.680  17.193  0.00  0.00    +0.000 HD
ENDBRANCH  15  17
ENDBRANCH   1  15
BRANCH   1  19
ATOM     19  C   UNL     1       2.457   5.558  20.721  0.00  0.00    +0.000 C 
BRANCH  19  20
ATOM     20  C   UNL     1       2.058   6.954  20.307  0.00  0.00    +0.000 A 
ATOM     21  C   UNL     1       2.383   7.526  19.087  0.00  0.00    +0.000 A 
ATOM     22  C   UNL     1       1.838   8.765  18.700  0.00  0.00    +0.000 A 
ATOM     23  C   UNL     1       0.974   9.539  19.502  0.00  0.00    +0.000 A 
ATOM     24  C   UNL     1       0.775   8.976  20.781  0.00  0.00    +0.000 A 
ATOM     25  C   UNL     1       1.287   7.724  21.175  0.00  0.00    +0.000 A 
BRANCH  23  26
ATOM     26  C   UNL     1       0.333  10.864  19.035  0.00  0.00    +0.000 A 
ATOM     27  C   UNL     1       0.917  12.151  19.303  0.00  0.00    +0.000 A 
ATOM     28  C   UNL     1       0.300  13.354  18.896  0.00  0.00    +0.000 A 
ATOM     29  C   UNL     1      -0.900  13.351  18.217  0.00  0.00    +0.000 A 
ATOM     30  C   UNL     1      -1.487  12.142  17.906  0.00  0.00    +0.000 A 
ATOM     31  C   UNL     1      -0.899  10.918  18.297  0.00  0.00    +0.000 A 
BRANCH  27  32
ATOM     32  O   UNL     1       2.155  12.227  19.899  0.00  0.00    +0.000 OA
ATOM     33  C   UNL     1       2.487  13.401  20.632  0.00  0.00    +0.000 C 
ENDBRANCH  27  32
BRANCH  31  34
ATOM     34  O   UNL     1      -1.487   9.757  17.849  0.00  0.00    +0.000 OA
ATOM     35  C   UNL     1      -2.352   9.867  16.719  0.00  0.00    +0.000 C 
ENDBRANCH  31  34
ENDBRANCH  23  26
ENDBRANCH  19  20
ENDBRANCH   1  19
TORSDOF 12
ENDMDL
