MODEL 1
REMARK VINA RESULT:      -7.5      0.000      0.000
REMARK  Name = 
REMARK  8 active torsions:
REMARK  status: ('A' for Active; 'I' for Inactive)
REMARK    1  A    between atoms: C_1  and  N_2
REMARK    2  A    between atoms: N_4  and  C_5
REMARK    3  A    between atoms: C_5  and  C_6
REMARK    4  A    between atoms: C_9  and  C_10
REMARK    5  A    between atoms: C_12  and  O_13
REMARK    6  A    between atoms: O_13  and  C_14
REMARK    7  A    between atoms: C_14  and  C_15
REMARK    8  A    between atoms: N_18  and  C_19
REMARK                            x       y       z     vdW  Elec       q    Type
REMARK                         _______ _______ _______ _____ _____    ______ ____
ROOT
ATOM      1  C   UNL     1       4.055   5.787  18.894  0.00  0.00    +0.000 A 
ATOM      2  C   UNL     1       4.265   6.611  17.764  0.00  0.00    +0.000 A 
ATOM      3  C   UNL     1       3.408   7.670  17.450  0.00  0.00    +0.000 A 
ATOM      4  C   UNL     1       2.358   7.982  18.303  0.00  0.00    +0.000 A 
ATOM      5  C   UNL     1       1.402   9.104  18.020  0.00  0.00    +0.000 C 
ATOM      6  C   UNL     1       2.161   7.198  19.441  0.00  0.00    +0.000 A 
ATOM      7  C   UNL     1       2.932   6.046  19.704  0.00  0.00    +0.000 A 
ENDROOT
BRANCH   1   8
ATOM      8  C   UNL     1       5.033   4.637  19.094  0.00  0.00    +0.000 C 
BRANCH   8  12
ATOM      9  C   UNL     1       8.030   5.818  19.339  0.00  0.00    +0.000 C 
ATOM     10  N   UNL     1       7.743   5.562  17.959  0.00  0.00    +0.000 N 
ATOM     11  C   UNL     1       6.824   4.711  17.414  0.00  0.00    +0.000 C 
ATOM     12  N   UNL     1       5.703   4.262  17.846  0.00  0.00    +0.000 NA
ATOM     13  N   UNL     1       7.303   4.345  16.171  0.00  0.00    +0.000 N 
ATOM     14  H   UNL     1       8.140   6.234  17.312  0.00  0.00    +0.000 HD
ATOM     15  H   UNL     1       8.220   4.669  15.930  0.00  0.00    +0.000 HD
BRANCH  13  16
ATOM     16  C   UNL     1       6.396   3.847  15.135  0.00  0.00    +0.000 C 
ATOM     17  C   UNL     1       5.463   4.796  14.455  0.00  0.00    +0.000 C 
ATOM     18  C   UNL     1       6.592   4.179  13.684  0.00  0.00    +0.000 C 
ENDBRANCH  13  16
ENDBRANCH   8  12
ENDBRANCH   1   8
BRANCH   7  19
ATOM     19  O   UNL     1       2.569   5.143  20.692  0.00  0.00    +0.000 OA
BRANCH  19  20
ATOM     20  C   UNL     1       1.390   4.384  20.353  0.00  0.00    +0.000 C 
BRANCH  20  21
ATOM     21  C   UNL     1       1.650   3.095  19.645  0.00  0.00    +0.000 C 
ATOM     22  C   UNL     1       0.605   2.406  18.905  0.00  0.00    +0.000 C 
ATOM     23  C   UNL     1       1.794   2.955  18.118  0.00  0.00    +0.000 C 
ENDBRANCH  20  21
ENDBRANCH  19  20
ENDBRANCH   7  19
TORSDOF 6
ENDMDL
MODEL 2
REMARK VINA RESULT:      -7.3      1.549      3.482
REMARK  Name = 
REMARK  8 active torsions:
REMARK  status: ('A' for Active; 'I' for Inactive)
REMARK    1  A    between atoms: C_1  and  N_2
REMARK    2  A    between atoms: N_4  and  C_5
REMARK    3  A    between atoms: C_5  and  C_6
REMARK    4  A    between atoms: C_9  and  C_10
REMARK    5  A    between atoms: C_12  and  O_13
REMARK    6  A    between atoms: O_13  and  C_14
REMARK    7  A    between atoms: C_14  and  C_15
REMARK    8  A    between atoms: N_18  and  C_19
REMARK                            x       y       z     vdW  Elec       q    Type
REMARK                         _______ _______ _______ _____ _____    ______ ____
ROOT
ATOM      1  C   UNL     1       4.469   4.099  18.421  0.00  0.00    +0.000 A 
ATOM      2  C   UNL     1       4.311   2.855  19.072  0.00  0.00    +0.000 A 
ATOM      3  C   UNL     1       3.055   2.272  19.262  0.00  0.00    +0.000 A 
ATOM      4  C   UNL     1       1.925   2.885  18.738  0.00  0.00    +0.000 A 
ATOM      5  C   UNL     1       0.549   2.312  18.911  0.00  0.00    +0.000 C 
ATOM      6  C   UNL     1       2.072   4.097  18.062  0.00  0.00    +0.000 A 
ATOM      7  C   UNL     1       3.310   4.767  17.975  0.00  0.00    +0.000 A 
ENDROOT
BRANCH   1   8
ATOM      8  C   UNL     1       5.886   4.647  18.324  0.00  0.00    +0.000 C 
BRANCH   8  12
ATOM      9  C   UNL     1       7.603   7.328  17.774  0.00  0.00    +0.000 C 
ATOM     10  N   UNL     1       7.316   6.696  16.521  0.00  0.00    +0.000 N 
ATOM     11  C   UNL     1       7.006   5.390  16.267  0.00  0.00    +0.000 C 
ATOM     12  N   UNL     1       6.448   4.482  16.980  0.00  0.00    +0.000 NA
ATOM     13  N   UNL     1       7.411   5.126  14.973  0.00  0.00    +0.000 N 
ATOM     14  H   UNL     1       7.136   7.335  15.756  0.00  0.00    +0.000 HD
ATOM     15  H   UNL     1       7.910   5.855  14.501  0.00  0.00    +0.000 HD
BRANCH  13  16
ATOM     16  C   UNL     1       6.828   4.016  14.216  0.00  0.00    +0.000 C 
ATOM     17  C   UNL     1       5.458   4.161  13.635  0.00  0.00    +0.000 C 
ATOM     18  C   UNL     1       6.649   4.081  12.726  0.00  0.00    +0.000 C 
ENDBRANCH  13  16
ENDBRANCH   8  12
ENDBRANCH   1   8
BRANCH   7  19
ATOM     19  O   UNL     1       3.395   6.076  17.526  0.00  0.00    +0.000 OA
BRANCH  19  20
ATOM     20  C   UNL     1       2.422   6.945  18.142  0.00  0.00    +0.000 C 
BRANCH  20  21
ATOM     21  C   UNL     1       2.567   7.108  19.621  0.00  0.00    +0.000 C 
ATOM     22  C   UNL     1       1.699   7.994  20.379  0.00  0.00    +0.000 C 
ATOM     23  C   UNL     1       1.610   6.495  20.661  0.00  0.00    +0.000 C 
ENDBRANCH  20  21
ENDBRANCH  19  20
ENDBRANCH   7  19
TORSDOF 6
ENDMDL
MODEL 3
REMARK VINA RESULT:      -7.3      1.259      3.505
REMARK  Name = 
REMARK  8 active torsions:
REMARK  status: ('A' for Active; 'I' for Inactive)
REMARK    1  A    between atoms: C_1  and  N_2
REMARK    2  A    between atoms: N_4  and  C_5
REMARK    3  A    between atoms: C_5  and  C_6
REMARK    4  A    between atoms: C_9  and  C_10
REMARK    5  A    between atoms: C_12  and  O_13
REMARK    6  A    between atoms: O_13  and  C_14
REMARK    7  A    between atoms: C_14  and  C_15
REMARK    8  A    between atoms: N_18  and  C_19
REMARK                            x       y       z     vdW  Elec       q    Type
REMARK                         _______ _______ _______ _____ _____    ______ ____
ROOT
ATOM      1  C   UNL     1       4.305   4.169  18.431  0.00  0.00    +0.000 A 
ATOM      2  C   UNL     1       4.120   2.889  17.862  0.00  0.00    +0.000 A 
ATOM      3  C   UNL     1       2.914   2.193  17.979  0.00  0.00    +0.000 A 
ATOM      4  C   UNL     1       1.831   2.794  18.605  0.00  0.00    +0.000 A 
ATOM      5  C   UNL     1       0.510   2.099  18.766  0.00  0.00    +0.000 C 
ATOM      6  C   UNL     1       1.989   4.073  19.142  0.00  0.00    +0.000 A 
ATOM      7  C   UNL     1       3.234   4.736  19.152  0.00  0.00    +0.000 A 
ENDROOT
BRANCH   1   8
ATOM      8  C   UNL     1       5.684   4.797  18.275  0.00  0.00    +0.000 C 
BRANCH   8  12
ATOM      9  C   UNL     1       7.592   7.329  17.654  0.00  0.00    +0.000 C 
ATOM     10  N   UNL     1       7.286   6.664  16.422  0.00  0.00    +0.000 N 
ATOM     11  C   UNL     1       6.892   5.372  16.216  0.00  0.00    +0.000 C 
ATOM     12  N   UNL     1       6.259   4.536  16.953  0.00  0.00    +0.000 NA
ATOM     13  N   UNL     1       7.305   5.026  14.943  0.00  0.00    +0.000 N 
ATOM     14  H   UNL     1       7.166   7.281  15.627  0.00  0.00    +0.000 HD
ATOM     15  H   UNL     1       7.862   5.698  14.453  0.00  0.00    +0.000 HD
BRANCH  13  16
ATOM     16  C   UNL     1       6.661   3.927  14.220  0.00  0.00    +0.000 C 
ATOM     17  C   UNL     1       5.345   4.157  13.550  0.00  0.00    +0.000 C 
ATOM     18  C   UNL     1       6.571   3.911  12.721  0.00  0.00    +0.000 C 
ENDBRANCH  13  16
ENDBRANCH   8  12
ENDBRANCH   1   8
BRANCH   7  19
ATOM     19  O   UNL     1       3.435   5.885  19.901  0.00  0.00    +0.000 OA
BRANCH  19  20
ATOM     20  C   UNL     1       2.445   6.903  19.644  0.00  0.00    +0.000 C 
BRANCH  20  21
ATOM     21  C   UNL     1       2.338   7.335  18.218  0.00  0.00    +0.000 C 
ATOM     22  C   UNL     1       2.304   8.741  17.847  0.00  0.00    +0.000 C 
ATOM     23  C   UNL     1       3.506   7.912  17.395  0.00  0.00    +0.000 C 
ENDBRANCH  20  21
ENDBRANCH  19  20
ENDBRANCH   7  19
TORSDOF 6
ENDMDL
MODEL 4
REMARK VINA RESULT:      -7.3      1.461      3.732
REMARK  Name = 
REMARK  8 active torsions:
REMARK  status: ('A' for Active; 'I' for Inactive)
REMARK    1  A    between atoms: C_1  and  N_2
REMARK    2  A    between atoms: N_4  and  C_5
REMARK    3  A    between atoms: C_5  and  C_6
REMARK    4  A    between atoms: C_9  and  C_10
REMARK    5  A    between atoms: C_12  and  O_13
REMARK    6  A    between atoms: O_13  and  C_14
REMARK    7  A    between atoms: C_14  and  C_15
REMARK    8  A    between atoms: N_18  and  C_19
REMARK                            x       y       z     vdW  Elec       q    Type
REMARK                         _______ _______ _______ _____ _____    ______ ____
ROOT
ATOM      1  C   UNL     1       4.654   4.333  18.724  0.00  0.00    +0.000 A 
ATOM      2  C   UNL     1       4.487   3.139  19.461  0.00  0.00    +0.000 A 
ATOM      3  C   UNL     1       3.223   2.619  19.754  0.00  0.00    +0.000 A 
ATOM      4  C   UNL     1       2.089   3.241  19.250  0.00  0.00    +0.000 A 
ATOM      5  C   UNL     1       0.705   2.734  19.531  0.00  0.00    +0.000 C 
ATOM      6  C   UNL     1       2.242   4.402  18.491  0.00  0.00    +0.000 A 
ATOM      7  C   UNL     1       3.497   5.016  18.296  0.00  0.00    +0.000 A 
ENDROOT
BRANCH   1   8
ATOM      8  C   UNL     1       6.082   4.818  18.518  0.00  0.00    +0.000 C 
BRANCH   8  12
ATOM      9  C   UNL     1       7.737   7.478  17.728  0.00  0.00    +0.000 C 
ATOM     10  N   UNL     1       7.362   6.791  16.528  0.00  0.00    +0.000 N 
ATOM     11  C   UNL     1       7.043   5.474  16.354  0.00  0.00    +0.000 C 
ATOM     12  N   UNL     1       6.545   4.596  17.145  0.00  0.00    +0.000 NA
ATOM     13  N   UNL     1       7.354   5.155  15.046  0.00  0.00    +0.000 N 
ATOM     14  H   UNL     1       7.122   7.396  15.751  0.00  0.00    +0.000 HD
ATOM     15  H   UNL     1       7.813   5.865  14.508  0.00  0.00    +0.000 HD
BRANCH  13  16
ATOM     16  C   UNL     1       6.724   4.012  14.383  0.00  0.00    +0.000 C 
ATOM     17  C   UNL     1       5.381   4.177  13.749  0.00  0.00    +0.000 C 
ATOM     18  C   UNL     1       6.587   3.939  12.889  0.00  0.00    +0.000 C 
ENDBRANCH  13  16
ENDBRANCH   8  12
ENDBRANCH   1   8
BRANCH   7  19
ATOM     19  O   UNL     1       3.604   6.290  17.759  0.00  0.00    +0.000 OA
BRANCH  19  20
ATOM     20  C   UNL     1       2.363   7.025  17.808  0.00  0.00    +0.000 C 
BRANCH  20  21
ATOM     21  C   UNL     1       2.471   8.409  18.359  0.00  0.00    +0.000 C 
ATOM     22  C   UNL     1       1.672   9.504  17.832  0.00  0.00    +0.000 C 
ATOM     23  C   UNL     1       1.419   9.065  19.273  0.00  0.00    +0.000 C 
ENDBRANCH  20  21
ENDBRANCH  19  20
ENDBRANCH   7  19
TORSDOF 6
ENDMDL
MODEL 5
REMARK VINA RESULT:      -7.0      1.642      3.968
REMARK  Name = 
REMARK  8 active torsions:
REMARK  status: ('A' for Active; 'I' for Inactive)
REMARK    1  A    between atoms: C_1  and  N_2
REMARK    2  A    between atoms: N_4  and  C_5
REMARK    3  A    between atoms: C_5  and  C_6
REMARK    4  A    between atoms: C_9  and  C_10
REMARK    5  A    between atoms: C_12  and  O_13
REMARK    6  A    between atoms: O_13  and  C_14
REMARK    7  A    between atoms: C_14  and  C_15
REMARK    8  A    between atoms: N_18  and  C_19
REMARK                            x       y       z     vdW  Elec       q    Type
REMARK                         _______ _______ _______ _____ _____    ______ ____
ROOT
ATOM      1  C   UNL     1       3.881   5.530  17.351  0.00  0.00    +0.000 A 
ATOM      2  C   UNL     1       3.838   4.126  17.501  0.00  0.00    +0.000 A 
ATOM      3  C   UNL     1       2.935   3.500  18.365  0.00  0.00    +0.000 A 
ATOM      4  C   UNL     1       1.996   4.260  19.048  0.00  0.00    +0.000 A 
ATOM      5  C   UNL     1       1.002   3.649  19.992  0.00  0.00    +0.000 C 
ATOM      6  C   UNL     1       2.004   5.646  18.881  0.00  0.00    +0.000 A 
ATOM      7  C   UNL     1       2.990   6.307  18.119  0.00  0.00    +0.000 A 
ENDROOT
BRANCH   1   8
ATOM      8  C   UNL     1       4.945   6.088  16.416  0.00  0.00    +0.000 C 
BRANCH   8  12
ATOM      9  C   UNL     1       7.576   4.656  17.628  0.00  0.00    +0.000 C 
ATOM     10  N   UNL     1       7.541   4.441  16.211  0.00  0.00    +0.000 N 
ATOM     11  C   UNL     1       6.472   4.477  15.361  0.00  0.00    +0.000 C 
ATOM     12  N   UNL     1       5.356   5.109  15.406  0.00  0.00    +0.000 NA
ATOM     13  N   UNL     1       6.776   3.647  14.300  0.00  0.00    +0.000 N 
ATOM     14  H   UNL     1       8.447   4.449  15.760  0.00  0.00    +0.000 HD
ATOM     15  H   UNL     1       7.627   3.124  14.367  0.00  0.00    +0.000 HD
BRANCH  13  16
ATOM     16  C   UNL     1       6.103   3.806  13.008  0.00  0.00    +0.000 C 
ATOM     17  C   UNL     1       6.918   3.873  11.757  0.00  0.00    +0.000 C 
ATOM     18  C   UNL     1       6.034   2.687  12.009  0.00  0.00    +0.000 C 
ENDBRANCH  13  16
ENDBRANCH   8  12
ENDBRANCH   1   8
BRANCH   7  19
ATOM     19  O   UNL     1       3.136   7.685  18.164  0.00  0.00    +0.000 OA
BRANCH  19  20
ATOM     20  C   UNL     1       2.041   8.343  18.835  0.00  0.00    +0.000 C 
BRANCH  20  21
ATOM     21  C   UNL     1       1.573   9.607  18.190  0.00  0.00    +0.000 C 
ATOM     22  C   UNL     1       0.159   9.885  17.994  0.00  0.00    +0.000 C 
ATOM     23  C   UNL     1       0.938  10.787  18.949  0.00  0.00    +0.000 C 
ENDBRANCH  20  21
ENDBRANCH  19  20
ENDBRANCH   7  19
TORSDOF 6
ENDMDL
MODEL 6
REMARK VINA RESULT:      -7.0      1.451      1.809
REMARK  Name = 
REMARK  8 active torsions:
REMARK  status: ('A' for Active; 'I' for Inactive)
REMARK    1  A    between atoms: C_1  and  N_2
REMARK    2  A    between atoms: N_4  and  C_5
REMARK    3  A    between atoms: C_5  and  C_6
REMARK    4  A    between atoms: C_9  and  C_10
REMARK    5  A    between atoms: C_12  and  O_13
REMARK    6  A    between atoms: O_13  and  C_14
REMARK    7  A    between atoms: C_14  and  C_15
REMARK    8  A    between atoms: N_18  and  C_19
REMARK                            x       y       z     vdW  Elec       q    Type
REMARK                         _______ _______ _______ _____ _____    ______ ____
ROOT
ATOM      1  C   UNL     1       3.905   5.117  17.609  0.00  0.00    +0.000 A 
ATOM      2  C   UNL     1       4.522   6.347  17.287  0.00  0.00    +0.000 A 
ATOM      3  C   UNL     1       3.841   7.564  17.379  0.00  0.00    +0.000 A 
ATOM      4  C   UNL     1       2.543   7.592  17.869  0.00  0.00    +0.000 A 
ATOM      5  C   UNL     1       1.758   8.865  17.989  0.00  0.00    +0.000 C 
ATOM      6  C   UNL     1       1.934   6.387  18.224  0.00  0.00    +0.000 A 
ATOM      7  C   UNL     1       2.555   5.138  18.014  0.00  0.00    +0.000 A 
ENDROOT
BRANCH   1   8
ATOM      8  C   UNL     1       4.741   3.859  17.417  0.00  0.00    +0.000 C 
BRANCH   8  12
ATOM      9  C   UNL     1       7.808   4.606  18.105  0.00  0.00    +0.000 C 
ATOM     10  N   UNL     1       7.572   4.849  16.712  0.00  0.00    +0.000 N 
ATOM     11  C   UNL     1       6.615   4.315  15.896  0.00  0.00    +0.000 C 
ATOM     12  N   UNL     1       5.441   3.856  16.130  0.00  0.00    +0.000 NA
ATOM     13  N   UNL     1       7.126   4.337  14.613  0.00  0.00    +0.000 N 
ATOM     14  H   UNL     1       8.055   5.655  16.336  0.00  0.00    +0.000 HD
ATOM     15  H   UNL     1       8.078   4.634  14.513  0.00  0.00    +0.000 HD
BRANCH  13  16
ATOM     16  C   UNL     1       6.236   4.296  13.451  0.00  0.00    +0.000 C 
ATOM     17  C   UNL     1       6.820   4.282  12.075  0.00  0.00    +0.000 C 
ATOM     18  C   UNL     1       6.106   3.069  12.595  0.00  0.00    +0.000 C 
ENDBRANCH  13  16
ENDBRANCH   8  12
ENDBRANCH   1   8
BRANCH   7  19
ATOM     19  O   UNL     1       1.850   3.950  18.134  0.00  0.00    +0.000 OA
BRANCH  19  20
ATOM     20  C   UNL     1       1.116   3.857  19.373  0.00  0.00    +0.000 C 
BRANCH  20  21
ATOM     21  C   UNL     1       1.960   3.767  20.602  0.00  0.00    +0.000 C 
ATOM     22  C   UNL     1       1.684   2.795  21.648  0.00  0.00    +0.000 C 
ATOM     23  C   UNL     1       2.992   2.655  20.870  0.00  0.00    +0.000 C 
ENDBRANCH  20  21
ENDBRANCH  19  20
ENDBRANCH   7  19
TORSDOF 6
ENDMDL
MODEL 7
REMARK VINA RESULT:      -6.9      3.532      6.302
REMARK  Name = 
REMARK  8 active torsions:
REMARK  status: ('A' for Active; 'I' for Inactive)
REMARK    1  A    between atoms: C_1  and  N_2
REMARK    2  A    between atoms: N_4  and  C_5
REMARK    3  A    between atoms: C_5  and  C_6
REMARK    4  A    between atoms: C_9  and  C_10
REMARK    5  A    between atoms: C_12  and  O_13
REMARK    6  A    between atoms: O_13  and  C_14
REMARK    7  A    between atoms: C_14  and  C_15
REMARK    8  A    between atoms: N_18  and  C_19
REMARK                            x       y       z     vdW  Elec       q    Type
REMARK                         _______ _______ _______ _____ _____    ______ ____
ROOT
ATOM      1  C   UNL     1       1.089   8.961  20.301  0.00  0.00    +0.000 A 
ATOM      2  C   UNL     1       1.156   8.669  21.682  0.00  0.00    +0.000 A 
ATOM      3  C   UNL     1       0.409   9.379  22.627  0.00  0.00    +0.000 A 
ATOM      4  C   UNL     1      -0.486  10.353  22.206  0.00  0.00    +0.000 A 
ATOM      5  C   UNL     1      -1.314  11.151  23.170  0.00  0.00    +0.000 C 
ATOM      6  C   UNL     1      -0.588  10.626  20.841  0.00  0.00    +0.000 A 
ATOM      7  C   UNL     1       0.252  10.016  19.886  0.00  0.00    +0.000 A 
ENDROOT
BRANCH   1   8
ATOM      8  C   UNL     1       1.991   8.147  19.383  0.00  0.00    +0.000 C 
BRANCH   8  12
ATOM      9  C   UNL     1       4.202   6.855  17.414  0.00  0.00    +0.000 C 
ATOM     10  N   UNL     1       3.553   5.802  18.138  0.00  0.00    +0.000 N 
ATOM     11  C   UNL     1       2.887   5.861  19.330  0.00  0.00    +0.000 C 
ATOM     12  N   UNL     1       2.252   6.808  19.917  0.00  0.00    +0.000 NA
ATOM     13  N   UNL     1       2.983   4.608  19.904  0.00  0.00    +0.000 N 
ATOM     14  H   UNL     1       3.409   4.951  17.608  0.00  0.00    +0.000 HD
ATOM     15  H   UNL     1       3.559   3.939  19.431  0.00  0.00    +0.000 HD
BRANCH  13  16
ATOM     16  C   UNL     1       2.019   4.171  20.916  0.00  0.00    +0.000 C 
ATOM     17  C   UNL     1       1.129   3.005  20.631  0.00  0.00    +0.000 C 
ATOM     18  C   UNL     1       2.196   2.890  21.679  0.00  0.00    +0.000 C 
ENDBRANCH  13  16
ENDBRANCH   8  12
ENDBRANCH   1   8
BRANCH   7  19
ATOM     19  O   UNL     1       0.312  10.475  18.579  0.00  0.00    +0.000 OA
BRANCH  19  20
ATOM     20  C   UNL     1      -0.965  10.924  18.081  0.00  0.00    +0.000 C 
BRANCH  20  21
ATOM     21  C   UNL     1      -1.723   9.914  17.283  0.00  0.00    +0.000 C 
ATOM     22  C   UNL     1      -3.150   9.705  17.473  0.00  0.00    +0.000 C 
ATOM     23  C   UNL     1      -2.683  10.261  16.129  0.00  0.00    +0.000 C 
ENDBRANCH  20  21
ENDBRANCH  19  20
ENDBRANCH   7  19
TORSDOF 6
ENDMDL
MODEL 8
REMARK VINA RESULT:      -6.9      1.302      3.653
REMARK  Name = 
REMARK  8 active torsions:
REMARK  status: ('A' for Active; 'I' for Inactive)
REMARK    1  A    between atoms: C_1  and  N_2
REMARK    2  A    between atoms: N_4  and  C_5
REMARK    3  A    between atoms: C_5  and  C_6
REMARK    4  A    between atoms: C_9  and  C_10
REMARK    5  A    between atoms: C_12  and  O_13
REMARK    6  A    between atoms: O_13  and  C_14
REMARK    7  A    between atoms: C_14  and  C_15
REMARK    8  A    between atoms: N_18  and  C_19
REMARK                            x       y       z     vdW  Elec       q    Type
REMARK                         _______ _______ _______ _____ _____    ______ ____
ROOT
ATOM      1  C   UNL     1       3.569   5.168  17.702  0.00  0.00    +0.000 A 
ATOM      2  C   UNL     1       3.403   3.939  17.024  0.00  0.00    +0.000 A 
ATOM      3  C   UNL     1       2.474   2.982  17.441  0.00  0.00    +0.000 A 
ATOM      4  C   UNL     1       1.629   3.261  18.507  0.00  0.00    +0.000 A 
ATOM      5  C   UNL     1       0.613   2.275  19.005  0.00  0.00    +0.000 C 
ATOM      6  C   UNL     1       1.759   4.486  19.164  0.00  0.00    +0.000 A 
ATOM      7  C   UNL     1       2.778   5.409  18.844  0.00  0.00    +0.000 A 
ENDROOT
BRANCH   1   8
ATOM      8  C   UNL     1       4.651   6.101  17.175  0.00  0.00    +0.000 C 
BRANCH   8  12
ATOM      9  C   UNL     1       7.529   5.437  18.484  0.00  0.00    +0.000 C 
ATOM     10  N   UNL     1       7.659   5.449  17.057  0.00  0.00    +0.000 N 
ATOM     11  C   UNL     1       6.698   5.268  16.104  0.00  0.00    +0.000 C 
ATOM     12  N   UNL     1       5.434   5.484  16.102  0.00  0.00    +0.000 NA
ATOM     13  N   UNL     1       7.333   4.762  14.986  0.00  0.00    +0.000 N 
ATOM     14  H   UNL     1       8.536   5.825  16.715  0.00  0.00    +0.000 HD
ATOM     15  H   UNL     1       8.305   4.543  15.082  0.00  0.00    +0.000 HD
BRANCH  13  16
ATOM     16  C   UNL     1       6.730   4.893  13.657  0.00  0.00    +0.000 C 
ATOM     17  C   UNL     1       7.600   4.832  12.444  0.00  0.00    +0.000 C 
ATOM     18  C   UNL     1       6.623   3.727  12.717  0.00  0.00    +0.000 C 
ENDBRANCH  13  16
ENDBRANCH   8  12
ENDBRANCH   1   8
BRANCH   7  19
ATOM     19  O   UNL     1       3.050   6.497  19.658  0.00  0.00    +0.000 OA
BRANCH  19  20
ATOM     20  C   UNL     1       1.989   7.475  19.662  0.00  0.00    +0.000 C 
BRANCH  20  21
ATOM     21  C   UNL     1       2.206   8.646  18.761  0.00  0.00    +0.000 C 
ATOM     22  C   UNL     1       1.408   8.844  17.561  0.00  0.00    +0.000 C 
ATOM     23  C   UNL     1       1.273   9.870  18.686  0.00  0.00    +0.000 C 
ENDBRANCH  20  21
ENDBRANCH  19  20
ENDBRANCH   7  19
TORSDOF 6
ENDMDL
MODEL 9
REMARK VINA RESULT:      -6.9      1.772      3.821
REMARK  Name = 
REMARK  8 active torsions:
REMARK  status: ('A' for Active; 'I' for Inactive)
REMARK    1  A    between atoms: C_1  and  N_2
REMARK    2  A    between atoms: N_4  and  C_5
REMARK    3  A    between atoms: C_5  and  C_6
REMARK    4  A    between atoms: C_9  and  C_10
REMARK    5  A    between atoms: C_12  and  O_13
REMARK    6  A    between atoms: O_13  and  C_14
REMARK    7  A    between atoms: C_14  and  C_15
REMARK    8  A    between atoms: N_18  and  C_19
REMARK                            x       y       z     vdW  Elec       q    Type
REMARK                         _______ _______ _______ _____ _____    ______ ____
ROOT
ATOM      1  C   UNL     1       3.948   5.347  19.008  0.00  0.00    +0.000 A 
ATOM      2  C   UNL     1       4.318   3.993  19.168  0.00  0.00    +0.000 A 
ATOM      3  C   UNL     1       3.612   3.126  20.006  0.00  0.00    +0.000 A 
ATOM      4  C   UNL     1       2.467   3.572  20.651  0.00  0.00    +0.000 A 
ATOM      5  C   UNL     1       1.667   2.691  21.566  0.00  0.00    +0.000 C 
ATOM      6  C   UNL     1       2.070   4.898  20.474  0.00  0.00    +0.000 A 
ATOM      7  C   UNL     1       2.842   5.824  19.740  0.00  0.00    +0.000 A 
ENDROOT
BRANCH   1   8
ATOM      8  C   UNL     1       4.831   6.198  18.105  0.00  0.00    +0.000 C 
BRANCH   8  12
ATOM      9  C   UNL     1       7.704   7.645  17.803  0.00  0.00    +0.000 C 
ATOM     10  N   UNL     1       7.493   6.790  16.672  0.00  0.00    +0.000 N 
ATOM     11  C   UNL     1       6.672   5.704  16.555  0.00  0.00    +0.000 C 
ATOM     12  N   UNL     1       5.578   5.383  17.143  0.00  0.00    +0.000 NA
ATOM     13  N   UNL     1       7.228   4.883  15.594  0.00  0.00    +0.000 N 
ATOM     14  H   UNL     1       7.855   7.149  15.797  0.00  0.00    +0.000 HD
ATOM     15  H   UNL     1       8.123   5.155  15.233  0.00  0.00    +0.000 HD
BRANCH  13  16
ATOM     16  C   UNL     1       6.408   3.901  14.881  0.00  0.00    +0.000 C 
ATOM     17  C   UNL     1       5.235   4.366  14.079  0.00  0.00    +0.000 C 
ATOM     18  C   UNL     1       6.432   3.787  13.383  0.00  0.00    +0.000 C 
ENDBRANCH  13  16
ENDBRANCH   8  12
ENDBRANCH   1   8
BRANCH   7  19
ATOM     19  O   UNL     1       2.571   7.183  19.780  0.00  0.00    +0.000 OA
BRANCH  19  20
ATOM     20  C   UNL     1       1.341   7.491  20.469  0.00  0.00    +0.000 C 
BRANCH  20  21
ATOM     21  C   UNL     1       1.425   8.627  21.435  0.00  0.00    +0.000 C 
ATOM     22  C   UNL     1       0.810   9.915  21.154  0.00  0.00    +0.000 C 
ATOM     23  C   UNL     1       0.259   9.101  22.324  0.00  0.00    +0.000 C 
ENDBRANCH  20  21
ENDBRANCH  19  20
ENDBRANCH   7  19
TORSDOF 6
ENDMDL
