MODEL 1
REMARK VINA RESULT:      -7.8      0.000      0.000
REMARK  Name = 
REMARK  8 active torsions:
REMARK  status: ('A' for Active; 'I' for Inactive)
REMARK    1  A    between atoms: C_1  and  N_2
REMARK    2  A    between atoms: N_2  and  C_3
REMARK    3  A    between atoms: N_6  and  C_7
REMARK    4  A    between atoms: C_10  and  C_11
REMARK    5  A    between atoms: N_13  and  C_14
REMARK    6  A    between atoms: C_19  and  O_20
REMARK    7  A    between atoms: O_20  and  C_21
REMARK    8  A    between atoms: C_24  and  C_25
REMARK                            x       y       z     vdW  Elec       q    Type
REMARK                         _______ _______ _______ _____ _____    ______ ____
ROOT
ATOM      1  C   UNL     1       7.217   5.880  18.112  0.00  0.00    +0.000 A 
ATOM      2  C   UNL     1       8.080   6.358  19.122  0.00  0.00    +0.000 A 
ATOM      3  C   UNL     1       8.558   7.665  19.127  0.00  0.00    +0.000 A 
ATOM      4  C   UNL     1       8.135   8.558  18.147  0.00  0.00    +0.000 A 
ATOM      5  C   UNL     1       7.190   8.142  17.201  0.00  0.00    +0.000 A 
ATOM      6  C   UNL     1       6.710   6.817  17.194  0.00  0.00    +0.000 A 
ENDROOT
BRANCH   1  10
ATOM      7  C   UNL     1       3.482   4.644  19.384  0.00  0.00    +0.000 A 
ATOM      8  N   UNL     1       4.813   4.814  19.292  0.00  0.00    +0.000 NA
ATOM      9  C   UNL     1       5.524   4.095  18.410  0.00  0.00    +0.000 A 
ATOM     10  N   UNL     1       6.843   4.504  18.122  0.00  0.00    +0.000 N 
ATOM     11  N   UNL     1       5.001   3.087  17.713  0.00  0.00    +0.000 NA
ATOM     12  C   UNL     1       3.669   2.915  17.829  0.00  0.00    +0.000 A 
ATOM     13  C   UNL     1       2.845   3.697  18.616  0.00  0.00    +0.000 A 
ATOM     14  H   UNL     1       7.427   3.986  18.766  0.00  0.00    +0.000 HD
BRANCH  13  15
ATOM     15  C   UNL     1       1.376   3.495  18.553  0.00  0.00    +0.000 C 
ATOM     16  F   UNL     1       0.970   2.224  18.269  0.00  0.00    +0.000 F 
ATOM     17  F   UNL     1       0.781   3.790  19.747  0.00  0.00    +0.000 F 
ATOM     18  F   UNL     1       0.767   4.299  17.639  0.00  0.00    +0.000 F 
ENDBRANCH  13  15
BRANCH   7  20
ATOM     19  C   UNL     1       2.373   6.742  19.830  0.00  0.00    +0.000 C 
ATOM     20  N   UNL     1       2.784   5.429  20.308  0.00  0.00    +0.000 N 
ATOM     21  H   UNL     1       2.008   4.920  20.726  0.00  0.00    +0.000 HD
ENDBRANCH   7  20
ENDBRANCH   1  10
BRANCH   4  22
ATOM     22  C   UNL     1       8.724   9.926  18.174  0.00  0.00    +0.000 C 
ATOM     23  O   UNL     1       8.289  10.798  17.430  0.00  0.00    +0.000 OA
ATOM     24  N   UNL     1       9.707  10.162  19.111  0.00  0.00    +0.000 N 
ATOM     25  H   UNL     1       9.936   9.432  19.773  0.00  0.00    +0.000 HD
BRANCH  24  26
ATOM     26  C   UNL     1      10.307  11.513  19.255  0.00  0.00    +0.000 C 
ATOM     27  C   UNL     1      10.804  11.892  20.658  0.00  0.00    +0.000 C 
ATOM     28  O   UNL     1      12.082  12.329  20.115  0.00  0.00    +0.000 OA
ATOM     29  C   UNL     1      11.789  11.630  18.879  0.00  0.00    +0.000 C 
ENDBRANCH  24  26
ENDBRANCH   4  22
BRANCH   6  30
ATOM     30  O   UNL     1       5.849   6.544  16.160  0.00  0.00    +0.000 OA
ATOM     31  C   UNL     1       4.470   6.822  16.389  0.00  0.00    +0.000 C 
ENDBRANCH   6  30
TORSDOF 6
ENDMDL
MODEL 2
REMARK VINA RESULT:      -7.8      5.931      9.183
REMARK  Name = 
REMARK  8 active torsions:
REMARK  status: ('A' for Active; 'I' for Inactive)
REMARK    1  A    between atoms: C_1  and  N_2
REMARK    2  A    between atoms: N_2  and  C_3
REMARK    3  A    between atoms: N_6  and  C_7
REMARK    4  A    between atoms: C_10  and  C_11
REMARK    5  A    between atoms: N_13  and  C_14
REMARK    6  A    between atoms: C_19  and  O_20
REMARK    7  A    between atoms: O_20  and  C_21
REMARK    8  A    between atoms: C_24  and  C_25
REMARK                            x       y       z     vdW  Elec       q    Type
REMARK                         _______ _______ _______ _____ _____    ______ ____
ROOT
ATOM      1  C   UNL     1       1.209   9.856  19.089  0.00  0.00    +0.000 A 
ATOM      2  C   UNL     1       1.757   9.420  17.863  0.00  0.00    +0.000 A 
ATOM      3  C   UNL     1       2.434   8.210  17.746  0.00  0.00    +0.000 A 
ATOM      4  C   UNL     1       2.532   7.365  18.847  0.00  0.00    +0.000 A 
ATOM      5  C   UNL     1       1.898   7.720  20.044  0.00  0.00    +0.000 A 
ATOM      6  C   UNL     1       1.216   8.948  20.163  0.00  0.00    +0.000 A 
ENDROOT
BRANCH   1  10
ATOM      7  C   UNL     1      -2.558  10.595  17.552  0.00  0.00    +0.000 A 
ATOM      8  N   UNL     1      -1.231  10.632  17.763  0.00  0.00    +0.000 NA
ATOM      9  C   UNL     1      -0.730  11.366  18.768  0.00  0.00    +0.000 A 
ATOM     10  N   UNL     1       0.609  11.148  19.154  0.00  0.00    +0.000 N 
ATOM     11  N   UNL     1      -1.474  12.205  19.489  0.00  0.00    +0.000 NA
ATOM     12  C   UNL     1      -2.801  12.171  19.254  0.00  0.00    +0.000 A 
ATOM     13  C   UNL     1      -3.409  11.348  18.326  0.00  0.00    +0.000 A 
ATOM     14  H   UNL     1       1.152  11.813  18.617  0.00  0.00    +0.000 HD
BRANCH  13  15
ATOM     15  C   UNL     1      -4.891  11.304  18.258  0.00  0.00    +0.000 C 
ATOM     16  F   UNL     1      -5.453  10.079  18.465  0.00  0.00    +0.000 F 
ATOM     17  F   UNL     1      -5.458  12.111  19.205  0.00  0.00    +0.000 F 
ATOM     18  F   UNL     1      -5.382  11.749  17.068  0.00  0.00    +0.000 F 
ENDBRANCH  13  15
BRANCH   7  20
ATOM     19  C   UNL     1      -2.907  10.384  15.172  0.00  0.00    +0.000 C 
ATOM     20  N   UNL     1      -3.031   9.801  16.501  0.00  0.00    +0.000 N 
ATOM     21  H   UNL     1      -2.647   8.859  16.536  0.00  0.00    +0.000 HD
ENDBRANCH   7  20
ENDBRANCH   1  10
BRANCH   4  22
ATOM     22  C   UNL     1       3.316   6.110  18.672  0.00  0.00    +0.000 C 
ATOM     23  O   UNL     1       4.455   6.154  18.221  0.00  0.00    +0.000 OA
ATOM     24  N   UNL     1       2.727   4.942  19.106  0.00  0.00    +0.000 N 
ATOM     25  H   UNL     1       1.832   4.992  19.577  0.00  0.00    +0.000 HD
BRANCH  24  26
ATOM     26  C   UNL     1       3.458   3.652  19.032  0.00  0.00    +0.000 C 
ATOM     27  C   UNL     1       2.815   2.461  19.756  0.00  0.00    +0.000 C 
ATOM     28  O   UNL     1       2.969   1.625  18.573  0.00  0.00    +0.000 OA
ATOM     29  C   UNL     1       3.206   2.812  17.774  0.00  0.00    +0.000 C 
ENDBRANCH  24  26
ENDBRANCH   4  22
BRANCH   6  30
ATOM     30  O   UNL     1       0.716   9.185  21.419  0.00  0.00    +0.000 OA
ATOM     31  C   UNL     1      -0.485   8.498  21.767  0.00  0.00    +0.000 C 
ENDBRANCH   6  30
TORSDOF 6
ENDMDL
MODEL 3
REMARK VINA RESULT:      -7.7      5.865      8.586
REMARK  Name = 
REMARK  8 active torsions:
REMARK  status: ('A' for Active; 'I' for Inactive)
REMARK    1  A    between atoms: C_1  and  N_2
REMARK    2  A    between atoms: N_2  and  C_3
REMARK    3  A    between atoms: N_6  and  C_7
REMARK    4  A    between atoms: C_10  and  C_11
REMARK    5  A    between atoms: N_13  and  C_14
REMARK    6  A    between atoms: C_19  and  O_20
REMARK    7  A    between atoms: O_20  and  C_21
REMARK    8  A    between atoms: C_24  and  C_25
REMARK                            x       y       z     vdW  Elec       q    Type
REMARK                         _______ _______ _______ _____ _____    ______ ____
ROOT
ATOM      1  C   UNL     1       1.245   9.817  19.015  0.00  0.00    +0.000 A 
ATOM      2  C   UNL     1       1.937   9.428  17.846  0.00  0.00    +0.000 A 
ATOM      3  C   UNL     1       2.622   8.221  17.762  0.00  0.00    +0.000 A 
ATOM      4  C   UNL     1       2.587   7.331  18.832  0.00  0.00    +0.000 A 
ATOM      5  C   UNL     1       1.814   7.641  19.958  0.00  0.00    +0.000 A 
ATOM      6  C   UNL     1       1.124   8.867  20.044  0.00  0.00    +0.000 A 
ENDROOT
BRANCH   1  10
ATOM      7  C   UNL     1      -2.534  10.518  17.490  0.00  0.00    +0.000 A 
ATOM      8  N   UNL     1      -1.205  10.563  17.692  0.00  0.00    +0.000 NA
ATOM      9  C   UNL     1      -0.699  11.317  18.680  0.00  0.00    +0.000 A 
ATOM     10  N   UNL     1       0.643  11.109  19.060  0.00  0.00    +0.000 N 
ATOM     11  N   UNL     1      -1.440  12.167  19.390  0.00  0.00    +0.000 NA
ATOM     12  C   UNL     1      -2.768  12.125  19.165  0.00  0.00    +0.000 A 
ATOM     13  C   UNL     1      -3.382  11.284  18.257  0.00  0.00    +0.000 A 
ATOM     14  H   UNL     1       1.180  11.766  18.507  0.00  0.00    +0.000 HD
BRANCH  13  15
ATOM     15  C   UNL     1      -4.864  11.236  18.199  0.00  0.00    +0.000 C 
ATOM     16  F   UNL     1      -5.421  10.016  18.447  0.00  0.00    +0.000 F 
ATOM     17  F   UNL     1      -5.426  12.069  19.126  0.00  0.00    +0.000 F 
ATOM     18  F   UNL     1      -5.363  11.643  17.000  0.00  0.00    +0.000 F 
ENDBRANCH  13  15
BRANCH   7  20
ATOM     19  C   UNL     1      -2.908  10.267  15.118  0.00  0.00    +0.000 C 
ATOM     20  N   UNL     1      -3.012   9.705  16.458  0.00  0.00    +0.000 N 
ATOM     21  H   UNL     1      -2.619   8.766  16.503  0.00  0.00    +0.000 HD
ENDBRANCH   7  20
ENDBRANCH   1  10
BRANCH   4  22
ATOM     22  C   UNL     1       3.386   6.080  18.701  0.00  0.00    +0.000 C 
ATOM     23  O   UNL     1       3.166   5.130  19.445  0.00  0.00    +0.000 OA
ATOM     24  N   UNL     1       4.307   6.033  17.677  0.00  0.00    +0.000 N 
ATOM     25  H   UNL     1       4.355   6.807  17.027  0.00  0.00    +0.000 HD
BRANCH  24  26
ATOM     26  C   UNL     1       5.102   4.804  17.431  0.00  0.00    +0.000 C 
ATOM     27  C   UNL     1       5.907   4.763  16.123  0.00  0.00    +0.000 C 
ATOM     28  O   UNL     1       7.105   4.354  16.843  0.00  0.00    +0.000 OA
ATOM     29  C   UNL     1       6.486   4.760  18.090  0.00  0.00    +0.000 C 
ENDBRANCH  24  26
ENDBRANCH   4  22
BRANCH   6  30
ATOM     30  O   UNL     1       0.476   9.055  21.239  0.00  0.00    +0.000 OA
ATOM     31  C   UNL     1       1.297   9.154  22.401  0.00  0.00    +0.000 C 
ENDBRANCH   6  30
TORSDOF 6
ENDMDL
MODEL 4
REMARK VINA RESULT:      -7.6      0.836      1.127
REMARK  Name = 
REMARK  8 active torsions:
REMARK  status: ('A' for Active; 'I' for Inactive)
REMARK    1  A    between atoms: C_1  and  N_2
REMARK    2  A    between atoms: N_2  and  C_3
REMARK    3  A    between atoms: N_6  and  C_7
REMARK    4  A    between atoms: C_10  and  C_11
REMARK    5  A    between atoms: N_13  and  C_14
REMARK    6  A    between atoms: C_19  and  O_20
REMARK    7  A    between atoms: O_20  and  C_21
REMARK    8  A    between atoms: C_24  and  C_25
REMARK                            x       y       z     vdW  Elec       q    Type
REMARK                         _______ _______ _______ _____ _____    ______ ____
ROOT
ATOM      1  C   UNL     1       6.853   5.381  18.109  0.00  0.00    +0.000 A 
ATOM      2  C   UNL     1       7.850   5.813  19.012  0.00  0.00    +0.000 A 
ATOM      3  C   UNL     1       8.329   7.119  19.011  0.00  0.00    +0.000 A 
ATOM      4  C   UNL     1       7.781   8.056  18.141  0.00  0.00    +0.000 A 
ATOM      5  C   UNL     1       6.712   7.683  17.316  0.00  0.00    +0.000 A 
ATOM      6  C   UNL     1       6.229   6.359  17.314  0.00  0.00    +0.000 A 
ENDROOT
BRANCH   1  10
ATOM      7  C   UNL     1       3.302   4.087  19.787  0.00  0.00    +0.000 A 
ATOM      8  N   UNL     1       4.611   4.262  19.536  0.00  0.00    +0.000 NA
ATOM      9  C   UNL     1       5.202   3.583  18.541  0.00  0.00    +0.000 A 
ATOM     10  N   UNL     1       6.476   4.005  18.107  0.00  0.00    +0.000 N 
ATOM     11  N   UNL     1       4.591   2.606  17.873  0.00  0.00    +0.000 NA
ATOM     12  C   UNL     1       3.284   2.428  18.147  0.00  0.00    +0.000 A 
ATOM     13  C   UNL     1       2.569   3.174  19.065  0.00  0.00    +0.000 A 
ATOM     14  H   UNL     1       7.135   3.461  18.649  0.00  0.00    +0.000 HD
BRANCH  13  15
ATOM     15  C   UNL     1       1.103   2.973  19.178  0.00  0.00    +0.000 C 
ATOM     16  F   UNL     1       0.333   3.977  18.670  0.00  0.00    +0.000 F 
ATOM     17  F   UNL     1       0.701   1.853  18.507  0.00  0.00    +0.000 F 
ATOM     18  F   UNL     1       0.688   2.791  20.462  0.00  0.00    +0.000 F 
ENDBRANCH  13  15
BRANCH   7  20
ATOM     19  C   UNL     1       2.145   6.107  20.431  0.00  0.00    +0.000 C 
ATOM     20  N   UNL     1       2.730   4.831  20.824  0.00  0.00    +0.000 N 
ATOM     21  H   UNL     1       2.081   4.274  21.376  0.00  0.00    +0.000 HD
ENDBRANCH   7  20
ENDBRANCH   1  10
BRANCH   4  22
ATOM     22  C   UNL     1       8.375   9.422  18.150  0.00  0.00    +0.000 C 
ATOM     23  O   UNL     1       8.113  10.213  17.250  0.00  0.00    +0.000 OA
ATOM     24  N   UNL     1       9.153   9.755  19.237  0.00  0.00    +0.000 N 
ATOM     25  H   UNL     1       9.232   9.096  20.002  0.00  0.00    +0.000 HD
BRANCH  24  26
ATOM     26  C   UNL     1       9.733  11.116  19.365  0.00  0.00    +0.000 C 
ATOM     27  C   UNL     1      10.078  11.580  20.787  0.00  0.00    +0.000 C 
ATOM     28  O   UNL     1      11.407  11.992  20.358  0.00  0.00    +0.000 OA
ATOM     29  C   UNL     1      11.247  11.220  19.142  0.00  0.00    +0.000 C 
ENDBRANCH  24  26
ENDBRANCH   4  22
BRANCH   6  30
ATOM     30  O   UNL     1       5.233   6.133  16.397  0.00  0.00    +0.000 OA
ATOM     31  C   UNL     1       5.621   5.514  15.173  0.00  0.00    +0.000 C 
ENDBRANCH   6  30
TORSDOF 6
ENDMDL
MODEL 5
REMARK VINA RESULT:      -7.4      5.941      9.030
REMARK  Name = 
REMARK  8 active torsions:
REMARK  status: ('A' for Active; 'I' for Inactive)
REMARK    1  A    between atoms: C_1  and  N_2
REMARK    2  A    between atoms: N_2  and  C_3
REMARK    3  A    between atoms: N_6  and  C_7
REMARK    4  A    between atoms: C_10  and  C_11
REMARK    5  A    between atoms: N_13  and  C_14
REMARK    6  A    between atoms: C_19  and  O_20
REMARK    7  A    between atoms: O_20  and  C_21
REMARK    8  A    between atoms: C_24  and  C_25
REMARK                            x       y       z     vdW  Elec       q    Type
REMARK                         _______ _______ _______ _____ _____    ______ ____
ROOT
ATOM      1  C   UNL     1       1.219   9.821  19.046  0.00  0.00    +0.000 A 
ATOM      2  C   UNL     1       1.893   9.522  17.842  0.00  0.00    +0.000 A 
ATOM      3  C   UNL     1       2.547   8.310  17.645  0.00  0.00    +0.000 A 
ATOM      4  C   UNL     1       2.497   7.329  18.631  0.00  0.00    +0.000 A 
ATOM      5  C   UNL     1       1.739   7.556  19.787  0.00  0.00    +0.000 A 
ATOM      6  C   UNL     1       1.080   8.786  19.988  0.00  0.00    +0.000 A 
ENDROOT
BRANCH   1  10
ATOM      7  C   UNL     1      -2.568  10.735  17.661  0.00  0.00    +0.000 A 
ATOM      8  N   UNL     1      -1.236  10.732  17.839  0.00  0.00    +0.000 NA
ATOM      9  C   UNL     1      -0.694  11.388  18.877  0.00  0.00    +0.000 A 
ATOM     10  N   UNL     1       0.650  11.118  19.212  0.00  0.00    +0.000 N 
ATOM     11  N   UNL     1      -1.401  12.191  19.670  0.00  0.00    +0.000 NA
ATOM     12  C   UNL     1      -2.734  12.200  19.469  0.00  0.00    +0.000 A 
ATOM     13  C   UNL     1      -3.384  11.452  18.505  0.00  0.00    +0.000 A 
ATOM     14  H   UNL     1       1.192  11.806  18.705  0.00  0.00    +0.000 HD
BRANCH  13  15
ATOM     15  C   UNL     1      -4.867  11.443  18.473  0.00  0.00    +0.000 C 
ATOM     16  F   UNL     1      -5.481  12.078  19.512  0.00  0.00    +0.000 F 
ATOM     17  F   UNL     1      -5.345  12.066  17.354  0.00  0.00    +0.000 F 
ATOM     18  F   UNL     1      -5.391  10.187  18.436  0.00  0.00    +0.000 F 
ENDBRANCH  13  15
BRANCH   7  20
ATOM     19  C   UNL     1      -2.913  10.655  15.272  0.00  0.00    +0.000 C 
ATOM     20  N   UNL     1      -3.084  10.022  16.574  0.00  0.00    +0.000 N 
ATOM     21  H   UNL     1      -2.763   9.056  16.568  0.00  0.00    +0.000 HD
ENDBRANCH   7  20
ENDBRANCH   1  10
BRANCH   4  22
ATOM     22  C   UNL     1       3.263   6.076  18.383  0.00  0.00    +0.000 C 
ATOM     23  O   UNL     1       4.284   6.103  17.705  0.00  0.00    +0.000 OA
ATOM     24  N   UNL     1       2.807   4.934  19.005  0.00  0.00    +0.000 N 
ATOM     25  H   UNL     1       2.027   5.005  19.646  0.00  0.00    +0.000 HD
BRANCH  24  26
ATOM     26  C   UNL     1       3.544   3.652  18.869  0.00  0.00    +0.000 C 
ATOM     27  C   UNL     1       5.002   3.648  19.350  0.00  0.00    +0.000 C 
ATOM     28  O   UNL     1       4.771   2.437  20.124  0.00  0.00    +0.000 OA
ATOM     29  C   UNL     1       3.340   2.640  20.003  0.00  0.00    +0.000 C 
ENDBRANCH  24  26
ENDBRANCH   4  22
BRANCH   6  30
ATOM     30  O   UNL     1       0.445   8.882  21.201  0.00  0.00    +0.000 OA
ATOM     31  C   UNL     1       1.254   9.246  22.317  0.00  0.00    +0.000 C 
ENDBRANCH   6  30
TORSDOF 6
ENDMDL
MODEL 6
REMARK VINA RESULT:      -7.3      5.421      8.480
REMARK  Name = 
REMARK  8 active torsions:
REMARK  status: ('A' for Active; 'I' for Inactive)
REMARK    1  A    between atoms: C_1  and  N_2
REMARK    2  A    between atoms: N_2  and  C_3
REMARK    3  A    between atoms: N_6  and  C_7
REMARK    4  A    between atoms: C_10  and  C_11
REMARK    5  A    between atoms: N_13  and  C_14
REMARK    6  A    between atoms: C_19  and  O_20
REMARK    7  A    between atoms: O_20  and  C_21
REMARK    8  A    between atoms: C_24  and  C_25
REMARK                            x       y       z     vdW  Elec       q    Type
REMARK                         _______ _______ _______ _____ _____    ______ ____
ROOT
ATOM      1  C   UNL     1       1.847   8.587  18.799  0.00  0.00    +0.000 A 
ATOM      2  C   UNL     1       1.221   9.182  17.681  0.00  0.00    +0.000 A 
ATOM      3  C   UNL     1       0.065   9.948  17.804  0.00  0.00    +0.000 A 
ATOM      4  C   UNL     1      -0.469  10.193  19.065  0.00  0.00    +0.000 A 
ATOM      5  C   UNL     1       0.197   9.711  20.199  0.00  0.00    +0.000 A 
ATOM      6  C   UNL     1       1.364   8.932  20.074  0.00  0.00    +0.000 A 
ENDROOT
BRANCH   1  10
ATOM      7  C   UNL     1       1.681   4.516  19.499  0.00  0.00    +0.000 A 
ATOM      8  N   UNL     1       2.021   5.815  19.569  0.00  0.00    +0.000 NA
ATOM      9  C   UNL     1       2.876   6.336  18.677  0.00  0.00    +0.000 A 
ATOM     10  N   UNL     1       2.974   7.740  18.585  0.00  0.00    +0.000 N 
ATOM     11  N   UNL     1       3.548   5.590  17.801  0.00  0.00    +0.000 NA
ATOM     12  C   UNL     1       3.212   4.285  17.754  0.00  0.00    +0.000 A 
ATOM     13  C   UNL     1       2.248   3.697  18.550  0.00  0.00    +0.000 A 
ATOM     14  H   UNL     1       3.728   7.995  19.211  0.00  0.00    +0.000 HD
BRANCH  13  15
ATOM     15  C   UNL     1       1.872   2.282  18.307  0.00  0.00    +0.000 C 
ATOM     16  F   UNL     1       0.537   2.011  18.363  0.00  0.00    +0.000 F 
ATOM     17  F   UNL     1       2.259   1.870  17.063  0.00  0.00    +0.000 F 
ATOM     18  F   UNL     1       2.470   1.418  19.173  0.00  0.00    +0.000 F 
ENDBRANCH  13  15
BRANCH   7  20
ATOM     19  C   UNL     1       1.358   3.270  21.543  0.00  0.00    +0.000 C 
ATOM     20  N   UNL     1       0.773   4.025  20.443  0.00  0.00    +0.000 N 
ATOM     21  H   UNL     1       0.145   4.753  20.778  0.00  0.00    +0.000 HD
ENDBRANCH   7  20
ENDBRANCH   1  10
BRANCH   4  22
ATOM     22  C   UNL     1      -1.737  10.973  19.125  0.00  0.00    +0.000 C 
ATOM     23  O   UNL     1      -1.926  11.771  20.038  0.00  0.00    +0.000 OA
ATOM     24  N   UNL     1      -2.624  10.802  18.084  0.00  0.00    +0.000 N 
ATOM     25  H   UNL     1      -2.353  10.218  17.304  0.00  0.00    +0.000 HD
BRANCH  24  26
ATOM     26  C   UNL     1      -3.883  11.586  18.026  0.00  0.00    +0.000 C 
ATOM     27  C   UNL     1      -4.623  11.590  16.680  0.00  0.00    +0.000 C 
ATOM     28  O   UNL     1      -5.877  11.253  17.339  0.00  0.00    +0.000 OA
ATOM     29  C   UNL     1      -5.142  10.866  18.527  0.00  0.00    +0.000 C 
ENDBRANCH  24  26
ENDBRANCH   4  22
BRANCH   6  30
ATOM     30  O   UNL     1       1.855   8.471  21.270  0.00  0.00    +0.000 OA
ATOM     31  C   UNL     1       1.311   9.058  22.450  0.00  0.00    +0.000 C 
ENDBRANCH   6  30
TORSDOF 6
ENDMDL
MODEL 7
REMARK VINA RESULT:      -7.2      6.356      9.277
REMARK  Name = 
REMARK  8 active torsions:
REMARK  status: ('A' for Active; 'I' for Inactive)
REMARK    1  A    between atoms: C_1  and  N_2
REMARK    2  A    between atoms: N_2  and  C_3
REMARK    3  A    between atoms: N_6  and  C_7
REMARK    4  A    between atoms: C_10  and  C_11
REMARK    5  A    between atoms: N_13  and  C_14
REMARK    6  A    between atoms: C_19  and  O_20
REMARK    7  A    between atoms: O_20  and  C_21
REMARK    8  A    between atoms: C_24  and  C_25
REMARK                            x       y       z     vdW  Elec       q    Type
REMARK                         _______ _______ _______ _____ _____    ______ ____
ROOT
ATOM      1  C   UNL     1       1.204   9.529  19.404  0.00  0.00    +0.000 A 
ATOM      2  C   UNL     1       1.900   8.831  18.393  0.00  0.00    +0.000 A 
ATOM      3  C   UNL     1       2.374   7.536  18.583  0.00  0.00    +0.000 A 
ATOM      4  C   UNL     1       2.112   6.874  19.779  0.00  0.00    +0.000 A 
ATOM      5  C   UNL     1       1.326   7.502  20.754  0.00  0.00    +0.000 A 
ATOM      6  C   UNL     1       0.850   8.814  20.562  0.00  0.00    +0.000 A 
ENDROOT
BRANCH   1  10
ATOM      7  C   UNL     1      -2.423  10.526  17.688  0.00  0.00    +0.000 A 
ATOM      8  N   UNL     1      -1.103  10.387  17.904  0.00  0.00    +0.000 NA
ATOM      9  C   UNL     1      -0.464  11.232  18.727  0.00  0.00    +0.000 A 
ATOM     10  N   UNL     1       0.829  10.885  19.170  0.00  0.00    +0.000 N 
ATOM     11  N   UNL     1      -1.041  12.322  19.231  0.00  0.00    +0.000 NA
ATOM     12  C   UNL     1      -2.360  12.459  18.991  0.00  0.00    +0.000 A 
ATOM     13  C   UNL     1      -3.119  11.564  18.262  0.00  0.00    +0.000 A 
ATOM     14  H   UNL     1       1.462  11.314  18.505  0.00  0.00    +0.000 HD
BRANCH  13  15
ATOM     15  C   UNL     1      -4.589  11.754  18.184  0.00  0.00    +0.000 C 
ATOM     16  F   UNL     1      -5.079  12.038  16.943  0.00  0.00    +0.000 F 
ATOM     17  F   UNL     1      -5.258  10.627  18.571  0.00  0.00    +0.000 F 
ATOM     18  F   UNL     1      -5.042  12.741  19.004  0.00  0.00    +0.000 F 
ENDBRANCH  13  15
BRANCH   7  20
ATOM     19  C   UNL     1      -2.901   9.880  15.410  0.00  0.00    +0.000 C 
ATOM     20  N   UNL     1      -3.046   9.608  16.834  0.00  0.00    +0.000 N 
ATOM     21  H   UNL     1      -2.794   8.648  17.062  0.00  0.00    +0.000 HD
ENDBRANCH   7  20
ENDBRANCH   1  10
BRANCH   4  22
ATOM     22  C   UNL     1       2.693   5.512  19.942  0.00  0.00    +0.000 C 
ATOM     23  O   UNL     1       2.594   4.926  21.015  0.00  0.00    +0.000 OA
ATOM     24  N   UNL     1       3.266   4.941  18.826  0.00  0.00    +0.000 N 
ATOM     25  H   UNL     1       3.209   5.432  17.943  0.00  0.00    +0.000 HD
BRANCH  24  26
ATOM     26  C   UNL     1       3.812   3.562  18.878  0.00  0.00    +0.000 C 
ATOM     27  C   UNL     1       2.785   2.424  18.968  0.00  0.00    +0.000 C 
ATOM     28  O   UNL     1       3.435   1.715  17.875  0.00  0.00    +0.000 OA
ATOM     29  C   UNL     1       4.150   2.926  17.523  0.00  0.00    +0.000 C 
ENDBRANCH  24  26
ENDBRANCH   4  22
BRANCH   6  30
ATOM     30  O   UNL     1       0.161   9.317  21.638  0.00  0.00    +0.000 OA
ATOM     31  C   UNL     1       0.838   9.301  22.892  0.00  0.00    +0.000 C 
ENDBRANCH   6  30
TORSDOF 6
ENDMDL
MODEL 8
REMARK VINA RESULT:      -7.1      5.626      7.684
REMARK  Name = 
REMARK  8 active torsions:
REMARK  status: ('A' for Active; 'I' for Inactive)
REMARK    1  A    between atoms: C_1  and  N_2
REMARK    2  A    between atoms: N_2  and  C_3
REMARK    3  A    between atoms: N_6  and  C_7
REMARK    4  A    between atoms: C_10  and  C_11
REMARK    5  A    between atoms: N_13  and  C_14
REMARK    6  A    between atoms: C_19  and  O_20
REMARK    7  A    between atoms: O_20  and  C_21
REMARK    8  A    between atoms: C_24  and  C_25
REMARK                            x       y       z     vdW  Elec       q    Type
REMARK                         _______ _______ _______ _____ _____    ______ ____
ROOT
ATOM      1  C   UNL     1       2.294   6.459  20.135  0.00  0.00    +0.000 A 
ATOM      2  C   UNL     1       2.651   6.927  18.852  0.00  0.00    +0.000 A 
ATOM      3  C   UNL     1       3.318   6.123  17.933  0.00  0.00    +0.000 A 
ATOM      4  C   UNL     1       3.597   4.797  18.250  0.00  0.00    +0.000 A 
ATOM      5  C   UNL     1       3.151   4.275  19.471  0.00  0.00    +0.000 A 
ATOM      6  C   UNL     1       2.480   5.091  20.403  0.00  0.00    +0.000 A 
ENDROOT
BRANCH   1  10
ATOM      7  C   UNL     1       0.907  10.170  18.950  0.00  0.00    +0.000 A 
ATOM      8  N   UNL     1       1.606   9.200  19.566  0.00  0.00    +0.000 NA
ATOM      9  C   UNL     1       1.086   8.567  20.628  0.00  0.00    +0.000 A 
ATOM     10  N   UNL     1       1.694   7.369  21.057  0.00  0.00    +0.000 N 
ATOM     11  N   UNL     1      -0.042   8.958  21.220  0.00  0.00    +0.000 NA
ATOM     12  C   UNL     1      -0.724   9.943  20.603  0.00  0.00    +0.000 A 
ATOM     13  C   UNL     1      -0.321  10.559  19.433  0.00  0.00    +0.000 A 
ATOM     14  H   UNL     1       2.367   7.649  21.760  0.00  0.00    +0.000 HD
BRANCH  13  15
ATOM     15  C   UNL     1      -1.227  11.535  18.779  0.00  0.00    +0.000 C 
ATOM     16  F   UNL     1      -1.572  11.244  17.492  0.00  0.00    +0.000 F 
ATOM     17  F   UNL     1      -2.417  11.633  19.444  0.00  0.00    +0.000 F 
ATOM     18  F   UNL     1      -0.722  12.799  18.758  0.00  0.00    +0.000 F 
ENDBRANCH  13  15
BRANCH   7  20
ATOM     19  C   UNL     1       2.393  11.889  18.134  0.00  0.00    +0.000 C 
ATOM     20  N   UNL     1       1.486  10.788  17.837  0.00  0.00    +0.000 N 
ATOM     21  H   UNL     1       1.910  10.111  17.206  0.00  0.00    +0.000 HD
ENDBRANCH   7  20
ENDBRANCH   1  10
BRANCH   4  22
ATOM     22  C   UNL     1       4.361   4.005  17.247  0.00  0.00    +0.000 C 
ATOM     23  O   UNL     1       4.088   2.824  17.058  0.00  0.00    +0.000 OA
ATOM     24  N   UNL     1       5.314   4.679  16.515  0.00  0.00    +0.000 N 
ATOM     25  H   UNL     1       5.407   5.680  16.638  0.00  0.00    +0.000 HD
BRANCH  24  26
ATOM     26  C   UNL     1       6.079   3.987  15.448  0.00  0.00    +0.000 C 
ATOM     27  C   UNL     1       5.491   4.057  14.031  0.00  0.00    +0.000 C 
ATOM     28  O   UNL     1       6.778   4.470  13.489  0.00  0.00    +0.000 OA
ATOM     29  C   UNL     1       7.234   4.784  14.829  0.00  0.00    +0.000 C 
ENDBRANCH  24  26
ENDBRANCH   4  22
BRANCH   6  30
ATOM     30  O   UNL     1       2.177   4.455  21.581  0.00  0.00    +0.000 OA
ATOM     31  C   UNL     1       2.025   3.038  21.519  0.00  0.00    +0.000 C 
ENDBRANCH   6  30
TORSDOF 6
ENDMDL
MODEL 9
REMARK VINA RESULT:      -7.1      7.527     10.452
REMARK  Name = 
REMARK  8 active torsions:
REMARK  status: ('A' for Active; 'I' for Inactive)
REMARK    1  A    between atoms: C_1  and  N_2
REMARK    2  A    between atoms: N_2  and  C_3
REMARK    3  A    between atoms: N_6  and  C_7
REMARK    4  A    between atoms: C_10  and  C_11
REMARK    5  A    between atoms: N_13  and  C_14
REMARK    6  A    between atoms: C_19  and  O_20
REMARK    7  A    between atoms: O_20  and  C_21
REMARK    8  A    between atoms: C_24  and  C_25
REMARK                            x       y       z     vdW  Elec       q    Type
REMARK                         _______ _______ _______ _____ _____    ______ ____
ROOT
ATOM      1  C   UNL     1      -0.632  11.535  18.619  0.00  0.00    +0.000 A 
ATOM      2  C   UNL     1      -0.745  12.255  19.828  0.00  0.00    +0.000 A 
ATOM      3  C   UNL     1      -1.979  12.627  20.353  0.00  0.00    +0.000 A 
ATOM      4  C   UNL     1      -3.149  12.236  19.710  0.00  0.00    +0.000 A 
ATOM      5  C   UNL     1      -3.068  11.424  18.571  0.00  0.00    +0.000 A 
ATOM      6  C   UNL     1      -1.818  11.051  18.037  0.00  0.00    +0.000 A 
ENDROOT
BRANCH   1  10
ATOM      7  C   UNL     1       1.638   8.339  19.933  0.00  0.00    +0.000 A 
ATOM      8  N   UNL     1       1.220   9.588  19.662  0.00  0.00    +0.000 NA
ATOM      9  C   UNL     1       1.378  10.098  18.431  0.00  0.00    +0.000 A 
ATOM     10  N   UNL     1       0.668  11.269  18.095  0.00  0.00    +0.000 N 
ATOM     11  N   UNL     1       2.083   9.484  17.481  0.00  0.00    +0.000 NA
ATOM     12  C   UNL     1       2.512   8.240  17.773  0.00  0.00    +0.000 A 
ATOM     13  C   UNL     1       2.279   7.593  18.972  0.00  0.00    +0.000 A 
ATOM     14  H   UNL     1       1.296  12.033  18.313  0.00  0.00    +0.000 HD
BRANCH  13  15
ATOM     15  C   UNL     1       2.685   6.174  19.121  0.00  0.00    +0.000 C 
ATOM     16  F   UNL     1       1.731   5.341  19.626  0.00  0.00    +0.000 F 
ATOM     17  F   UNL     1       3.023   5.623  17.916  0.00  0.00    +0.000 F 
ATOM     18  F   UNL     1       3.783   6.014  19.909  0.00  0.00    +0.000 F 
ENDBRANCH  13  15
BRANCH   7  20
ATOM     19  C   UNL     1       1.128   8.853  22.237  0.00  0.00    +0.000 C 
ATOM     20  N   UNL     1       1.435   7.849  21.228  0.00  0.00    +0.000 N 
ATOM     21  H   UNL     1       0.764   7.083  21.241  0.00  0.00    +0.000 HD
ENDBRANCH   7  20
ENDBRANCH   1  10
BRANCH   4  22
ATOM     22  C   UNL     1      -4.435  12.712  20.290  0.00  0.00    +0.000 C 
ATOM     23  O   UNL     1      -5.320  13.140  19.557  0.00  0.00    +0.000 OA
ATOM     24  N   UNL     1      -4.592  12.575  21.653  0.00  0.00    +0.000 N 
ATOM     25  H   UNL     1      -3.869  12.105  22.183  0.00  0.00    +0.000 HD
BRANCH  24  26
ATOM     26  C   UNL     1      -5.865  12.962  22.311  0.00  0.00    +0.000 C 
ATOM     27  C   UNL     1      -5.896  12.872  23.844  0.00  0.00    +0.000 C 
ATOM     28  O   UNL     1      -6.441  14.218  23.938  0.00  0.00    +0.000 OA
ATOM     29  C   UNL     1      -6.059  14.463  22.561  0.00  0.00    +0.000 C 
ENDBRANCH  24  26
ENDBRANCH   4  22
BRANCH   6  30
ATOM     30  O   UNL     1      -1.905  10.321  16.879  0.00  0.00    +0.000 OA
ATOM     31  C   UNL     1      -2.932  10.696  15.964  0.00  0.00    +0.000 C 
ENDBRANCH   6  30
TORSDOF 6
ENDMDL
