MODEL 1
REMARK VINA RESULT:      -9.1      0.000      0.000
REMARK  Name = 
REMARK  4 active torsions:
REMARK  status: ('A' for Active; 'I' for Inactive)
REMARK    1  A    between atoms: C_1  and  C_2
REMARK    2  A    between atoms: N_4  and  C_5
REMARK    3  A    between atoms: N_4  and  C_17
REMARK    4  A    between atoms: C_5  and  N_6
REMARK                            x       y       z     vdW  Elec       q    Type
REMARK                         _______ _______ _______ _____ _____    ______ ____
ROOT
ATOM      1  C   UNL     1       0.461   3.442  19.735  0.00  0.00    +0.000 C 
ATOM      2  C   UNL     1       1.937   3.131  19.850  0.00  0.00    +0.000 C 
ATOM      3  O   UNL     1       2.286   1.961  20.004  0.00  0.00    +0.000 OA
ATOM      4  N   UNL     1       2.849   4.174  19.726  0.00  0.00    +0.000 N 
ENDROOT
BRANCH   4   5
ATOM      5  C   UNL     1       2.476   5.536  19.574  0.00  0.00    +0.000 A 
ATOM      6  C   UNL     1       2.656   6.155  18.330  0.00  0.00    +0.000 A 
ATOM      7  C   UNL     1       2.304   7.495  18.120  0.00  0.00    +0.000 A 
ATOM      8  C   UNL     1       1.776   8.229  19.195  0.00  0.00    +0.000 A 
ATOM      9  C   UNL     1       1.600   7.584  20.415  0.00  0.00    +0.000 A 
ATOM     10  C   UNL     1       1.925   6.249  20.651  0.00  0.00    +0.000 A 
ATOM     11  O   UNL     1       1.076   8.442  21.334  0.00  0.00    +0.000 OA
ATOM     12  C   UNL     1       0.931   9.648  20.716  0.00  0.00    +0.000 A 
ATOM     13  C   UNL     1       0.441  10.809  21.312  0.00  0.00    +0.000 A 
ATOM     14  C   UNL     1       0.392  11.952  20.507  0.00  0.00    +0.000 A 
ATOM     15  C   UNL     1       0.808  11.916  19.173  0.00  0.00    +0.000 A 
ATOM     16  C   UNL     1       1.288  10.732  18.598  0.00  0.00    +0.000 A 
ATOM     17  C   UNL     1       1.347   9.571  19.392  0.00  0.00    +0.000 A 
ENDBRANCH   4   5
BRANCH   4  18
ATOM     18  C   UNL     1       4.286   3.859  19.744  0.00  0.00    +0.000 C 
BRANCH  18  19
ATOM     19  N   UNL     1       4.915   4.017  18.450  0.00  0.00    +0.000 N 
ATOM     20  C   UNL     1       6.106   4.657  18.258  0.00  0.00    +0.000 C 
ATOM     21  O   UNL     1       6.894   5.107  19.062  0.00  0.00    +0.000 OA
ATOM     22  C   UNL     1       6.350   4.657  16.822  0.00  0.00    +0.000 A 
ATOM     23  C   UNL     1       7.341   5.287  16.091  0.00  0.00    +0.000 A 
ATOM     24  C   UNL     1       7.301   5.136  14.704  0.00  0.00    +0.000 A 
ATOM     25  C   UNL     1       6.308   4.343  14.093  0.00  0.00    +0.000 A 
ATOM     26  C   UNL     1       5.325   3.703  14.859  0.00  0.00    +0.000 A 
ATOM     27  C   UNL     1       5.361   3.897  16.227  0.00  0.00    +0.000 A 
ATOM     28  C   UNL     1       4.458   3.453  17.290  0.00  0.00    +0.000 C 
ATOM     29  O   UNL     1       3.513   2.707  17.118  0.00  0.00    +0.000 OA
ENDBRANCH  18  19
ENDBRANCH   4  18
TORSDOF 3
ENDMDL
MODEL 2
REMARK VINA RESULT:      -8.9      0.285      1.639
REMARK  Name = 
REMARK  4 active torsions:
REMARK  status: ('A' for Active; 'I' for Inactive)
REMARK    1  A    between atoms: C_1  and  C_2
REMARK    2  A    between atoms: N_4  and  C_5
REMARK    3  A    between atoms: N_4  and  C_17
REMARK    4  A    between atoms: C_5  and  N_6
REMARK                            x       y       z     vdW  Elec       q    Type
REMARK                         _______ _______ _______ _____ _____    ______ ____
ROOT
ATOM      1  C   UNL     1       0.591   3.504  19.794  0.00  0.00    +0.000 C 
ATOM      2  C   UNL     1       2.081   3.244  19.833  0.00  0.00    +0.000 C 
ATOM      3  O   UNL     1       2.478   2.086  19.966  0.00  0.00    +0.000 OA
ATOM      4  N   UNL     1       2.950   4.317  19.664  0.00  0.00    +0.000 N 
ENDROOT
BRANCH   4   5
ATOM      5  C   UNL     1       2.524   5.666  19.536  0.00  0.00    +0.000 A 
ATOM      6  C   UNL     1       2.617   6.291  18.284  0.00  0.00    +0.000 A 
ATOM      7  C   UNL     1       2.209   7.618  18.096  0.00  0.00    +0.000 A 
ATOM      8  C   UNL     1       1.713   8.333  19.198  0.00  0.00    +0.000 A 
ATOM      9  C   UNL     1       1.622   7.682  20.424  0.00  0.00    +0.000 A 
ATOM     10  C   UNL     1       2.005   6.359  20.641  0.00  0.00    +0.000 A 
ATOM     11  O   UNL     1       1.118   8.521  21.372  0.00  0.00    +0.000 OA
ATOM     12  C   UNL     1       0.899   9.722  20.765  0.00  0.00    +0.000 A 
ATOM     13  C   UNL     1       0.402  10.865  21.388  0.00  0.00    +0.000 A 
ATOM     14  C   UNL     1       0.272  12.006  20.589  0.00  0.00    +0.000 A 
ATOM     15  C   UNL     1       0.620  11.985  19.235  0.00  0.00    +0.000 A 
ATOM     16  C   UNL     1       1.109  10.818  18.634  0.00  0.00    +0.000 A 
ATOM     17  C   UNL     1       1.249   9.659  19.421  0.00  0.00    +0.000 A 
ENDBRANCH   4   5
BRANCH   4  18
ATOM     18  C   UNL     1       4.396   4.051  19.608  0.00  0.00    +0.000 C 
BRANCH  18  19
ATOM     19  N   UNL     1       4.951   4.231  18.284  0.00  0.00    +0.000 N 
ATOM     20  C   UNL     1       4.433   3.657  17.159  0.00  0.00    +0.000 C 
ATOM     21  O   UNL     1       3.419   3.009  17.004  0.00  0.00    +0.000 OA
ATOM     22  C   UNL     1       5.313   4.029  16.059  0.00  0.00    +0.000 A 
ATOM     23  C   UNL     1       5.315   3.604  14.743  0.00  0.00    +0.000 A 
ATOM     24  C   UNL     1       6.317   4.110  13.914  0.00  0.00    +0.000 A 
ATOM     25  C   UNL     1       7.257   5.041  14.403  0.00  0.00    +0.000 A 
ATOM     26  C   UNL     1       7.223   5.465  15.738  0.00  0.00    +0.000 A 
ATOM     27  C   UNL     1       6.246   4.922  16.551  0.00  0.00    +0.000 A 
ATOM     28  C   UNL     1       5.982   5.080  17.982  0.00  0.00    +0.000 C 
ATOM     29  O   UNL     1       6.582   5.850  18.707  0.00  0.00    +0.000 OA
ENDBRANCH  18  19
ENDBRANCH   4  18
TORSDOF 3
ENDMDL
MODEL 3
REMARK VINA RESULT:      -8.8      1.815      2.820
REMARK  Name = 
REMARK  4 active torsions:
REMARK  status: ('A' for Active; 'I' for Inactive)
REMARK    1  A    between atoms: C_1  and  C_2
REMARK    2  A    between atoms: N_4  and  C_5
REMARK    3  A    between atoms: N_4  and  C_17
REMARK    4  A    between atoms: C_5  and  N_6
REMARK                            x       y       z     vdW  Elec       q    Type
REMARK                         _______ _______ _______ _____ _____    ______ ____
ROOT
ATOM      1  C   UNL     1       1.178   2.541  19.203  0.00  0.00    +0.000 C 
ATOM      2  C   UNL     1       2.261   2.711  18.160  0.00  0.00    +0.000 C 
ATOM      3  O   UNL     1       2.626   1.725  17.519  0.00  0.00    +0.000 OA
ATOM      4  N   UNL     1       2.770   3.985  17.928  0.00  0.00    +0.000 N 
ENDROOT
BRANCH   4   5
ATOM      5  C   UNL     1       2.388   5.135  18.668  0.00  0.00    +0.000 A 
ATOM      6  C   UNL     1       2.222   5.025  20.056  0.00  0.00    +0.000 A 
ATOM      7  C   UNL     1       1.851   6.126  20.839  0.00  0.00    +0.000 A 
ATOM      8  C   UNL     1       1.624   7.358  20.204  0.00  0.00    +0.000 A 
ATOM      9  C   UNL     1       1.807   7.438  18.827  0.00  0.00    +0.000 A 
ATOM     10  C   UNL     1       2.191   6.366  18.023  0.00  0.00    +0.000 A 
ATOM     11  O   UNL     1       1.550   8.701  18.386  0.00  0.00    +0.000 OA
ATOM     12  C   UNL     1       1.182   9.435  19.474  0.00  0.00    +0.000 A 
ATOM     13  C   UNL     1       0.817  10.780  19.457  0.00  0.00    +0.000 A 
ATOM     14  C   UNL     1       0.451  11.345  20.683  0.00  0.00    +0.000 A 
ATOM     15  C   UNL     1       0.462  10.589  21.859  0.00  0.00    +0.000 A 
ATOM     16  C   UNL     1       0.842   9.241  21.847  0.00  0.00    +0.000 A 
ATOM     17  C   UNL     1       1.213   8.654  20.623  0.00  0.00    +0.000 A 
ENDBRANCH   4   5
BRANCH   4  18
ATOM     18  C   UNL     1       3.755   4.164  16.849  0.00  0.00    +0.000 C 
BRANCH  18  19
ATOM     19  N   UNL     1       4.905   4.940  17.260  0.00  0.00    +0.000 N 
ATOM     20  C   UNL     1       5.735   4.585  18.284  0.00  0.00    +0.000 C 
ATOM     21  O   UNL     1       5.763   3.576  18.957  0.00  0.00    +0.000 OA
ATOM     22  C   UNL     1       6.715   5.654  18.415  0.00  0.00    +0.000 A 
ATOM     23  C   UNL     1       7.689   5.851  19.377  0.00  0.00    +0.000 A 
ATOM     24  C   UNL     1       8.469   7.004  19.266  0.00  0.00    +0.000 A 
ATOM     25  C   UNL     1       8.282   7.900  18.193  0.00  0.00    +0.000 A 
ATOM     26  C   UNL     1       7.297   7.668  17.223  0.00  0.00    +0.000 A 
ATOM     27  C   UNL     1       6.511   6.541  17.375  0.00  0.00    +0.000 A 
ATOM     28  C   UNL     1       5.364   6.052  16.607  0.00  0.00    +0.000 C 
ATOM     29  O   UNL     1       4.959   6.566  15.582  0.00  0.00    +0.000 OA
ENDBRANCH  18  19
ENDBRANCH   4  18
TORSDOF 3
ENDMDL
MODEL 4
REMARK VINA RESULT:      -8.6      0.860      2.235
REMARK  Name = 
REMARK  4 active torsions:
REMARK  status: ('A' for Active; 'I' for Inactive)
REMARK    1  A    between atoms: C_1  and  C_2
REMARK    2  A    between atoms: N_4  and  C_5
REMARK    3  A    between atoms: N_4  and  C_17
REMARK    4  A    between atoms: C_5  and  N_6
REMARK                            x       y       z     vdW  Elec       q    Type
REMARK                         _______ _______ _______ _____ _____    ______ ____
ROOT
ATOM      1  C   UNL     1       0.423   2.971  19.317  0.00  0.00    +0.000 C 
ATOM      2  C   UNL     1       1.899   2.649  19.387  0.00  0.00    +0.000 C 
ATOM      3  O   UNL     1       2.256   1.476  19.273  0.00  0.00    +0.000 OA
ATOM      4  N   UNL     1       2.805   3.696  19.529  0.00  0.00    +0.000 N 
ENDROOT
BRANCH   4   5
ATOM      5  C   UNL     1       2.423   5.054  19.690  0.00  0.00    +0.000 A 
ATOM      6  C   UNL     1       1.839   5.456  20.899  0.00  0.00    +0.000 A 
ATOM      7  C   UNL     1       1.446   6.783  21.117  0.00  0.00    +0.000 A 
ATOM      8  C   UNL     1       1.629   7.718  20.085  0.00  0.00    +0.000 A 
ATOM      9  C   UNL     1       2.220   7.291  18.901  0.00  0.00    +0.000 A 
ATOM     10  C   UNL     1       2.636   5.982  18.659  0.00  0.00    +0.000 A 
ATOM     11  O   UNL     1       2.322   8.326  18.020  0.00  0.00    +0.000 OA
ATOM     12  C   UNL     1       1.780   9.419  18.627  0.00  0.00    +0.000 A 
ATOM     13  C   UNL     1       1.670  10.687  18.060  0.00  0.00    +0.000 A 
ATOM     14  C   UNL     1       1.060  11.672  18.844  0.00  0.00    +0.000 A 
ATOM     15  C   UNL     1       0.595  11.387  20.131  0.00  0.00    +0.000 A 
ATOM     16  C   UNL     1       0.728  10.105  20.679  0.00  0.00    +0.000 A 
ATOM     17  C   UNL     1       1.338   9.099  19.905  0.00  0.00    +0.000 A 
ENDBRANCH   4   5
BRANCH   4  18
ATOM     18  C   UNL     1       4.244   3.391  19.503  0.00  0.00    +0.000 C 
BRANCH  18  19
ATOM     19  N   UNL     1       4.881   3.779  18.263  0.00  0.00    +0.000 N 
ATOM     20  C   UNL     1       4.334   3.566  17.030  0.00  0.00    +0.000 C 
ATOM     21  O   UNL     1       3.243   3.138  16.718  0.00  0.00    +0.000 OA
ATOM     22  C   UNL     1       5.310   4.036  16.056  0.00  0.00    +0.000 A 
ATOM     23  C   UNL     1       5.309   3.929  14.677  0.00  0.00    +0.000 A 
ATOM     24  C   UNL     1       6.414   4.448  13.999  0.00  0.00    +0.000 A 
ATOM     25  C   UNL     1       7.459   5.082  14.701  0.00  0.00    +0.000 A 
ATOM     26  C   UNL     1       7.428   5.189  16.098  0.00  0.00    +0.000 A 
ATOM     27  C   UNL     1       6.343   4.635  16.752  0.00  0.00    +0.000 A 
ATOM     28  C   UNL     1       6.040   4.501  18.178  0.00  0.00    +0.000 C 
ATOM     29  O   UNL     1       6.715   4.981  19.069  0.00  0.00    +0.000 OA
ENDBRANCH  18  19
ENDBRANCH   4  18
TORSDOF 3
ENDMDL
MODEL 5
REMARK VINA RESULT:      -8.6      1.679      4.595
REMARK  Name = 
REMARK  4 active torsions:
REMARK  status: ('A' for Active; 'I' for Inactive)
REMARK    1  A    between atoms: C_1  and  C_2
REMARK    2  A    between atoms: N_4  and  C_5
REMARK    3  A    between atoms: N_4  and  C_17
REMARK    4  A    between atoms: C_5  and  N_6
REMARK                            x       y       z     vdW  Elec       q    Type
REMARK                         _______ _______ _______ _____ _____    ______ ____
ROOT
ATOM      1  C   UNL     1       7.391   6.968  17.447  0.00  0.00    +0.000 C 
ATOM      2  C   UNL     1       6.950   5.540  17.215  0.00  0.00    +0.000 C 
ATOM      3  O   UNL     1       7.803   4.691  16.955  0.00  0.00    +0.000 OA
ATOM      4  N   UNL     1       5.602   5.227  17.353  0.00  0.00    +0.000 N 
ENDROOT
BRANCH   4   5
ATOM      5  C   UNL     1       4.592   6.188  17.626  0.00  0.00    +0.000 A 
ATOM      6  C   UNL     1       4.227   7.094  16.620  0.00  0.00    +0.000 A 
ATOM      7  C   UNL     1       3.236   8.062  16.829  0.00  0.00    +0.000 A 
ATOM      8  C   UNL     1       2.614   8.127  18.087  0.00  0.00    +0.000 A 
ATOM      9  C   UNL     1       2.989   7.208  19.061  0.00  0.00    +0.000 A 
ATOM     10  C   UNL     1       3.960   6.224  18.879  0.00  0.00    +0.000 A 
ATOM     11  O   UNL     1       2.283   7.415  20.207  0.00  0.00    +0.000 OA
ATOM     12  C   UNL     1       1.463   8.480  19.982  0.00  0.00    +0.000 A 
ATOM     13  C   UNL     1       0.581   9.032  20.910  0.00  0.00    +0.000 A 
ATOM     14  C   UNL     1      -0.158  10.141  20.487  0.00  0.00    +0.000 A 
ATOM     15  C   UNL     1      -0.017  10.654  19.194  0.00  0.00    +0.000 A 
ATOM     16  C   UNL     1       0.871  10.073  18.280  0.00  0.00    +0.000 A 
ATOM     17  C   UNL     1       1.626   8.957  18.687  0.00  0.00    +0.000 A 
ENDBRANCH   4   5
BRANCH   4  18
ATOM     18  C   UNL     1       5.187   3.822  17.219  0.00  0.00    +0.000 C 
BRANCH  18  19
ATOM     19  N   UNL     1       4.159   3.445  18.165  0.00  0.00    +0.000 N 
ATOM     20  C   UNL     1       2.848   3.261  17.829  0.00  0.00    +0.000 C 
ATOM     21  O   UNL     1       2.308   3.267  16.743  0.00  0.00    +0.000 OA
ATOM     22  C   UNL     1       2.140   2.959  19.066  0.00  0.00    +0.000 A 
ATOM     23  C   UNL     1       0.784   2.822  19.300  0.00  0.00    +0.000 A 
ATOM     24  C   UNL     1       0.389   2.565  20.614  0.00  0.00    +0.000 A 
ATOM     25  C   UNL     1       1.346   2.420  21.640  0.00  0.00    +0.000 A 
ATOM     26  C   UNL     1       2.715   2.549  21.371  0.00  0.00    +0.000 A 
ATOM     27  C   UNL     1       3.081   2.841  20.071  0.00  0.00    +0.000 A 
ATOM     28  C   UNL     1       4.389   3.117  19.474  0.00  0.00    +0.000 C 
ATOM     29  O   UNL     1       5.445   3.032  20.071  0.00  0.00    +0.000 OA
ENDBRANCH  18  19
ENDBRANCH   4  18
TORSDOF 3
ENDMDL
MODEL 6
REMARK VINA RESULT:      -8.5      0.880      1.562
REMARK  Name = 
REMARK  4 active torsions:
REMARK  status: ('A' for Active; 'I' for Inactive)
REMARK    1  A    between atoms: C_1  and  C_2
REMARK    2  A    between atoms: N_4  and  C_5
REMARK    3  A    between atoms: N_4  and  C_17
REMARK    4  A    between atoms: C_5  and  N_6
REMARK                            x       y       z     vdW  Elec       q    Type
REMARK                         _______ _______ _______ _____ _____    ______ ____
ROOT
ATOM      1  C   UNL     1       0.325   3.117  19.291  0.00  0.00    +0.000 C 
ATOM      2  C   UNL     1       1.785   2.754  19.447  0.00  0.00    +0.000 C 
ATOM      3  O   UNL     1       2.112   1.569  19.377  0.00  0.00    +0.000 OA
ATOM      4  N   UNL     1       2.713   3.778  19.614  0.00  0.00    +0.000 N 
ENDROOT
BRANCH   4   5
ATOM      5  C   UNL     1       2.363   5.150  19.725  0.00  0.00    +0.000 A 
ATOM      6  C   UNL     1       1.739   5.599  20.897  0.00  0.00    +0.000 A 
ATOM      7  C   UNL     1       1.375   6.942  21.064  0.00  0.00    +0.000 A 
ATOM      8  C   UNL     1       1.630   7.844  20.019  0.00  0.00    +0.000 A 
ATOM      9  C   UNL     1       2.261   7.371  18.873  0.00  0.00    +0.000 A 
ATOM     10  C   UNL     1       2.649   6.045  18.682  0.00  0.00    +0.000 A 
ATOM     11  O   UNL     1       2.432   8.380  17.973  0.00  0.00    +0.000 OA
ATOM     12  C   UNL     1       1.895   9.503  18.529  0.00  0.00    +0.000 A 
ATOM     13  C   UNL     1       1.848  10.759  17.926  0.00  0.00    +0.000 A 
ATOM     14  C   UNL     1       1.232  11.780  18.658  0.00  0.00    +0.000 A 
ATOM     15  C   UNL     1       0.703  11.541  19.930  0.00  0.00    +0.000 A 
ATOM     16  C   UNL     1       0.774  10.270  20.514  0.00  0.00    +0.000 A 
ATOM     17  C   UNL     1       1.388   9.228  19.793  0.00  0.00    +0.000 A 
ENDBRANCH   4   5
BRANCH   4  18
ATOM     18  C   UNL     1       4.141   3.431  19.672  0.00  0.00    +0.000 C 
BRANCH  18  19
ATOM     19  N   UNL     1       4.858   3.789  18.467  0.00  0.00    +0.000 N 
ATOM     20  C   UNL     1       5.966   4.587  18.451  0.00  0.00    +0.000 C 
ATOM     21  O   UNL     1       6.611   5.052  19.367  0.00  0.00    +0.000 OA
ATOM     22  C   UNL     1       6.338   4.755  17.053  0.00  0.00    +0.000 A 
ATOM     23  C   UNL     1       7.298   5.571  16.483  0.00  0.00    +0.000 A 
ATOM     24  C   UNL     1       7.405   5.550  15.091  0.00  0.00    +0.000 A 
ATOM     25  C   UNL     1       6.586   4.702  14.317  0.00  0.00    +0.000 A 
ATOM     26  C   UNL     1       5.630   3.874  14.923  0.00  0.00    +0.000 A 
ATOM     27  C   UNL     1       5.516   3.940  16.298  0.00  0.00    +0.000 A 
ATOM     28  C   UNL     1       4.587   3.286  17.223  0.00  0.00    +0.000 C 
ATOM     29  O   UNL     1       3.769   2.449  16.893  0.00  0.00    +0.000 OA
ENDBRANCH  18  19
ENDBRANCH   4  18
TORSDOF 3
ENDMDL
MODEL 7
REMARK VINA RESULT:      -8.5      1.831      2.863
REMARK  Name = 
REMARK  4 active torsions:
REMARK  status: ('A' for Active; 'I' for Inactive)
REMARK    1  A    between atoms: C_1  and  C_2
REMARK    2  A    between atoms: N_4  and  C_5
REMARK    3  A    between atoms: N_4  and  C_17
REMARK    4  A    between atoms: C_5  and  N_6
REMARK                            x       y       z     vdW  Elec       q    Type
REMARK                         _______ _______ _______ _____ _____    ______ ____
ROOT
ATOM      1  C   UNL     1       0.758   2.784  18.789  0.00  0.00    +0.000 C 
ATOM      2  C   UNL     1       1.993   2.813  17.917  0.00  0.00    +0.000 C 
ATOM      3  O   UNL     1       2.319   1.789  17.315  0.00  0.00    +0.000 OA
ATOM      4  N   UNL     1       2.689   4.011  17.786  0.00  0.00    +0.000 N 
ENDROOT
BRANCH   4   5
ATOM      5  C   UNL     1       2.354   5.199  18.487  0.00  0.00    +0.000 A 
ATOM      6  C   UNL     1       2.277   5.164  19.886  0.00  0.00    +0.000 A 
ATOM      7  C   UNL     1       1.954   6.305  20.631  0.00  0.00    +0.000 A 
ATOM      8  C   UNL     1       1.687   7.502  19.947  0.00  0.00    +0.000 A 
ATOM      9  C   UNL     1       1.782   7.509  18.560  0.00  0.00    +0.000 A 
ATOM     10  C   UNL     1       2.116   6.395  17.791  0.00  0.00    +0.000 A 
ATOM     11  O   UNL     1       1.497   8.748  18.069  0.00  0.00    +0.000 OA
ATOM     12  C   UNL     1       1.198   9.540  19.138  0.00  0.00    +0.000 A 
ATOM     13  C   UNL     1       0.832  10.882  19.072  0.00  0.00    +0.000 A 
ATOM     14  C   UNL     1       0.543  11.512  20.287  0.00  0.00    +0.000 A 
ATOM     15  C   UNL     1       0.629  10.820  21.499  0.00  0.00    +0.000 A 
ATOM     16  C   UNL     1       1.009   9.472  21.535  0.00  0.00    +0.000 A 
ATOM     17  C   UNL     1       1.302   8.820  20.322  0.00  0.00    +0.000 A 
ENDBRANCH   4   5
BRANCH   4  18
ATOM     18  C   UNL     1       3.835   4.062  16.864  0.00  0.00    +0.000 C 
BRANCH  18  19
ATOM     19  N   UNL     1       4.917   4.889  17.355  0.00  0.00    +0.000 N 
ATOM     20  C   UNL     1       5.259   6.094  16.811  0.00  0.00    +0.000 C 
ATOM     21  O   UNL     1       4.720   6.742  15.939  0.00  0.00    +0.000 OA
ATOM     22  C   UNL     1       6.426   6.565  17.545  0.00  0.00    +0.000 A 
ATOM     23  C   UNL     1       7.239   7.658  17.309  0.00  0.00    +0.000 A 
ATOM     24  C   UNL     1       8.324   7.840  18.169  0.00  0.00    +0.000 A 
ATOM     25  C   UNL     1       8.545   6.960  19.248  0.00  0.00    +0.000 A 
ATOM     26  C   UNL     1       7.695   5.868  19.473  0.00  0.00    +0.000 A 
ATOM     27  C   UNL     1       6.651   5.685  18.586  0.00  0.00    +0.000 A 
ATOM     28  C   UNL     1       5.647   4.624  18.483  0.00  0.00    +0.000 C 
ATOM     29  O   UNL     1       5.520   3.721  19.287  0.00  0.00    +0.000 OA
ENDBRANCH  18  19
ENDBRANCH   4  18
TORSDOF 3
ENDMDL
MODEL 8
REMARK VINA RESULT:      -8.4      1.143      2.160
REMARK  Name = 
REMARK  4 active torsions:
REMARK  status: ('A' for Active; 'I' for Inactive)
REMARK    1  A    between atoms: C_1  and  C_2
REMARK    2  A    between atoms: N_4  and  C_5
REMARK    3  A    between atoms: N_4  and  C_17
REMARK    4  A    between atoms: C_5  and  N_6
REMARK                            x       y       z     vdW  Elec       q    Type
REMARK                         _______ _______ _______ _____ _____    ______ ____
ROOT
ATOM      1  C   UNL     1       2.369   3.472  19.732  0.00  0.00    +0.000 C 
ATOM      2  C   UNL     1       3.845   3.595  19.425  0.00  0.00    +0.000 C 
ATOM      3  O   UNL     1       4.553   2.591  19.501  0.00  0.00    +0.000 OA
ATOM      4  N   UNL     1       4.341   4.830  19.020  0.00  0.00    +0.000 N 
ENDROOT
BRANCH   4   5
ATOM      5  C   UNL     1       3.556   6.012  18.948  0.00  0.00    +0.000 A 
ATOM      6  C   UNL     1       3.582   6.774  17.772  0.00  0.00    +0.000 A 
ATOM      7  C   UNL     1       2.826   7.947  17.642  0.00  0.00    +0.000 A 
ATOM      8  C   UNL     1       2.043   8.367  18.730  0.00  0.00    +0.000 A 
ATOM      9  C   UNL     1       2.031   7.584  19.880  0.00  0.00    +0.000 A 
ATOM     10  C   UNL     1       2.758   6.405  20.034  0.00  0.00    +0.000 A 
ATOM     11  O   UNL     1       1.218   8.138  20.823  0.00  0.00    +0.000 OA
ATOM     12  C   UNL     1       0.719   9.290  20.292  0.00  0.00    +0.000 A 
ATOM     13  C   UNL     1      -0.144  10.171  20.939  0.00  0.00    +0.000 A 
ATOM     14  C   UNL     1      -0.524  11.313  20.225  0.00  0.00    +0.000 A 
ATOM     15  C   UNL     1      -0.059  11.541  18.926  0.00  0.00    +0.000 A 
ATOM     16  C   UNL     1       0.801  10.632  18.297  0.00  0.00    +0.000 A 
ATOM     17  C   UNL     1       1.196   9.478  19.000  0.00  0.00    +0.000 A 
ENDBRANCH   4   5
BRANCH   4  18
ATOM     18  C   UNL     1       5.757   4.928  18.632  0.00  0.00    +0.000 C 
BRANCH  18  19
ATOM     19  N   UNL     1       5.961   4.804  17.205  0.00  0.00    +0.000 N 
ATOM     20  C   UNL     1       5.196   4.016  16.394  0.00  0.00    +0.000 C 
ATOM     21  O   UNL     1       4.194   3.378  16.639  0.00  0.00    +0.000 OA
ATOM     22  C   UNL     1       5.765   4.119  15.057  0.00  0.00    +0.000 A 
ATOM     23  C   UNL     1       5.452   3.421  13.905  0.00  0.00    +0.000 A 
ATOM     24  C   UNL     1       6.202   3.710  12.763  0.00  0.00    +0.000 A 
ATOM     25  C   UNL     1       7.208   4.698  12.793  0.00  0.00    +0.000 A 
ATOM     26  C   UNL     1       7.495   5.400  13.971  0.00  0.00    +0.000 A 
ATOM     27  C   UNL     1       6.766   5.071  15.098  0.00  0.00    +0.000 A 
ATOM     28  C   UNL     1       6.861   5.540  16.482  0.00  0.00    +0.000 C 
ATOM     29  O   UNL     1       7.601   6.431  16.852  0.00  0.00    +0.000 OA
ENDBRANCH  18  19
ENDBRANCH   4  18
TORSDOF 3
ENDMDL
MODEL 9
REMARK VINA RESULT:      -8.4      1.860      4.591
REMARK  Name = 
REMARK  4 active torsions:
REMARK  status: ('A' for Active; 'I' for Inactive)
REMARK    1  A    between atoms: C_1  and  C_2
REMARK    2  A    between atoms: N_4  and  C_5
REMARK    3  A    between atoms: N_4  and  C_17
REMARK    4  A    between atoms: C_5  and  N_6
REMARK                            x       y       z     vdW  Elec       q    Type
REMARK                         _______ _______ _______ _____ _____    ______ ____
ROOT
ATOM      1  C   UNL     1       6.333   7.919  17.354  0.00  0.00    +0.000 C 
ATOM      2  C   UNL     1       5.857   6.542  16.949  0.00  0.00    +0.000 C 
ATOM      3  O   UNL     1       6.652   5.776  16.405  0.00  0.00    +0.000 OA
ATOM      4  N   UNL     1       4.550   6.172  17.253  0.00  0.00    +0.000 N 
ENDROOT
BRANCH   4   5
ATOM      5  C   UNL     1       3.603   7.042  17.856  0.00  0.00    +0.000 A 
ATOM      6  C   UNL     1       3.084   8.105  17.105  0.00  0.00    +0.000 A 
ATOM      7  C   UNL     1       2.144   8.994  17.644  0.00  0.00    +0.000 A 
ATOM      8  C   UNL     1       1.735   8.813  18.976  0.00  0.00    +0.000 A 
ATOM      9  C   UNL     1       2.260   7.743  19.692  0.00  0.00    +0.000 A 
ATOM     10  C   UNL     1       3.183   6.833  19.179  0.00  0.00    +0.000 A 
ATOM     11  O   UNL     1       1.749   7.720  20.955  0.00  0.00    +0.000 OA
ATOM     12  C   UNL     1       0.909   8.787  21.064  0.00  0.00    +0.000 A 
ATOM     13  C   UNL     1       0.192   9.139  22.206  0.00  0.00    +0.000 A 
ATOM     14  C   UNL     1      -0.601  10.288  22.117  0.00  0.00    +0.000 A 
ATOM     15  C   UNL     1      -0.669  11.031  20.935  0.00  0.00    +0.000 A 
ATOM     16  C   UNL     1       0.056  10.647  19.799  0.00  0.00    +0.000 A 
ATOM     17  C   UNL     1       0.862   9.495  19.869  0.00  0.00    +0.000 A 
ENDBRANCH   4   5
BRANCH   4  18
ATOM     18  C   UNL     1       4.117   4.800  16.944  0.00  0.00    +0.000 C 
BRANCH  18  19
ATOM     19  N   UNL     1       3.484   4.143  18.067  0.00  0.00    +0.000 N 
ATOM     20  C   UNL     1       2.142   3.902  18.148  0.00  0.00    +0.000 C 
ATOM     21  O   UNL     1       1.263   4.071  17.329  0.00  0.00    +0.000 OA
ATOM     22  C   UNL     1       1.907   3.290  19.449  0.00  0.00    +0.000 A 
ATOM     23  C   UNL     1       0.717   2.977  20.079  0.00  0.00    +0.000 A 
ATOM     24  C   UNL     1       0.801   2.425  21.359  0.00  0.00    +0.000 A 
ATOM     25  C   UNL     1       2.054   2.173  21.954  0.00  0.00    +0.000 A 
ATOM     26  C   UNL     1       3.246   2.487  21.287  0.00  0.00    +0.000 A 
ATOM     27  C   UNL     1       3.138   3.068  20.037  0.00  0.00    +0.000 A 
ATOM     28  C   UNL     1       4.156   3.584  19.120  0.00  0.00    +0.000 C 
ATOM     29  O   UNL     1       5.354   3.486  19.304  0.00  0.00    +0.000 OA
ENDBRANCH  18  19
ENDBRANCH   4  18
TORSDOF 3
ENDMDL
