MODEL 1
REMARK VINA RESULT:      -7.9      0.000      0.000
REMARK  Name = 
REMARK  5 active torsions:
REMARK  status: ('A' for Active; 'I' for Inactive)
REMARK    1  A    between atoms: C_1  and  C_2
REMARK    2  A    between atoms: N_4  and  C_5
REMARK    3  A    between atoms: C_12  and  C_13
REMARK    4  A    between atoms: C_13  and  O_14
REMARK    5  A    between atoms: O_14  and  C_15
REMARK                            x       y       z     vdW  Elec       q    Type
REMARK                         _______ _______ _______ _____ _____    ______ ____
ROOT
ATOM      1  C   UNL     1       4.072   4.803  17.871  0.00  0.00    +0.000 A 
ATOM      2  C   UNL     1       4.046   3.715  16.964  0.00  0.00    +0.000 A 
ATOM      3 CL   UNL     1       5.328   3.396  15.839  0.00  0.00    +0.000 Cl
ATOM      4  C   UNL     1       3.043   2.748  17.042  0.00  0.00    +0.000 A 
ATOM      5  C   UNL     1       2.078   2.828  18.038  0.00  0.00    +0.000 A 
ATOM      6  C   UNL     1       2.126   3.860  18.978  0.00  0.00    +0.000 A 
ATOM      7 CL   UNL     1       0.934   3.807  20.233  0.00  0.00    +0.000 Cl
ATOM      8  C   UNL     1       3.112   4.872  18.914  0.00  0.00    +0.000 A 
ENDROOT
BRANCH   1  12
ATOM      9  C   UNL     1       7.249   6.795  18.073  0.00  0.00    +0.000 C 
ATOM     10  C   UNL     1       6.346   5.611  18.295  0.00  0.00    +0.000 C 
ATOM     11  O   UNL     1       6.755   4.576  18.812  0.00  0.00    +0.000 OA
ATOM     12  N   UNL     1       5.072   5.809  17.778  0.00  0.00    +0.000 N 
ATOM     13  H   UNL     1       5.083   6.347  16.916  0.00  0.00    +0.000 HD
ENDBRANCH   1  12
BRANCH   8  14
ATOM     14  C   UNL     1       3.157   5.928  20.010  0.00  0.00    +0.000 C 
BRANCH  14  15
ATOM     15  O   UNL     1       1.900   6.593  20.178  0.00  0.00    +0.000 OA
BRANCH  15  16
ATOM     16  C   UNL     1       1.792   7.860  19.652  0.00  0.00    +0.000 A 
ATOM     17  C   UNL     1       2.132   8.181  18.332  0.00  0.00    +0.000 A 
ATOM     18  C   UNL     1       1.920   9.468  17.841  0.00  0.00    +0.000 A 
ATOM     19  C   UNL     1       1.354  10.443  18.658  0.00  0.00    +0.000 A 
ATOM     20  C   UNL     1       1.011  10.144  19.985  0.00  0.00    +0.000 A 
ATOM     21  C   UNL     1       0.438  11.097  20.831  0.00  0.00    +0.000 A 
ATOM     22  N   UNL     1       0.101  10.877  22.122  0.00  0.00    +0.000 NA
ATOM     23  C   UNL     1       0.354   9.645  22.605  0.00  0.00    +0.000 A 
ATOM     24  C   UNL     1       0.910   8.621  21.853  0.00  0.00    +0.000 A 
ATOM     25  C   UNL     1       1.238   8.851  20.503  0.00  0.00    +0.000 A 
ENDBRANCH  15  16
ENDBRANCH  14  15
ENDBRANCH   8  14
TORSDOF 4
ENDMDL
MODEL 2
REMARK VINA RESULT:      -7.7      1.996      3.092
REMARK  Name = 
REMARK  5 active torsions:
REMARK  status: ('A' for Active; 'I' for Inactive)
REMARK    1  A    between atoms: C_1  and  C_2
REMARK    2  A    between atoms: N_4  and  C_5
REMARK    3  A    between atoms: C_12  and  C_13
REMARK    4  A    between atoms: C_13  and  O_14
REMARK    5  A    between atoms: O_14  and  C_15
REMARK                            x       y       z     vdW  Elec       q    Type
REMARK                         _______ _______ _______ _____ _____    ______ ____
ROOT
ATOM      1  C   UNL     1       3.700   3.919  18.927  0.00  0.00    +0.000 A 
ATOM      2  C   UNL     1       3.969   2.975  17.905  0.00  0.00    +0.000 A 
ATOM      3 CL   UNL     1       3.414   1.333  17.970  0.00  0.00    +0.000 Cl
ATOM      4  C   UNL     1       4.569   3.374  16.710  0.00  0.00    +0.000 A 
ATOM      5  C   UNL     1       4.878   4.712  16.501  0.00  0.00    +0.000 A 
ATOM      6  C   UNL     1       4.563   5.664  17.474  0.00  0.00    +0.000 A 
ATOM      7 CL   UNL     1       4.901   7.313  17.067  0.00  0.00    +0.000 Cl
ATOM      8  C   UNL     1       3.978   5.294  18.707  0.00  0.00    +0.000 A 
ENDROOT
BRANCH   1  12
ATOM      9  C   UNL     1       1.351   2.864  21.659  0.00  0.00    +0.000 C 
ATOM     10  C   UNL     1       1.751   3.299  20.275  0.00  0.00    +0.000 C 
ATOM     11  O   UNL     1       0.936   3.368  19.361  0.00  0.00    +0.000 OA
ATOM     12  N   UNL     1       3.117   3.516  20.160  0.00  0.00    +0.000 N 
ATOM     13  H   UNL     1       3.662   2.864  20.717  0.00  0.00    +0.000 HD
ENDBRANCH   1  12
BRANCH   8  14
ATOM     14  C   UNL     1       3.591   6.385  19.696  0.00  0.00    +0.000 C 
BRANCH  14  15
ATOM     15  O   UNL     1       2.197   6.704  19.638  0.00  0.00    +0.000 OA
BRANCH  15  16
ATOM     16  C   UNL     1       1.868   7.996  19.299  0.00  0.00    +0.000 A 
ATOM     17  C   UNL     1       1.985   8.509  18.000  0.00  0.00    +0.000 A 
ATOM     18  C   UNL     1       1.557   9.803  17.711  0.00  0.00    +0.000 A 
ATOM     19  C   UNL     1       0.995  10.593  18.709  0.00  0.00    +0.000 A 
ATOM     20  C   UNL     1       0.873  10.101  20.018  0.00  0.00    +0.000 A 
ATOM     21  C   UNL     1       0.311  10.865  21.044  0.00  0.00    +0.000 A 
ATOM     22  N   UNL     1       0.181  10.456  22.325  0.00  0.00    +0.000 NA
ATOM     23  C   UNL     1       0.642   9.223  22.610  0.00  0.00    +0.000 A 
ATOM     24  C   UNL     1       1.209   8.376  21.670  0.00  0.00    +0.000 A 
ATOM     25  C   UNL     1       1.321   8.800  20.332  0.00  0.00    +0.000 A 
ENDBRANCH  15  16
ENDBRANCH  14  15
ENDBRANCH   8  14
TORSDOF 4
ENDMDL
MODEL 3
REMARK VINA RESULT:      -7.4      1.240      2.201
REMARK  Name = 
REMARK  5 active torsions:
REMARK  status: ('A' for Active; 'I' for Inactive)
REMARK    1  A    between atoms: C_1  and  C_2
REMARK    2  A    between atoms: N_4  and  C_5
REMARK    3  A    between atoms: C_12  and  C_13
REMARK    4  A    between atoms: C_13  and  O_14
REMARK    5  A    between atoms: O_14  and  C_15
REMARK                            x       y       z     vdW  Elec       q    Type
REMARK                         _______ _______ _______ _____ _____    ______ ____
ROOT
ATOM      1  C   UNL     1       3.693   5.364  17.722  0.00  0.00    +0.000 A 
ATOM      2  C   UNL     1       3.684   4.175  16.953  0.00  0.00    +0.000 A 
ATOM      3 CL   UNL     1       4.915   3.796  15.791  0.00  0.00    +0.000 Cl
ATOM      4  C   UNL     1       2.753   3.168  17.212  0.00  0.00    +0.000 A 
ATOM      5  C   UNL     1       1.845   3.313  18.254  0.00  0.00    +0.000 A 
ATOM      6  C   UNL     1       1.881   4.453  19.061  0.00  0.00    +0.000 A 
ATOM      7 CL   UNL     1       0.772   4.484  20.390  0.00  0.00    +0.000 Cl
ATOM      8  C   UNL     1       2.794   5.505  18.812  0.00  0.00    +0.000 A 
ENDROOT
BRANCH   1  12
ATOM      9  C   UNL     1       6.746   7.533  17.451  0.00  0.00    +0.000 C 
ATOM     10  C   UNL     1       5.939   6.332  17.864  0.00  0.00    +0.000 C 
ATOM     11  O   UNL     1       6.452   5.379  18.441  0.00  0.00    +0.000 OA
ATOM     12  N   UNL     1       4.618   6.408  17.444  0.00  0.00    +0.000 N 
ATOM     13  H   UNL     1       4.524   6.855  16.538  0.00  0.00    +0.000 HD
ENDBRANCH   1  12
BRANCH   8  14
ATOM     14  C   UNL     1       2.834   6.687  19.771  0.00  0.00    +0.000 C 
BRANCH  14  15
ATOM     15  O   UNL     1       2.099   7.813  19.280  0.00  0.00    +0.000 OA
BRANCH  15  16
ATOM     16  C   UNL     1       1.371   8.530  20.201  0.00  0.00    +0.000 A 
ATOM     17  C   UNL     1       1.515   8.382  21.587  0.00  0.00    +0.000 A 
ATOM     18  C   UNL     1       0.802   9.198  22.463  0.00  0.00    +0.000 A 
ATOM     19  C   UNL     1      -0.050  10.179  21.966  0.00  0.00    +0.000 A 
ATOM     20  C   UNL     1      -0.215  10.341  20.581  0.00  0.00    +0.000 A 
ATOM     21  C   UNL     1      -1.059  11.318  20.048  0.00  0.00    +0.000 A 
ATOM     22  N   UNL     1      -1.273  11.512  18.727  0.00  0.00    +0.000 NA
ATOM     23  C   UNL     1      -0.619  10.687  17.887  0.00  0.00    +0.000 A 
ATOM     24  C   UNL     1       0.250   9.691  18.305  0.00  0.00    +0.000 A 
ATOM     25  C   UNL     1       0.484   9.508  19.681  0.00  0.00    +0.000 A 
ENDBRANCH  15  16
ENDBRANCH  14  15
ENDBRANCH   8  14
TORSDOF 4
ENDMDL
MODEL 4
REMARK VINA RESULT:      -7.3      1.040      2.066
REMARK  Name = 
REMARK  5 active torsions:
REMARK  status: ('A' for Active; 'I' for Inactive)
REMARK    1  A    between atoms: C_1  and  C_2
REMARK    2  A    between atoms: N_4  and  C_5
REMARK    3  A    between atoms: C_12  and  C_13
REMARK    4  A    between atoms: C_13  and  O_14
REMARK    5  A    between atoms: O_14  and  C_15
REMARK                            x       y       z     vdW  Elec       q    Type
REMARK                         _______ _______ _______ _____ _____    ______ ____
ROOT
ATOM      1  C   UNL     1       3.916   4.915  17.788  0.00  0.00    +0.000 A 
ATOM      2  C   UNL     1       3.918   3.738  17.001  0.00  0.00    +0.000 A 
ATOM      3 CL   UNL     1       5.213   3.331  15.920  0.00  0.00    +0.000 Cl
ATOM      4  C   UNL     1       2.936   2.762  17.178  0.00  0.00    +0.000 A 
ATOM      5  C   UNL     1       1.964   2.925  18.157  0.00  0.00    +0.000 A 
ATOM      6  C   UNL     1       1.985   4.052  18.983  0.00  0.00    +0.000 A 
ATOM      7 CL   UNL     1       0.787   4.104  20.234  0.00  0.00    +0.000 Cl
ATOM      8  C   UNL     1       2.949   5.073  18.816  0.00  0.00    +0.000 A 
ENDROOT
BRANCH   1  12
ATOM      9  C   UNL     1       7.057   6.971  17.758  0.00  0.00    +0.000 C 
ATOM     10  C   UNL     1       6.182   5.794  18.093  0.00  0.00    +0.000 C 
ATOM     11  O   UNL     1       6.623   4.810  18.679  0.00  0.00    +0.000 OA
ATOM     12  N   UNL     1       4.894   5.929  17.593  0.00  0.00    +0.000 N 
ATOM     13  H   UNL     1       4.875   6.397  16.692  0.00  0.00    +0.000 HD
ENDBRANCH   1  12
BRANCH   8  14
ATOM     14  C   UNL     1       2.964   6.239  19.795  0.00  0.00    +0.000 C 
BRANCH  14  15
ATOM     15  O   UNL     1       2.510   7.458  19.198  0.00  0.00    +0.000 OA
BRANCH  15  16
ATOM     16  C   UNL     1       1.632   8.221  19.934  0.00  0.00    +0.000 A 
ATOM     17  C   UNL     1       1.021   7.777  21.113  0.00  0.00    +0.000 A 
ATOM     18  C   UNL     1       0.204   8.631  21.851  0.00  0.00    +0.000 A 
ATOM     19  C   UNL     1       0.001   9.941  21.428  0.00  0.00    +0.000 A 
ATOM     20  C   UNL     1       0.599  10.406  20.247  0.00  0.00    +0.000 A 
ATOM     21  C   UNL     1       0.420  11.716  19.794  0.00  0.00    +0.000 A 
ATOM     22  N   UNL     1       0.953  12.217  18.658  0.00  0.00    +0.000 NA
ATOM     23  C   UNL     1       1.700  11.371  17.924  0.00  0.00    +0.000 A 
ATOM     24  C   UNL     1       1.953  10.056  18.281  0.00  0.00    +0.000 A 
ATOM     25  C   UNL     1       1.412   9.546  19.477  0.00  0.00    +0.000 A 
ENDBRANCH  15  16
ENDBRANCH  14  15
ENDBRANCH   8  14
TORSDOF 4
ENDMDL
MODEL 5
REMARK VINA RESULT:      -7.2      1.641      1.745
REMARK  Name = 
REMARK  5 active torsions:
REMARK  status: ('A' for Active; 'I' for Inactive)
REMARK    1  A    between atoms: C_1  and  C_2
REMARK    2  A    between atoms: N_4  and  C_5
REMARK    3  A    between atoms: C_12  and  C_13
REMARK    4  A    between atoms: C_13  and  O_14
REMARK    5  A    between atoms: O_14  and  C_15
REMARK                            x       y       z     vdW  Elec       q    Type
REMARK                         _______ _______ _______ _____ _____    ______ ____
ROOT
ATOM      1  C   UNL     1       4.204   3.925  19.072  0.00  0.00    +0.000 A 
ATOM      2  C   UNL     1       4.094   2.547  19.380  0.00  0.00    +0.000 A 
ATOM      3 CL   UNL     1       5.150   1.745  20.500  0.00  0.00    +0.000 Cl
ATOM      4  C   UNL     1       3.018   1.796  18.906  0.00  0.00    +0.000 A 
ATOM      5  C   UNL     1       2.024   2.407  18.152  0.00  0.00    +0.000 A 
ATOM      6  C   UNL     1       2.085   3.779  17.892  0.00  0.00    +0.000 A 
ATOM      7 CL   UNL     1       0.744   4.454  17.030  0.00  0.00    +0.000 Cl
ATOM      8  C   UNL     1       3.174   4.566  18.335  0.00  0.00    +0.000 A 
ENDROOT
BRANCH   1  12
ATOM      9  C   UNL     1       7.488   5.717  19.399  0.00  0.00    +0.000 C 
ATOM     10  C   UNL     1       6.443   4.861  18.735  0.00  0.00    +0.000 C 
ATOM     11  O   UNL     1       6.584   4.444  17.590  0.00  0.00    +0.000 OA
ATOM     12  N   UNL     1       5.314   4.690  19.525  0.00  0.00    +0.000 N 
ATOM     13  H   UNL     1       5.091   5.519  20.067  0.00  0.00    +0.000 HD
ENDBRANCH   1  12
BRANCH   8  14
ATOM     14  C   UNL     1       3.147   6.067  18.084  0.00  0.00    +0.000 C 
BRANCH  14  15
ATOM     15  O   UNL     1       2.732   6.806  19.237  0.00  0.00    +0.000 OA
BRANCH  15  16
ATOM     16  C   UNL     1       2.212   8.061  19.018  0.00  0.00    +0.000 A 
ATOM     17  C   UNL     1       2.416   8.789  17.838  0.00  0.00    +0.000 A 
ATOM     18  C   UNL     1       1.792  10.020  17.651  0.00  0.00    +0.000 A 
ATOM     19  C   UNL     1       0.947  10.532  18.631  0.00  0.00    +0.000 A 
ATOM     20  C   UNL     1       0.732   9.823  19.823  0.00  0.00    +0.000 A 
ATOM     21  C   UNL     1      -0.112  10.304  20.826  0.00  0.00    +0.000 A 
ATOM     22  N   UNL     1      -0.346   9.678  22.001  0.00  0.00    +0.000 NA
ATOM     23  C   UNL     1       0.299   8.512  22.197  0.00  0.00    +0.000 A 
ATOM     24  C   UNL     1       1.151   7.937  21.267  0.00  0.00    +0.000 A 
ATOM     25  C   UNL     1       1.374   8.583  20.037  0.00  0.00    +0.000 A 
ENDBRANCH  15  16
ENDBRANCH  14  15
ENDBRANCH   8  14
TORSDOF 4
ENDMDL
MODEL 6
REMARK VINA RESULT:      -7.2      5.715      9.090
REMARK  Name = 
REMARK  5 active torsions:
REMARK  status: ('A' for Active; 'I' for Inactive)
REMARK    1  A    between atoms: C_1  and  C_2
REMARK    2  A    between atoms: N_4  and  C_5
REMARK    3  A    between atoms: C_12  and  C_13
REMARK    4  A    between atoms: C_13  and  O_14
REMARK    5  A    between atoms: O_14  and  C_15
REMARK                            x       y       z     vdW  Elec       q    Type
REMARK                         _______ _______ _______ _____ _____    ______ ____
ROOT
ATOM      1  C   UNL     1      -4.403  12.203  19.198  0.00  0.00    +0.000 A 
ATOM      2  C   UNL     1      -5.756  11.818  19.363  0.00  0.00    +0.000 A 
ATOM      3 CL   UNL     1      -6.643  10.951  18.149  0.00  0.00    +0.000 Cl
ATOM      4  C   UNL     1      -6.399  11.986  20.590  0.00  0.00    +0.000 A 
ATOM      5  C   UNL     1      -5.701  12.504  21.674  0.00  0.00    +0.000 A 
ATOM      6  C   UNL     1      -4.349  12.831  21.545  0.00  0.00    +0.000 A 
ATOM      7 CL   UNL     1      -3.553  13.373  22.984  0.00  0.00    +0.000 Cl
ATOM      8  C   UNL     1      -3.671  12.698  20.310  0.00  0.00    +0.000 A 
ENDROOT
BRANCH   1  12
ATOM      9  C   UNL     1      -2.656  10.905  16.139  0.00  0.00    +0.000 C 
ATOM     10  C   UNL     1      -3.301  10.828  17.496  0.00  0.00    +0.000 C 
ATOM     11  O   UNL     1      -3.459   9.758  18.074  0.00  0.00    +0.000 OA
ATOM     12  N   UNL     1      -3.750  12.064  17.943  0.00  0.00    +0.000 N 
ATOM     13  H   UNL     1      -4.109  12.641  17.189  0.00  0.00    +0.000 HD
ENDBRANCH   1  12
BRANCH   8  14
ATOM     14  C   UNL     1      -2.181  13.000  20.251  0.00  0.00    +0.000 C 
BRANCH  14  15
ATOM     15  O   UNL     1      -1.425  11.915  19.703  0.00  0.00    +0.000 OA
BRANCH  15  16
ATOM     16  C   UNL     1      -0.778  11.093  20.597  0.00  0.00    +0.000 A 
ATOM     17  C   UNL     1      -1.027  11.100  21.975  0.00  0.00    +0.000 A 
ATOM     18  C   UNL     1      -0.393  10.184  22.812  0.00  0.00    +0.000 A 
ATOM     19  C   UNL     1       0.483   9.242  22.281  0.00  0.00    +0.000 A 
ATOM     20  C   UNL     1       0.751   9.220  20.904  0.00  0.00    +0.000 A 
ATOM     21  C   UNL     1       1.622   8.287  20.336  0.00  0.00    +0.000 A 
ATOM     22  N   UNL     1       1.934   8.225  19.022  0.00  0.00    +0.000 NA
ATOM     23  C   UNL     1       1.357   9.145  18.226  0.00  0.00    +0.000 A 
ATOM     24  C   UNL     1       0.471  10.110  18.679  0.00  0.00    +0.000 A 
ATOM     25  C   UNL     1       0.133  10.155  20.045  0.00  0.00    +0.000 A 
ENDBRANCH  15  16
ENDBRANCH  14  15
ENDBRANCH   8  14
TORSDOF 4
ENDMDL
MODEL 7
REMARK VINA RESULT:      -7.1      5.099      8.651
REMARK  Name = 
REMARK  5 active torsions:
REMARK  status: ('A' for Active; 'I' for Inactive)
REMARK    1  A    between atoms: C_1  and  C_2
REMARK    2  A    between atoms: N_4  and  C_5
REMARK    3  A    between atoms: C_12  and  C_13
REMARK    4  A    between atoms: C_13  and  O_14
REMARK    5  A    between atoms: O_14  and  C_15
REMARK                            x       y       z     vdW  Elec       q    Type
REMARK                         _______ _______ _______ _____ _____    ______ ____
ROOT
ATOM      1  C   UNL     1      -3.501  12.102  18.750  0.00  0.00    +0.000 A 
ATOM      2  C   UNL     1      -4.867  12.062  19.121  0.00  0.00    +0.000 A 
ATOM      3 CL   UNL     1      -6.102  11.393  18.102  0.00  0.00    +0.000 Cl
ATOM      4  C   UNL     1      -5.264  12.426  20.409  0.00  0.00    +0.000 A 
ATOM      5  C   UNL     1      -4.312  12.798  21.350  0.00  0.00    +0.000 A 
ATOM      6  C   UNL     1      -2.955  12.783  21.017  0.00  0.00    +0.000 A 
ATOM      7 CL   UNL     1      -1.851  13.168  22.294  0.00  0.00    +0.000 Cl
ATOM      8  C   UNL     1      -2.518  12.445  19.715  0.00  0.00    +0.000 A 
ENDROOT
BRANCH   1  12
ATOM      9  C   UNL     1      -2.563  10.310  15.586  0.00  0.00    +0.000 C 
ATOM     10  C   UNL     1      -2.997  10.441  17.021  0.00  0.00    +0.000 C 
ATOM     11  O   UNL     1      -3.299   9.460  17.695  0.00  0.00    +0.000 OA
ATOM     12  N   UNL     1      -3.092  11.764  17.430  0.00  0.00    +0.000 N 
ATOM     13  H   UNL     1      -3.424  12.376  16.691  0.00  0.00    +0.000 HD
ENDBRANCH   1  12
BRANCH   8  14
ATOM     14  C   UNL     1      -1.023  12.375  19.435  0.00  0.00    +0.000 C 
BRANCH  14  15
ATOM     15  O   UNL     1      -0.616  11.087  18.963  0.00  0.00    +0.000 OA
BRANCH  15  16
ATOM     16  C   UNL     1      -0.027  10.246  19.879  0.00  0.00    +0.000 A 
ATOM     17  C   UNL     1      -0.349  10.240  21.242  0.00  0.00    +0.000 A 
ATOM     18  C   UNL     1       0.228   9.306  22.100  0.00  0.00    +0.000 A 
ATOM     19  C   UNL     1       1.120   8.359  21.604  0.00  0.00    +0.000 A 
ATOM     20  C   UNL     1       1.460   8.350  20.243  0.00  0.00    +0.000 A 
ATOM     21  C   UNL     1       2.349   7.413  19.710  0.00  0.00    +0.000 A 
ATOM     22  N   UNL     1       2.730   7.363  18.414  0.00  0.00    +0.000 NA
ATOM     23  C   UNL     1       2.207   8.300  17.600  0.00  0.00    +0.000 A 
ATOM     24  C   UNL     1       1.309   9.271  18.018  0.00  0.00    +0.000 A 
ATOM     25  C   UNL     1       0.901   9.304  19.365  0.00  0.00    +0.000 A 
ENDBRANCH  15  16
ENDBRANCH  14  15
ENDBRANCH   8  14
TORSDOF 4
ENDMDL
MODEL 8
REMARK VINA RESULT:      -7.1      2.391      3.996
REMARK  Name = 
REMARK  5 active torsions:
REMARK  status: ('A' for Active; 'I' for Inactive)
REMARK    1  A    between atoms: C_1  and  C_2
REMARK    2  A    between atoms: N_4  and  C_5
REMARK    3  A    between atoms: C_12  and  C_13
REMARK    4  A    between atoms: C_13  and  O_14
REMARK    5  A    between atoms: O_14  and  C_15
REMARK                            x       y       z     vdW  Elec       q    Type
REMARK                         _______ _______ _______ _____ _____    ______ ____
ROOT
ATOM      1  C   UNL     1       3.184   5.310  19.305  0.00  0.00    +0.000 A 
ATOM      2  C   UNL     1       4.041   4.811  18.294  0.00  0.00    +0.000 A 
ATOM      3 CL   UNL     1       4.507   3.143  18.194  0.00  0.00    +0.000 Cl
ATOM      4  C   UNL     1       4.431   5.622  17.228  0.00  0.00    +0.000 A 
ATOM      5  C   UNL     1       3.950   6.922  17.133  0.00  0.00    +0.000 A 
ATOM      6  C   UNL     1       3.055   7.409  18.089  0.00  0.00    +0.000 A 
ATOM      7 CL   UNL     1       2.442   9.006  17.818  0.00  0.00    +0.000 Cl
ATOM      8  C   UNL     1       2.657   6.624  19.196  0.00  0.00    +0.000 A 
ENDROOT
BRANCH   1  12
ATOM      9  C   UNL     1       1.503   2.874  21.616  0.00  0.00    +0.000 C 
ATOM     10  C   UNL     1       1.712   3.649  20.343  0.00  0.00    +0.000 C 
ATOM     11  O   UNL     1       1.013   3.461  19.352  0.00  0.00    +0.000 OA
ATOM     12  N   UNL     1       2.807   4.500  20.411  0.00  0.00    +0.000 N 
ATOM     13  H   UNL     1       3.570   4.107  20.954  0.00  0.00    +0.000 HD
ENDBRANCH   1  12
BRANCH   8  14
ATOM     14  C   UNL     1       1.623   7.184  20.163  0.00  0.00    +0.000 C 
BRANCH  14  15
ATOM     15  O   UNL     1       1.461   8.600  20.029  0.00  0.00    +0.000 OA
BRANCH  15  16
ATOM     16  C   UNL     1       0.685   9.229  20.975  0.00  0.00    +0.000 A 
ATOM     17  C   UNL     1       0.712   8.907  22.338  0.00  0.00    +0.000 A 
ATOM     18  C   UNL     1      -0.042   9.640  23.253  0.00  0.00    +0.000 A 
ATOM     19  C   UNL     1      -0.819  10.710  22.819  0.00  0.00    +0.000 A 
ATOM     20  C   UNL     1      -0.865  11.047  21.457  0.00  0.00    +0.000 A 
ATOM     21  C   UNL     1      -1.631  12.117  20.987  0.00  0.00    +0.000 A 
ATOM     22  N   UNL     1      -1.731  12.480  19.689  0.00  0.00    +0.000 NA
ATOM     23  C   UNL     1      -1.039  11.737  18.805  0.00  0.00    +0.000 A 
ATOM     24  C   UNL     1      -0.240  10.661  19.159  0.00  0.00    +0.000 A 
ATOM     25  C   UNL     1      -0.124  10.301  20.516  0.00  0.00    +0.000 A 
ENDBRANCH  15  16
ENDBRANCH  14  15
ENDBRANCH   8  14
TORSDOF 4
ENDMDL
MODEL 9
REMARK VINA RESULT:      -7.0      2.351      3.354
REMARK  Name = 
REMARK  5 active torsions:
REMARK  status: ('A' for Active; 'I' for Inactive)
REMARK    1  A    between atoms: C_1  and  C_2
REMARK    2  A    between atoms: N_4  and  C_5
REMARK    3  A    between atoms: C_12  and  C_13
REMARK    4  A    between atoms: C_13  and  O_14
REMARK    5  A    between atoms: O_14  and  C_15
REMARK                            x       y       z     vdW  Elec       q    Type
REMARK                         _______ _______ _______ _____ _____    ______ ____
ROOT
ATOM      1  C   UNL     1       3.482   4.444  19.715  0.00  0.00    +0.000 A 
ATOM      2  C   UNL     1       4.577   3.683  19.238  0.00  0.00    +0.000 A 
ATOM      3 CL   UNL     1       4.900   2.063  19.768  0.00  0.00    +0.000 Cl
ATOM      4  C   UNL     1       5.368   4.155  18.189  0.00  0.00    +0.000 A 
ATOM      5  C   UNL     1       5.062   5.366  17.580  0.00  0.00    +0.000 A 
ATOM      6  C   UNL     1       3.949   6.099  17.999  0.00  0.00    +0.000 A 
ATOM      7 CL   UNL     1       3.604   7.542  17.105  0.00  0.00    +0.000 Cl
ATOM      8  C   UNL     1       3.141   5.665  19.075  0.00  0.00    +0.000 A 
ENDROOT
BRANCH   1  12
ATOM      9  C   UNL     1       1.023   2.652  21.915  0.00  0.00    +0.000 C 
ATOM     10  C   UNL     1       1.730   2.998  20.632  0.00  0.00    +0.000 C 
ATOM     11  O   UNL     1       1.503   2.395  19.588  0.00  0.00    +0.000 OA
ATOM     12  N   UNL     1       2.692   3.985  20.805  0.00  0.00    +0.000 N 
ATOM     13  H   UNL     1       3.167   3.912  21.699  0.00  0.00    +0.000 HD
ENDBRANCH   1  12
BRANCH   8  14
ATOM     14  C   UNL     1       1.899   6.469  19.436  0.00  0.00    +0.000 C 
BRANCH  14  15
ATOM     15  O   UNL     1       2.215   7.674  20.141  0.00  0.00    +0.000 OA
BRANCH  15  16
ATOM     16  C   UNL     1       1.413   8.765  19.899  0.00  0.00    +0.000 A 
ATOM     17  C   UNL     1       1.152   9.265  18.617  0.00  0.00    +0.000 A 
ATOM     18  C   UNL     1       0.264  10.324  18.439  0.00  0.00    +0.000 A 
ATOM     19  C   UNL     1      -0.383  10.885  19.536  0.00  0.00    +0.000 A 
ATOM     20  C   UNL     1      -0.133  10.403  20.830  0.00  0.00    +0.000 A 
ATOM     21  C   UNL     1      -0.767  10.940  21.953  0.00  0.00    +0.000 A 
ATOM     22  N   UNL     1      -0.556  10.533  23.224  0.00  0.00    +0.000 NA
ATOM     23  C   UNL     1       0.340   9.542  23.394  0.00  0.00    +0.000 A 
ATOM     24  C   UNL     1       1.020   8.930  22.353  0.00  0.00    +0.000 A 
ATOM     25  C   UNL     1       0.780   9.345  21.029  0.00  0.00    +0.000 A 
ENDBRANCH  15  16
ENDBRANCH  14  15
ENDBRANCH   8  14
TORSDOF 4
ENDMDL
