MODEL 1
REMARK VINA RESULT:      -6.6      0.000      0.000
REMARK  Name = 
REMARK  5 active torsions:
REMARK  status: ('A' for Active; 'I' for Inactive)
REMARK    1  A    between atoms: C_2  and  C_3
REMARK    2  A    between atoms: C_3  and  N_4
REMARK    3  A    between atoms: C_7  and  N_8
REMARK    4  A    between atoms: N_11  and  C_12
REMARK    5  A    between atoms: C_20  and  O_21
REMARK                            x       y       z     vdW  Elec       q    Type
REMARK                         _______ _______ _______ _____ _____    ______ ____
ROOT
ATOM      1  N   UNL     1       4.916   5.891  18.032  0.00  0.00    +0.000 NA
ATOM      2  C   UNL     1       5.796   4.689  17.845  0.00  0.00    +0.000 C 
ATOM      3  C   UNL     1       5.825   4.064  16.414  0.00  0.00    +0.000 C 
ATOM      4  N   UNL     1       6.129   5.105  15.422  0.00  0.00    +0.000 N 
ATOM      5  C   UNL     1       5.263   6.298  15.529  0.00  0.00    +0.000 C 
ATOM      6  C   UNL     1       5.344   6.847  16.975  0.00  0.00    +0.000 C 
ENDROOT
BRANCH   1  10
ATOM      7  N   UNL     1       2.493   4.576  20.729  0.00  0.00    +0.000 NA
ATOM      8  C   UNL     1       3.394   3.783  19.875  0.00  0.00    +0.000 C 
ATOM      9  C   UNL     1       3.247   4.048  18.371  0.00  0.00    +0.000 C 
ATOM     10  C   UNL     1       3.461   5.540  17.992  0.00  0.00    +0.000 C 
ATOM     11  C   UNL     1       2.470   6.342  18.907  0.00  0.00    +0.000 C 
ATOM     12  C   UNL     1       2.648   6.004  20.404  0.00  0.00    +0.000 C 
BRANCH  11  13
ATOM     13  O   UNL     1       2.478   7.750  18.664  0.00  0.00    +0.000 OA
ATOM     14  H   UNL     1       1.664   7.975  18.181  0.00  0.00    +0.000 HD
ENDBRANCH  11  13
BRANCH   7  15
ATOM     15  C   UNL     1       1.082   4.161  20.662  0.00  0.00    +0.000 C 
BRANCH  15  17
ATOM     16  C   UNL     1       0.440   2.308  19.091  0.00  0.00    +0.000 C 
ATOM     17  C   UNL     1       0.918   2.719  20.274  0.00  0.00    +0.000 C 
ENDBRANCH  15  17
ENDBRANCH   7  15
ENDBRANCH   1  10
BRANCH   4  18
ATOM     18  C   UNL     1       6.578   4.786  14.145  0.00  0.00    +0.000 A 
ATOM     19  C   UNL     1       7.601   5.475  13.478  0.00  0.00    +0.000 A 
ATOM     20  C   UNL     1       7.989   5.109  12.180  0.00  0.00    +0.000 A 
ATOM     21  C   UNL     1       7.356   4.062  11.519  0.00  0.00    +0.000 A 
ATOM     22  C   UNL     1       6.331   3.372  12.155  0.00  0.00    +0.000 A 
ATOM     23  C   UNL     1       5.953   3.739  13.448  0.00  0.00    +0.000 A 
ENDBRANCH   4  18
TORSDOF 5
ENDMDL
MODEL 2
REMARK VINA RESULT:      -6.4      0.159      1.033
REMARK  Name = 
REMARK  5 active torsions:
REMARK  status: ('A' for Active; 'I' for Inactive)
REMARK    1  A    between atoms: C_2  and  C_3
REMARK    2  A    between atoms: C_3  and  N_4
REMARK    3  A    between atoms: C_7  and  N_8
REMARK    4  A    between atoms: N_11  and  C_12
REMARK    5  A    between atoms: C_20  and  O_21
REMARK                            x       y       z     vdW  Elec       q    Type
REMARK                         _______ _______ _______ _____ _____    ______ ____
ROOT
ATOM      1  N   UNL     1       4.871   5.857  18.108  0.00  0.00    +0.000 NA
ATOM      2  C   UNL     1       5.748   4.656  17.906  0.00  0.00    +0.000 C 
ATOM      3  C   UNL     1       5.754   4.032  16.473  0.00  0.00    +0.000 C 
ATOM      4  N   UNL     1       6.039   5.075  15.477  0.00  0.00    +0.000 N 
ATOM      5  C   UNL     1       5.174   6.267  15.600  0.00  0.00    +0.000 C 
ATOM      6  C   UNL     1       5.280   6.814  17.046  0.00  0.00    +0.000 C 
ENDROOT
BRANCH   1  10
ATOM      7  N   UNL     1       2.537   4.370  20.795  0.00  0.00    +0.000 NA
ATOM      8  C   UNL     1       3.411   3.634  19.865  0.00  0.00    +0.000 C 
ATOM      9  C   UNL     1       3.216   3.991  18.386  0.00  0.00    +0.000 C 
ATOM     10  C   UNL     1       3.415   5.504  18.093  0.00  0.00    +0.000 C 
ATOM     11  C   UNL     1       2.453   6.245  19.087  0.00  0.00    +0.000 C 
ATOM     12  C   UNL     1       2.680   5.816  20.554  0.00  0.00    +0.000 C 
BRANCH  11  13
ATOM     13  O   UNL     1       2.452   7.665  18.932  0.00  0.00    +0.000 OA
ATOM     14  H   UNL     1       2.800   7.870  18.047  0.00  0.00    +0.000 HD
ENDBRANCH  11  13
BRANCH   7  15
ATOM     15  C   UNL     1       1.125   3.955  20.747  0.00  0.00    +0.000 C 
BRANCH  15  17
ATOM     16  C   UNL     1       0.413   2.269  19.025  0.00  0.00    +0.000 C 
ATOM     17  C   UNL     1       0.947   2.560  20.221  0.00  0.00    +0.000 C 
ENDBRANCH  15  17
ENDBRANCH   7  15
ENDBRANCH   1  10
BRANCH   4  18
ATOM     18  C   UNL     1       6.467   4.757  14.192  0.00  0.00    +0.000 A 
ATOM     19  C   UNL     1       5.919   3.725  13.417  0.00  0.00    +0.000 A 
ATOM     20  C   UNL     1       6.416   3.448  12.134  0.00  0.00    +0.000 A 
ATOM     21  C   UNL     1       7.473   4.181  11.608  0.00  0.00    +0.000 A 
ATOM     22  C   UNL     1       8.041   5.201  12.363  0.00  0.00    +0.000 A 
ATOM     23  C   UNL     1       7.538   5.475  13.637  0.00  0.00    +0.000 A 
ENDBRANCH   4  18
TORSDOF 5
ENDMDL
MODEL 3
REMARK VINA RESULT:      -6.2      6.245      8.695
REMARK  Name = 
REMARK  5 active torsions:
REMARK  status: ('A' for Active; 'I' for Inactive)
REMARK    1  A    between atoms: C_2  and  C_3
REMARK    2  A    between atoms: C_3  and  N_4
REMARK    3  A    between atoms: C_7  and  N_8
REMARK    4  A    between atoms: N_11  and  C_12
REMARK    5  A    between atoms: C_20  and  O_21
REMARK                            x       y       z     vdW  Elec       q    Type
REMARK                         _______ _______ _______ _____ _____    ______ ____
ROOT
ATOM      1  N   UNL     1      -0.206  10.539  19.710  0.00  0.00    +0.000 NA
ATOM      2  C   UNL     1       0.079  10.086  18.307  0.00  0.00    +0.000 C 
ATOM      3  C   UNL     1       1.462   9.401  18.065  0.00  0.00    +0.000 C 
ATOM      4  N   UNL     1       1.651   8.306  19.028  0.00  0.00    +0.000 N 
ATOM      5  C   UNL     1       1.427   8.705  20.432  0.00  0.00    +0.000 C 
ATOM      6  C   UNL     1       0.017   9.335  20.554  0.00  0.00    +0.000 C 
ENDROOT
BRANCH   1  10
ATOM      7  N   UNL     1      -0.941  14.325  19.694  0.00  0.00    +0.000 NA
ATOM      8  C   UNL     1      -0.445  13.508  18.573  0.00  0.00    +0.000 C 
ATOM      9  C   UNL     1       0.809  12.683  18.891  0.00  0.00    +0.000 C 
ATOM     10  C   UNL     1       0.620  11.726  20.100  0.00  0.00    +0.000 C 
ATOM     11  C   UNL     1       0.113  12.641  21.271  0.00  0.00    +0.000 C 
ATOM     12  C   UNL     1      -1.131  13.467  20.876  0.00  0.00    +0.000 C 
BRANCH  11  13
ATOM     13  O   UNL     1      -0.069  11.943  22.505  0.00  0.00    +0.000 OA
ATOM     14  H   UNL     1      -1.015  11.738  22.595  0.00  0.00    +0.000 HD
ENDBRANCH  11  13
BRANCH   7  15
ATOM     15  C   UNL     1      -0.097  15.490  20.007  0.00  0.00    +0.000 C 
BRANCH  15  17
ATOM     16  C   UNL     1      -0.770  17.241  18.334  0.00  0.00    +0.000 C 
ATOM     17  C   UNL     1       0.135  16.377  18.816  0.00  0.00    +0.000 C 
ENDBRANCH  15  17
ENDBRANCH   7  15
ENDBRANCH   1  10
BRANCH   4  18
ATOM     18  C   UNL     1       2.594   7.306  18.816  0.00  0.00    +0.000 A 
ATOM     19  C   UNL     1       2.790   6.218  19.680  0.00  0.00    +0.000 A 
ATOM     20  C   UNL     1       3.776   5.257  19.413  0.00  0.00    +0.000 A 
ATOM     21  C   UNL     1       4.594   5.369  18.293  0.00  0.00    +0.000 A 
ATOM     22  C   UNL     1       4.427   6.446  17.431  0.00  0.00    +0.000 A 
ATOM     23  C   UNL     1       3.440   7.396  17.699  0.00  0.00    +0.000 A 
ENDBRANCH   4  18
TORSDOF 5
ENDMDL
MODEL 4
REMARK VINA RESULT:      -6.1      6.264      8.713
REMARK  Name = 
REMARK  5 active torsions:
REMARK  status: ('A' for Active; 'I' for Inactive)
REMARK    1  A    between atoms: C_2  and  C_3
REMARK    2  A    between atoms: C_3  and  N_4
REMARK    3  A    between atoms: C_7  and  N_8
REMARK    4  A    between atoms: N_11  and  C_12
REMARK    5  A    between atoms: C_20  and  O_21
REMARK                            x       y       z     vdW  Elec       q    Type
REMARK                         _______ _______ _______ _____ _____    ______ ____
ROOT
ATOM      1  N   UNL     1      -0.166  10.594  19.731  0.00  0.00    +0.000 NA
ATOM      2  C   UNL     1       0.086  10.117  18.330  0.00  0.00    +0.000 C 
ATOM      3  C   UNL     1       1.455   9.410  18.071  0.00  0.00    +0.000 C 
ATOM      4  N   UNL     1       1.648   8.327  19.046  0.00  0.00    +0.000 N 
ATOM      5  C   UNL     1       1.457   8.749  20.449  0.00  0.00    +0.000 C 
ATOM      6  C   UNL     1       0.057   9.399  20.589  0.00  0.00    +0.000 C 
ENDROOT
BRANCH   1  10
ATOM      7  N   UNL     1      -0.816  14.392  19.572  0.00  0.00    +0.000 NA
ATOM      8  C   UNL     1      -0.326  13.524  18.487  0.00  0.00    +0.000 C 
ATOM      9  C   UNL     1       0.906  12.683  18.848  0.00  0.00    +0.000 C 
ATOM     10  C   UNL     1       0.682  11.775  20.088  0.00  0.00    +0.000 C 
ATOM     11  C   UNL     1       0.184  12.742  21.220  0.00  0.00    +0.000 C 
ATOM     12  C   UNL     1      -1.037  13.581  20.781  0.00  0.00    +0.000 C 
BRANCH  11  13
ATOM     13  O   UNL     1      -0.027  12.093  22.475  0.00  0.00    +0.000 OA
ATOM     14  H   UNL     1      -0.933  12.294  22.767  0.00  0.00    +0.000 HD
ENDBRANCH  11  13
BRANCH   7  15
ATOM     15  C   UNL     1       0.051  15.549  19.853  0.00  0.00    +0.000 C 
BRANCH  15  17
ATOM     16  C   UNL     1      -0.794  17.287  18.247  0.00  0.00    +0.000 C 
ATOM     17  C   UNL     1       0.182  16.475  18.678  0.00  0.00    +0.000 C 
ENDBRANCH  15  17
ENDBRANCH   7  15
ENDBRANCH   1  10
BRANCH   4  18
ATOM     18  C   UNL     1       2.575   7.312  18.831  0.00  0.00    +0.000 A 
ATOM     19  C   UNL     1       3.492   7.300  17.771  0.00  0.00    +0.000 A 
ATOM     20  C   UNL     1       4.386   6.230  17.606  0.00  0.00    +0.000 A 
ATOM     21  C   UNL     1       4.371   5.149  18.481  0.00  0.00    +0.000 A 
ATOM     22  C   UNL     1       3.461   5.133  19.531  0.00  0.00    +0.000 A 
ATOM     23  C   UNL     1       2.578   6.203  19.693  0.00  0.00    +0.000 A 
ENDBRANCH   4  18
TORSDOF 5
ENDMDL
MODEL 5
REMARK VINA RESULT:      -6.1      3.165      5.007
REMARK  Name = 
REMARK  5 active torsions:
REMARK  status: ('A' for Active; 'I' for Inactive)
REMARK    1  A    between atoms: C_2  and  C_3
REMARK    2  A    between atoms: C_3  and  N_4
REMARK    3  A    between atoms: C_7  and  N_8
REMARK    4  A    between atoms: N_11  and  C_12
REMARK    5  A    between atoms: C_20  and  O_21
REMARK                            x       y       z     vdW  Elec       q    Type
REMARK                         _______ _______ _______ _____ _____    ______ ____
ROOT
ATOM      1  N   UNL     1       5.883   4.797  17.770  0.00  0.00    +0.000 NA
ATOM      2  C   UNL     1       5.580   5.969  16.883  0.00  0.00    +0.000 C 
ATOM      3  C   UNL     1       5.924   7.382  17.456  0.00  0.00    +0.000 C 
ATOM      4  N   UNL     1       7.321   7.407  17.913  0.00  0.00    +0.000 N 
ATOM      5  C   UNL     1       7.666   6.298  18.827  0.00  0.00    +0.000 C 
ATOM      6  C   UNL     1       7.316   4.955  18.138  0.00  0.00    +0.000 C 
ENDROOT
BRANCH   1  10
ATOM      7  N   UNL     1       2.189   3.731  18.070  0.00  0.00    +0.000 NA
ATOM      8  C   UNL     1       2.707   5.065  17.723  0.00  0.00    +0.000 C 
ATOM      9  C   UNL     1       3.720   5.637  18.724  0.00  0.00    +0.000 C 
ATOM     10  C   UNL     1       4.951   4.715  18.940  0.00  0.00    +0.000 C 
ATOM     11  C   UNL     1       4.354   3.317  19.327  0.00  0.00    +0.000 C 
ATOM     12  C   UNL     1       3.319   2.813  18.296  0.00  0.00    +0.000 C 
BRANCH  11  13
ATOM     13  O   UNL     1       5.346   2.332  19.623  0.00  0.00    +0.000 OA
ATOM     14  H   UNL     1       6.172   2.599  19.186  0.00  0.00    +0.000 HD
ENDBRANCH  11  13
BRANCH   7  15
ATOM     15  C   UNL     1       1.258   3.726  19.211  0.00  0.00    +0.000 C 
BRANCH  15  17
ATOM     16  C   UNL     1       1.514   2.617  21.452  0.00  0.00    +0.000 C 
ATOM     17  C   UNL     1       1.451   2.542  20.115  0.00  0.00    +0.000 C 
ENDBRANCH  15  17
ENDBRANCH   7  15
ENDBRANCH   1  10
BRANCH   4  18
ATOM     18  C   UNL     1       7.998   8.604  18.117  0.00  0.00    +0.000 A 
ATOM     19  C   UNL     1       8.970   8.795  19.110  0.00  0.00    +0.000 A 
ATOM     20  C   UNL     1       9.599  10.040  19.270  0.00  0.00    +0.000 A 
ATOM     21  C   UNL     1       9.261  11.117  18.459  0.00  0.00    +0.000 A 
ATOM     22  C   UNL     1       8.291  10.955  17.477  0.00  0.00    +0.000 A 
ATOM     23  C   UNL     1       7.673   9.712  17.318  0.00  0.00    +0.000 A 
ENDBRANCH   4  18
TORSDOF 5
ENDMDL
MODEL 6
REMARK VINA RESULT:      -6.1      3.008      4.837
REMARK  Name = 
REMARK  5 active torsions:
REMARK  status: ('A' for Active; 'I' for Inactive)
REMARK    1  A    between atoms: C_2  and  C_3
REMARK    2  A    between atoms: C_3  and  N_4
REMARK    3  A    between atoms: C_7  and  N_8
REMARK    4  A    between atoms: N_11  and  C_12
REMARK    5  A    between atoms: C_20  and  O_21
REMARK                            x       y       z     vdW  Elec       q    Type
REMARK                         _______ _______ _______ _____ _____    ______ ____
ROOT
ATOM      1  N   UNL     1       5.430   4.396  17.399  0.00  0.00    +0.000 NA
ATOM      2  C   UNL     1       5.242   5.565  16.476  0.00  0.00    +0.000 C 
ATOM      3  C   UNL     1       5.562   6.976  17.067  0.00  0.00    +0.000 C 
ATOM      4  N   UNL     1       6.907   6.975  17.659  0.00  0.00    +0.000 N 
ATOM      5  C   UNL     1       7.135   5.869  18.613  0.00  0.00    +0.000 C 
ATOM      6  C   UNL     1       6.822   4.527  17.905  0.00  0.00    +0.000 C 
ENDROOT
BRANCH   1  10
ATOM      7  N   UNL     1       2.107   2.462  17.697  0.00  0.00    +0.000 NA
ATOM      8  C   UNL     1       2.327   3.761  17.039  0.00  0.00    +0.000 C 
ATOM      9  C   UNL     1       3.011   4.816  17.919  0.00  0.00    +0.000 C 
ATOM     10  C   UNL     1       4.386   4.349  18.472  0.00  0.00    +0.000 C 
ATOM     11  C   UNL     1       4.099   2.978  19.180  0.00  0.00    +0.000 C 
ATOM     12  C   UNL     1       3.382   1.974  18.250  0.00  0.00    +0.000 C 
BRANCH  11  13
ATOM     13  O   UNL     1       5.249   2.407  19.809  0.00  0.00    +0.000 OA
ATOM     14  H   UNL     1       5.353   2.828  20.680  0.00  0.00    +0.000 HD
ENDBRANCH  11  13
BRANCH   7  15
ATOM     15  C   UNL     1       1.049   2.480  18.722  0.00  0.00    +0.000 C 
BRANCH  15  17
ATOM     16  C   UNL     1       1.283   3.094  21.147  0.00  0.00    +0.000 C 
ATOM     17  C   UNL     1       1.585   2.296  20.113  0.00  0.00    +0.000 C 
ENDBRANCH  15  17
ENDBRANCH   7  15
ENDBRANCH   1  10
BRANCH   4  18
ATOM     18  C   UNL     1       7.590   8.159  17.919  0.00  0.00    +0.000 A 
ATOM     19  C   UNL     1       7.382   9.353  17.214  0.00  0.00    +0.000 A 
ATOM     20  C   UNL     1       8.123  10.506  17.518  0.00  0.00    +0.000 A 
ATOM     21  C   UNL     1       9.092  10.485  18.515  0.00  0.00    +0.000 A 
ATOM     22  C   UNL     1       9.326   9.309  19.217  0.00  0.00    +0.000 A 
ATOM     23  C   UNL     1       8.581   8.167  18.913  0.00  0.00    +0.000 A 
ENDBRANCH   4  18
TORSDOF 5
ENDMDL
MODEL 7
REMARK VINA RESULT:      -6.0      6.583      9.003
REMARK  Name = 
REMARK  5 active torsions:
REMARK  status: ('A' for Active; 'I' for Inactive)
REMARK    1  A    between atoms: C_2  and  C_3
REMARK    2  A    between atoms: C_3  and  N_4
REMARK    3  A    between atoms: C_7  and  N_8
REMARK    4  A    between atoms: N_11  and  C_12
REMARK    5  A    between atoms: C_20  and  O_21
REMARK                            x       y       z     vdW  Elec       q    Type
REMARK                         _______ _______ _______ _____ _____    ______ ____
ROOT
ATOM      1  N   UNL     1       0.385  11.613  20.691  0.00  0.00    +0.000 NA
ATOM      2  C   UNL     1       1.177  10.790  21.665  0.00  0.00    +0.000 C 
ATOM      3  C   UNL     1       1.129   9.241  21.467  0.00  0.00    +0.000 C 
ATOM      4  N   UNL     1       1.476   8.905  20.079  0.00  0.00    +0.000 N 
ATOM      5  C   UNL     1       0.694   9.654  19.073  0.00  0.00    +0.000 C 
ATOM      6  C   UNL     1       0.848  11.170  19.349  0.00  0.00    +0.000 C 
ENDROOT
BRANCH   1  10
ATOM      7  N   UNL     1      -2.185  13.868  22.477  0.00  0.00    +0.000 NA
ATOM      8  C   UNL     1      -1.327  12.837  23.086  0.00  0.00    +0.000 C 
ATOM      9  C   UNL     1      -1.422  11.455  22.426  0.00  0.00    +0.000 C 
ATOM     10  C   UNL     1      -1.092  11.480  20.908  0.00  0.00    +0.000 C 
ATOM     11  C   UNL     1      -2.040  12.572  20.300  0.00  0.00    +0.000 C 
ATOM     12  C   UNL     1      -1.919  13.929  21.029  0.00  0.00    +0.000 C 
BRANCH  11  13
ATOM     13  O   UNL     1      -1.923  12.707  18.882  0.00  0.00    +0.000 OA
ATOM     14  H   UNL     1      -2.761  13.069  18.546  0.00  0.00    +0.000 HD
ENDBRANCH  11  13
BRANCH   7  15
ATOM     15  C   UNL     1      -3.621  13.692  22.751  0.00  0.00    +0.000 C 
BRANCH  15  17
ATOM     16  C   UNL     1      -4.620  12.429  24.680  0.00  0.00    +0.000 C 
ATOM     17  C   UNL     1      -3.911  13.464  24.208  0.00  0.00    +0.000 C 
ENDBRANCH  15  17
ENDBRANCH   7  15
ENDBRANCH   1  10
BRANCH   4  18
ATOM     18  C   UNL     1       1.871   7.621  19.717  0.00  0.00    +0.000 A 
ATOM     19  C   UNL     1       1.719   6.494  20.539  0.00  0.00    +0.000 A 
ATOM     20  C   UNL     1       2.160   5.231  20.115  0.00  0.00    +0.000 A 
ATOM     21  C   UNL     1       2.772   5.070  18.877  0.00  0.00    +0.000 A 
ATOM     22  C   UNL     1       2.945   6.175  18.051  0.00  0.00    +0.000 A 
ATOM     23  C   UNL     1       2.499   7.428  18.477  0.00  0.00    +0.000 A 
ENDBRANCH   4  18
TORSDOF 5
ENDMDL
MODEL 8
REMARK VINA RESULT:      -6.0      6.930      9.273
REMARK  Name = 
REMARK  5 active torsions:
REMARK  status: ('A' for Active; 'I' for Inactive)
REMARK    1  A    between atoms: C_2  and  C_3
REMARK    2  A    between atoms: C_3  and  N_4
REMARK    3  A    between atoms: C_7  and  N_8
REMARK    4  A    between atoms: N_11  and  C_12
REMARK    5  A    between atoms: C_20  and  O_21
REMARK                            x       y       z     vdW  Elec       q    Type
REMARK                         _______ _______ _______ _____ _____    ______ ____
ROOT
ATOM      1  N   UNL     1      -0.161  12.062  20.292  0.00  0.00    +0.000 NA
ATOM      2  C   UNL     1       0.900  11.487  21.185  0.00  0.00    +0.000 C 
ATOM      3  C   UNL     1       1.069   9.934  21.153  0.00  0.00    +0.000 C 
ATOM      4  N   UNL     1       1.238   9.481  19.764  0.00  0.00    +0.000 N 
ATOM      5  C   UNL     1       0.194   9.981  18.846  0.00  0.00    +0.000 C 
ATOM      6  C   UNL     1       0.146  11.527  18.939  0.00  0.00    +0.000 C 
ENDROOT
BRANCH   1  10
ATOM      7  N   UNL     1      -2.708  14.109  22.341  0.00  0.00    +0.000 NA
ATOM      8  C   UNL     1      -1.613  13.272  22.860  0.00  0.00    +0.000 C 
ATOM      9  C   UNL     1      -1.606  11.831  22.331  0.00  0.00    +0.000 C 
ATOM     10  C   UNL     1      -1.542  11.751  20.781  0.00  0.00    +0.000 C 
ATOM     11  C   UNL     1      -2.734  12.637  20.275  0.00  0.00    +0.000 C 
ATOM     12  C   UNL     1      -2.701  14.063  20.869  0.00  0.00    +0.000 C 
BRANCH  11  13
ATOM     13  O   UNL     1      -2.878  12.645  18.853  0.00  0.00    +0.000 OA
ATOM     14  H   UNL     1      -3.025  13.565  18.573  0.00  0.00    +0.000 HD
ENDBRANCH  11  13
BRANCH   7  15
ATOM     15  C   UNL     1      -4.034  13.767  22.882  0.00  0.00    +0.000 C 
BRANCH  15  17
ATOM     16  C   UNL     1      -4.652  12.348  24.861  0.00  0.00    +0.000 C 
ATOM     17  C   UNL     1      -3.989  13.387  24.334  0.00  0.00    +0.000 C 
ENDBRANCH  15  17
ENDBRANCH   7  15
ENDBRANCH   1  10
BRANCH   4  18
ATOM     18  C   UNL     1       1.769   8.230  19.466  0.00  0.00    +0.000 A 
ATOM     19  C   UNL     1       2.369   7.905  18.241  0.00  0.00    +0.000 A 
ATOM     20  C   UNL     1       2.866   6.615  18.003  0.00  0.00    +0.000 A 
ATOM     21  C   UNL     1       2.762   5.623  18.973  0.00  0.00    +0.000 A 
ATOM     22  C   UNL     1       2.160   5.918  20.190  0.00  0.00    +0.000 A 
ATOM     23  C   UNL     1       1.671   7.206  20.422  0.00  0.00    +0.000 A 
ENDBRANCH   4  18
TORSDOF 5
ENDMDL
MODEL 9
REMARK VINA RESULT:      -5.9      5.474      7.440
REMARK  Name = 
REMARK  5 active torsions:
REMARK  status: ('A' for Active; 'I' for Inactive)
REMARK    1  A    between atoms: C_2  and  C_3
REMARK    2  A    between atoms: C_3  and  N_4
REMARK    3  A    between atoms: C_7  and  N_8
REMARK    4  A    between atoms: N_11  and  C_12
REMARK    5  A    between atoms: C_20  and  O_21
REMARK                            x       y       z     vdW  Elec       q    Type
REMARK                         _______ _______ _______ _____ _____    ______ ____
ROOT
ATOM      1  N   UNL     1       1.134  10.263  19.650  0.00  0.00    +0.000 NA
ATOM      2  C   UNL     1       1.821   9.280  20.554  0.00  0.00    +0.000 C 
ATOM      3  C   UNL     1       1.790   7.784  20.106  0.00  0.00    +0.000 C 
ATOM      4  N   UNL     1       2.278   7.668  18.724  0.00  0.00    +0.000 N 
ATOM      5  C   UNL     1       1.605   8.582  17.778  0.00  0.00    +0.000 C 
ATOM      6  C   UNL     1       1.733  10.032  18.308  0.00  0.00    +0.000 C 
ENDROOT
BRANCH   1  10
ATOM      7  N   UNL     1      -1.670  12.726  20.622  0.00  0.00    +0.000 NA
ATOM      8  C   UNL     1      -0.895  11.856  21.523  0.00  0.00    +0.000 C 
ATOM      9  C   UNL     1      -0.889  10.372  21.130  0.00  0.00    +0.000 C 
ATOM     10  C   UNL     1      -0.357  10.124  19.692  0.00  0.00    +0.000 C 
ATOM     11  C   UNL     1      -1.223  11.052  18.768  0.00  0.00    +0.000 C 
ATOM     12  C   UNL     1      -1.211  12.524  19.237  0.00  0.00    +0.000 C 
BRANCH  11  13
ATOM     13  O   UNL     1      -0.916  10.923  17.379  0.00  0.00    +0.000 OA
ATOM     14  H   UNL     1      -0.206  11.554  17.169  0.00  0.00    +0.000 HD
ENDBRANCH  11  13
BRANCH   7  15
ATOM     15  C   UNL     1      -3.129  12.558  20.733  0.00  0.00    +0.000 C 
BRANCH  15  17
ATOM     16  C   UNL     1      -4.877  13.010  22.481  0.00  0.00    +0.000 C 
ATOM     17  C   UNL     1      -3.621  12.678  22.148  0.00  0.00    +0.000 C 
ENDBRANCH  15  17
ENDBRANCH   7  15
ENDBRANCH   1  10
BRANCH   4  18
ATOM     18  C   UNL     1       2.705   6.451  18.202  0.00  0.00    +0.000 A 
ATOM     19  C   UNL     1       1.941   5.276  18.229  0.00  0.00    +0.000 A 
ATOM     20  C   UNL     1       2.446   4.078  17.700  0.00  0.00    +0.000 A 
ATOM     21  C   UNL     1       3.723   4.025  17.152  0.00  0.00    +0.000 A 
ATOM     22  C   UNL     1       4.503   5.174  17.127  0.00  0.00    +0.000 A 
ATOM     23  C   UNL     1       3.993   6.365  17.650  0.00  0.00    +0.000 A 
ENDBRANCH   4  18
TORSDOF 5
ENDMDL
