MODEL 1
REMARK VINA RESULT:      -8.0      0.000      0.000
REMARK  Name = 
REMARK  6 active torsions:
REMARK  status: ('A' for Active; 'I' for Inactive)
REMARK    1  A    between atoms: N_1  and  S_2
REMARK    2  A    between atoms: S_2  and  C_5
REMARK    3  A    between atoms: C_7  and  C_8
REMARK    4  A    between atoms: N_10  and  N_11
REMARK    5  A    between atoms: C_12  and  C_13
REMARK    6  A    between atoms: C_16  and  N_17
REMARK                            x       y       z     vdW  Elec       q    Type
REMARK                         _______ _______ _______ _____ _____    ______ ____
ROOT
ATOM      1  C   UNL     1       2.513   5.928  19.800  0.00  0.00    +0.000 C 
ATOM      2  O   UNL     1       2.022   5.189  20.640  0.00  0.00    +0.000 OA
ATOM      3  N   UNL     1       2.354   7.314  19.769  0.00  0.00    +0.000 N 
ATOM      4  H   UNL     1       2.862   7.899  19.120  0.00  0.00    +0.000 HD
ENDROOT
BRANCH   1   7
ATOM      5  C   UNL     1       5.563   5.106  17.699  0.00  0.00    +0.000 A 
ATOM      6  C   UNL     1       4.722   5.664  18.680  0.00  0.00    +0.000 A 
ATOM      7  C   UNL     1       3.359   5.323  18.728  0.00  0.00    +0.000 A 
ATOM      8  C   UNL     1       2.852   4.401  17.809  0.00  0.00    +0.000 A 
ATOM      9  C   UNL     1       3.690   3.844  16.836  0.00  0.00    +0.000 A 
ATOM     10  C   UNL     1       5.046   4.198  16.773  0.00  0.00    +0.000 A 
ATOM     11 CL   UNL     1       5.974   3.440  15.528  0.00  0.00    +0.000 Cl
BRANCH   5  12
ATOM     12  S   UNL     1       7.250   5.613  17.623  0.00  0.00    +0.000 S 
ATOM     13  O   UNL     1       7.598   6.283  18.854  0.00  0.00    +0.000 OA
ATOM     14  O   UNL     1       7.501   6.211  16.336  0.00  0.00    +0.000 OA
BRANCH  12  15
ATOM     15  N   UNL     1       8.090   4.160  17.668  0.00  0.00    +0.000 NA
ATOM     16  H   UNL     1       8.945   4.272  18.219  0.00  0.00    +0.000 HD
ATOM     17  H   UNL     1       8.255   3.814  16.720  0.00  0.00    +0.000 HD
ENDBRANCH  12  15
ENDBRANCH   5  12
ENDBRANCH   1   7
BRANCH   3  18
ATOM     18  N   UNL     1       1.579   7.891  20.736  0.00  0.00    +0.000 NA
ATOM     19  C   UNL     1       1.159   9.099  20.537  0.00  0.00    +0.000 C 
BRANCH  19  20
ATOM     20  C   UNL     1       0.341   9.736  21.533  0.00  0.00    +0.000 A 
ATOM     21  C   UNL     1      -0.308   9.223  22.645  0.00  0.00    +0.000 A 
ATOM     22  C   UNL     1      -0.985  10.298  23.268  0.00  0.00    +0.000 A 
ATOM     23  C   UNL     1      -0.705  11.398  22.495  0.00  0.00    +0.000 A 
ATOM     24  O   UNL     1       0.100  11.082  21.438  0.00  0.00    +0.000 OA
BRANCH  23  25
ATOM     25  N   UNL     1      -1.114  12.759  22.609  0.00  0.00    +0.000 N 
ATOM     26  O   UNL     1      -0.452  13.470  23.382  0.00  0.00    +0.000 OA
ATOM     27  O   UNL     1      -2.087  13.134  21.939  0.00  0.00    +0.000 OA
ENDBRANCH  23  25
ENDBRANCH  19  20
ENDBRANCH   3  18
TORSDOF 6
ENDMDL
MODEL 2
REMARK VINA RESULT:      -7.7      0.796      1.044
REMARK  Name = 
REMARK  6 active torsions:
REMARK  status: ('A' for Active; 'I' for Inactive)
REMARK    1  A    between atoms: N_1  and  S_2
REMARK    2  A    between atoms: S_2  and  C_5
REMARK    3  A    between atoms: C_7  and  C_8
REMARK    4  A    between atoms: N_10  and  N_11
REMARK    5  A    between atoms: C_12  and  C_13
REMARK    6  A    between atoms: C_16  and  N_17
REMARK                            x       y       z     vdW  Elec       q    Type
REMARK                         _______ _______ _______ _____ _____    ______ ____
ROOT
ATOM      1  C   UNL     1       2.640   5.930  19.796  0.00  0.00    +0.000 C 
ATOM      2  O   UNL     1       2.192   5.215  20.680  0.00  0.00    +0.000 OA
ATOM      3  N   UNL     1       2.465   7.312  19.725  0.00  0.00    +0.000 N 
ATOM      4  H   UNL     1       2.939   7.879  19.036  0.00  0.00    +0.000 HD
ENDROOT
BRANCH   1   7
ATOM      5  C   UNL     1       5.629   4.972  17.667  0.00  0.00    +0.000 A 
ATOM      6  C   UNL     1       4.825   5.560  18.661  0.00  0.00    +0.000 A 
ATOM      7  C   UNL     1       3.446   5.296  18.710  0.00  0.00    +0.000 A 
ATOM      8  C   UNL     1       2.883   4.421  17.777  0.00  0.00    +0.000 A 
ATOM      9  C   UNL     1       3.684   3.834  16.791  0.00  0.00    +0.000 A 
ATOM     10  C   UNL     1       5.058   4.111  16.727  0.00  0.00    +0.000 A 
ATOM     11 CL   UNL     1       5.936   3.323  15.465  0.00  0.00    +0.000 Cl
BRANCH   5  12
ATOM     12  S   UNL     1       7.343   5.381  17.592  0.00  0.00    +0.000 S 
ATOM     13  O   UNL     1       7.555   6.332  16.526  0.00  0.00    +0.000 OA
ATOM     14  O   UNL     1       8.118   4.170  17.694  0.00  0.00    +0.000 OA
BRANCH  12  15
ATOM     15  N   UNL     1       7.593   6.252  19.006  0.00  0.00    +0.000 NA
ATOM     16  H   UNL     1       8.063   7.134  18.790  0.00  0.00    +0.000 HD
ATOM     17  H   UNL     1       8.087   5.679  19.694  0.00  0.00    +0.000 HD
ENDBRANCH  12  15
ENDBRANCH   5  12
ENDBRANCH   1   7
BRANCH   3  18
ATOM     18  N   UNL     1       1.726   7.915  20.704  0.00  0.00    +0.000 NA
ATOM     19  C   UNL     1       1.126   9.026  20.416  0.00  0.00    +0.000 C 
BRANCH  19  20
ATOM     20  C   UNL     1       0.340   9.685  21.422  0.00  0.00    +0.000 A 
ATOM     21  C   UNL     1      -0.344   9.185  22.520  0.00  0.00    +0.000 A 
ATOM     22  C   UNL     1      -0.962  10.283  23.164  0.00  0.00    +0.000 A 
ATOM     23  C   UNL     1      -0.616  11.382  22.417  0.00  0.00    +0.000 A 
ATOM     24  O   UNL     1       0.176  11.045  21.356  0.00  0.00    +0.000 OA
BRANCH  23  25
ATOM     25  N   UNL     1      -0.948  12.762  22.560  0.00  0.00    +0.000 N 
ATOM     26  O   UNL     1      -0.949  13.438  21.520  0.00  0.00    +0.000 OA
ATOM     27  O   UNL     1      -1.208  13.185  23.696  0.00  0.00    +0.000 OA
ENDBRANCH  23  25
ENDBRANCH  19  20
ENDBRANCH   3  18
TORSDOF 6
ENDMDL
MODEL 3
REMARK VINA RESULT:      -7.7      0.957      1.101
REMARK  Name = 
REMARK  6 active torsions:
REMARK  status: ('A' for Active; 'I' for Inactive)
REMARK    1  A    between atoms: N_1  and  S_2
REMARK    2  A    between atoms: S_2  and  C_5
REMARK    3  A    between atoms: C_7  and  C_8
REMARK    4  A    between atoms: N_10  and  N_11
REMARK    5  A    between atoms: C_12  and  C_13
REMARK    6  A    between atoms: C_16  and  N_17
REMARK                            x       y       z     vdW  Elec       q    Type
REMARK                         _______ _______ _______ _____ _____    ______ ____
ROOT
ATOM      1  C   UNL     1       2.603   5.888  19.831  0.00  0.00    +0.000 C 
ATOM      2  O   UNL     1       2.189   5.161  20.723  0.00  0.00    +0.000 OA
ATOM      3  N   UNL     1       2.362   7.260  19.747  0.00  0.00    +0.000 N 
ATOM      4  H   UNL     1       2.809   7.842  19.052  0.00  0.00    +0.000 HD
ENDROOT
BRANCH   1   7
ATOM      5  C   UNL     1       5.649   4.994  17.755  0.00  0.00    +0.000 A 
ATOM      6  C   UNL     1       4.817   5.555  18.742  0.00  0.00    +0.000 A 
ATOM      7  C   UNL     1       3.439   5.283  18.752  0.00  0.00    +0.000 A 
ATOM      8  C   UNL     1       2.904   4.424  17.787  0.00  0.00    +0.000 A 
ATOM      9  C   UNL     1       3.732   3.863  16.808  0.00  0.00    +0.000 A 
ATOM     10  C   UNL     1       5.106   4.150  16.784  0.00  0.00    +0.000 A 
ATOM     11 CL   UNL     1       6.019   3.395  15.527  0.00  0.00    +0.000 Cl
BRANCH   5  12
ATOM     12  S   UNL     1       7.361   5.416  17.730  0.00  0.00    +0.000 S 
ATOM     13  O   UNL     1       8.137   4.226  17.475  0.00  0.00    +0.000 OA
ATOM     14  O   UNL     1       7.645   6.282  18.847  0.00  0.00    +0.000 OA
BRANCH  12  15
ATOM     15  N   UNL     1       7.509   6.339  16.335  0.00  0.00    +0.000 NA
ATOM     16  H   UNL     1       7.885   5.763  15.579  0.00  0.00    +0.000 HD
ATOM     17  H   UNL     1       8.058   7.181  16.522  0.00  0.00    +0.000 HD
ENDBRANCH  12  15
ENDBRANCH   5  12
ENDBRANCH   1   7
BRANCH   3  18
ATOM     18  N   UNL     1       1.594   7.836  20.720  0.00  0.00    +0.000 NA
ATOM     19  C   UNL     1       1.081   9.000  20.479  0.00  0.00    +0.000 C 
BRANCH  19  20
ATOM     20  C   UNL     1       0.268   9.634  21.480  0.00  0.00    +0.000 A 
ATOM     21  C   UNL     1       0.093   9.354  22.826  0.00  0.00    +0.000 A 
ATOM     22  C   UNL     1      -0.839  10.292  23.332  0.00  0.00    +0.000 A 
ATOM     23  C   UNL     1      -1.172  11.083  22.261  0.00  0.00    +0.000 A 
ATOM     24  O   UNL     1      -0.511  10.706  21.126  0.00  0.00    +0.000 OA
BRANCH  23  25
ATOM     25  N   UNL     1      -2.070  12.185  22.145  0.00  0.00    +0.000 N 
ATOM     26  O   UNL     1      -2.605  12.572  23.196  0.00  0.00    +0.000 OA
ATOM     27  O   UNL     1      -2.252  12.673  21.020  0.00  0.00    +0.000 OA
ENDBRANCH  23  25
ENDBRANCH  19  20
ENDBRANCH   3  18
TORSDOF 6
ENDMDL
MODEL 4
REMARK VINA RESULT:      -7.5      6.541      7.991
REMARK  Name = 
REMARK  6 active torsions:
REMARK  status: ('A' for Active; 'I' for Inactive)
REMARK    1  A    between atoms: N_1  and  S_2
REMARK    2  A    between atoms: S_2  and  C_5
REMARK    3  A    between atoms: C_7  and  C_8
REMARK    4  A    between atoms: N_10  and  N_11
REMARK    5  A    between atoms: C_12  and  C_13
REMARK    6  A    between atoms: C_16  and  N_17
REMARK                            x       y       z     vdW  Elec       q    Type
REMARK                         _______ _______ _______ _____ _____    ______ ____
ROOT
ATOM      1  C   UNL     1       7.162   6.418  18.270  0.00  0.00    +0.000 C 
ATOM      2  O   UNL     1       7.830   6.129  19.252  0.00  0.00    +0.000 OA
ATOM      3  N   UNL     1       7.383   7.531  17.456  0.00  0.00    +0.000 N 
ATOM      4  H   UNL     1       6.875   7.676  16.595  0.00  0.00    +0.000 HD
ENDROOT
BRANCH   1   7
ATOM      5  C   UNL     1       4.570   3.657  18.487  0.00  0.00    +0.000 A 
ATOM      6  C   UNL     1       5.642   4.516  18.793  0.00  0.00    +0.000 A 
ATOM      7  C   UNL     1       6.030   5.520  17.890  0.00  0.00    +0.000 A 
ATOM      8  C   UNL     1       5.323   5.677  16.694  0.00  0.00    +0.000 A 
ATOM      9  C   UNL     1       4.255   4.825  16.393  0.00  0.00    +0.000 A 
ATOM     10  C   UNL     1       3.877   3.808  17.284  0.00  0.00    +0.000 A 
ATOM     11 CL   UNL     1       2.543   2.826  16.796  0.00  0.00    +0.000 Cl
BRANCH   5  12
ATOM     12  S   UNL     1       4.157   2.362  19.610  0.00  0.00    +0.000 S 
ATOM     13  O   UNL     1       2.759   2.464  19.954  0.00  0.00    +0.000 OA
ATOM     14  O   UNL     1       5.183   2.274  20.619  0.00  0.00    +0.000 OA
BRANCH  12  15
ATOM     15  N   UNL     1       4.272   0.980  18.663  0.00  0.00    +0.000 NA
ATOM     16  H   UNL     1       5.243   0.661  18.636  0.00  0.00    +0.000 HD
ATOM     17  H   UNL     1       3.867   1.147  17.739  0.00  0.00    +0.000 HD
ENDBRANCH  12  15
ENDBRANCH   5  12
ENDBRANCH   1   7
BRANCH   3  18
ATOM     18  N   UNL     1       8.409   8.371  17.787  0.00  0.00    +0.000 NA
ATOM     19  C   UNL     1       8.110   9.551  18.226  0.00  0.00    +0.000 C 
BRANCH  19  20
ATOM     20  C   UNL     1       9.164  10.460  18.584  0.00  0.00    +0.000 A 
ATOM     21  C   UNL     1       9.895  10.594  19.754  0.00  0.00    +0.000 A 
ATOM     22  C   UNL     1      10.801  11.666  19.561  0.00  0.00    +0.000 A 
ATOM     23  C   UNL     1      10.562  12.116  18.286  0.00  0.00    +0.000 A 
ATOM     24  O   UNL     1       9.575  11.398  17.672  0.00  0.00    +0.000 OA
BRANCH  23  25
ATOM     25  N   UNL     1      11.149  13.177  17.535  0.00  0.00    +0.000 N 
ATOM     26  O   UNL     1      12.271  12.956  17.055  0.00  0.00    +0.000 OA
ATOM     27  O   UNL     1      10.507  14.231  17.417  0.00  0.00    +0.000 OA
ENDBRANCH  23  25
ENDBRANCH  19  20
ENDBRANCH   3  18
TORSDOF 6
ENDMDL
MODEL 5
REMARK VINA RESULT:      -7.4      5.428      8.076
REMARK  Name = 
REMARK  6 active torsions:
REMARK  status: ('A' for Active; 'I' for Inactive)
REMARK    1  A    between atoms: N_1  and  S_2
REMARK    2  A    between atoms: S_2  and  C_5
REMARK    3  A    between atoms: C_7  and  C_8
REMARK    4  A    between atoms: N_10  and  N_11
REMARK    5  A    between atoms: C_12  and  C_13
REMARK    6  A    between atoms: C_16  and  N_17
REMARK                            x       y       z     vdW  Elec       q    Type
REMARK                         _______ _______ _______ _____ _____    ______ ____
ROOT
ATOM      1  C   UNL     1       7.300   6.361  18.360  0.00  0.00    +0.000 C 
ATOM      2  O   UNL     1       8.086   5.971  19.210  0.00  0.00    +0.000 OA
ATOM      3  N   UNL     1       7.385   7.588  17.700  0.00  0.00    +0.000 N 
ATOM      4  H   UNL     1       6.776   7.827  16.930  0.00  0.00    +0.000 HD
ENDROOT
BRANCH   1   7
ATOM      5  C   UNL     1       3.978   4.538  18.537  0.00  0.00    +0.000 A 
ATOM      6  C   UNL     1       5.079   5.353  18.862  0.00  0.00    +0.000 A 
ATOM      7  C   UNL     1       6.165   5.469  17.978  0.00  0.00    +0.000 A 
ATOM      8  C   UNL     1       6.131   4.787  16.758  0.00  0.00    +0.000 A 
ATOM      9  C   UNL     1       5.035   3.980  16.435  0.00  0.00    +0.000 A 
ATOM     10  C   UNL     1       3.957   3.846  17.324  0.00  0.00    +0.000 A 
ATOM     11 CL   UNL     1       2.665   2.823  16.807  0.00  0.00    +0.000 Cl
BRANCH   5  12
ATOM     12  S   UNL     1       2.666   4.360  19.702  0.00  0.00    +0.000 S 
ATOM     13  O   UNL     1       2.980   3.277  20.604  0.00  0.00    +0.000 OA
ATOM     14  O   UNL     1       1.408   4.424  19.001  0.00  0.00    +0.000 OA
BRANCH  12  15
ATOM     15  N   UNL     1       2.787   5.751  20.634  0.00  0.00    +0.000 NA
ATOM     16  H   UNL     1       3.770   6.010  20.741  0.00  0.00    +0.000 HD
ATOM     17  H   UNL     1       2.295   5.629  21.522  0.00  0.00    +0.000 HD
ENDBRANCH  12  15
ENDBRANCH   5  12
ENDBRANCH   1   7
BRANCH   3  18
ATOM     18  N   UNL     1       8.411   8.426  18.037  0.00  0.00    +0.000 NA
ATOM     19  C   UNL     1       8.145   9.684  18.183  0.00  0.00    +0.000 C 
BRANCH  19  20
ATOM     20  C   UNL     1       9.201  10.593  18.538  0.00  0.00    +0.000 A 
ATOM     21  C   UNL     1       9.939  10.723  19.704  0.00  0.00    +0.000 A 
ATOM     22  C   UNL     1      10.842  11.796  19.511  0.00  0.00    +0.000 A 
ATOM     23  C   UNL     1      10.595  12.251  18.239  0.00  0.00    +0.000 A 
ATOM     24  O   UNL     1       9.605  11.534  17.627  0.00  0.00    +0.000 OA
BRANCH  23  25
ATOM     25  N   UNL     1      11.176  13.316  17.488  0.00  0.00    +0.000 N 
ATOM     26  O   UNL     1      12.333  13.135  17.081  0.00  0.00    +0.000 OA
ATOM     27  O   UNL     1      10.495  14.334  17.299  0.00  0.00    +0.000 OA
ENDBRANCH  23  25
ENDBRANCH  19  20
ENDBRANCH   3  18
TORSDOF 6
ENDMDL
MODEL 6
REMARK VINA RESULT:      -7.4      6.559      8.064
REMARK  Name = 
REMARK  6 active torsions:
REMARK  status: ('A' for Active; 'I' for Inactive)
REMARK    1  A    between atoms: N_1  and  S_2
REMARK    2  A    between atoms: S_2  and  C_5
REMARK    3  A    between atoms: C_7  and  C_8
REMARK    4  A    between atoms: N_10  and  N_11
REMARK    5  A    between atoms: C_12  and  C_13
REMARK    6  A    between atoms: C_16  and  N_17
REMARK                            x       y       z     vdW  Elec       q    Type
REMARK                         _______ _______ _______ _____ _____    ______ ____
ROOT
ATOM      1  C   UNL     1       7.213   6.364  18.436  0.00  0.00    +0.000 C 
ATOM      2  O   UNL     1       7.978   5.950  19.295  0.00  0.00    +0.000 OA
ATOM      3  N   UNL     1       7.341   7.590  17.781  0.00  0.00    +0.000 N 
ATOM      4  H   UNL     1       6.749   7.848  17.004  0.00  0.00    +0.000 HD
ENDROOT
BRANCH   1   7
ATOM      5  C   UNL     1       4.586   3.631  18.567  0.00  0.00    +0.000 A 
ATOM      6  C   UNL     1       5.678   4.458  18.893  0.00  0.00    +0.000 A 
ATOM      7  C   UNL     1       6.061   5.503  18.035  0.00  0.00    +0.000 A 
ATOM      8  C   UNL     1       5.330   5.732  16.866  0.00  0.00    +0.000 A 
ATOM      9  C   UNL     1       4.243   4.911  16.544  0.00  0.00    +0.000 A 
ATOM     10  C   UNL     1       3.870   3.854  17.389  0.00  0.00    +0.000 A 
ATOM     11 CL   UNL     1       2.511   2.917  16.881  0.00  0.00    +0.000 Cl
BRANCH   5  12
ATOM     12  S   UNL     1       4.179   2.285  19.630  0.00  0.00    +0.000 S 
ATOM     13  O   UNL     1       5.196   2.162  20.647  0.00  0.00    +0.000 OA
ATOM     14  O   UNL     1       3.771   1.161  18.825  0.00  0.00    +0.000 OA
BRANCH  12  15
ATOM     15  N   UNL     1       2.816   2.835  20.442  0.00  0.00    +0.000 NA
ATOM     16  H   UNL     1       2.127   2.082  20.510  0.00  0.00    +0.000 HD
ATOM     17  H   UNL     1       2.456   3.683  20.000  0.00  0.00    +0.000 HD
ENDBRANCH  12  15
ENDBRANCH   5  12
ENDBRANCH   1   7
BRANCH   3  18
ATOM     18  N   UNL     1       8.384   8.399  18.134  0.00  0.00    +0.000 NA
ATOM     19  C   UNL     1       8.188   9.679  18.132  0.00  0.00    +0.000 C 
BRANCH  19  20
ATOM     20  C   UNL     1       9.264  10.559  18.499  0.00  0.00    +0.000 A 
ATOM     21  C   UNL     1      10.042  10.619  19.644  0.00  0.00    +0.000 A 
ATOM     22  C   UNL     1      10.948  11.695  19.479  0.00  0.00    +0.000 A 
ATOM     23  C   UNL     1      10.662  12.221  18.243  0.00  0.00    +0.000 A 
ATOM     24  O   UNL     1       9.645  11.546  17.628  0.00  0.00    +0.000 OA
BRANCH  23  25
ATOM     25  N   UNL     1      11.226  13.321  17.533  0.00  0.00    +0.000 N 
ATOM     26  O   UNL     1      10.556  14.364  17.511  0.00  0.00    +0.000 OA
ATOM     27  O   UNL     1      12.332  13.162  16.994  0.00  0.00    +0.000 OA
ENDBRANCH  23  25
ENDBRANCH  19  20
ENDBRANCH   3  18
TORSDOF 6
ENDMDL
MODEL 7
REMARK VINA RESULT:      -7.4      2.294      2.893
REMARK  Name = 
REMARK  6 active torsions:
REMARK  status: ('A' for Active; 'I' for Inactive)
REMARK    1  A    between atoms: N_1  and  S_2
REMARK    2  A    between atoms: S_2  and  C_5
REMARK    3  A    between atoms: C_7  and  C_8
REMARK    4  A    between atoms: N_10  and  N_11
REMARK    5  A    between atoms: C_12  and  C_13
REMARK    6  A    between atoms: C_16  and  N_17
REMARK                            x       y       z     vdW  Elec       q    Type
REMARK                         _______ _______ _______ _____ _____    ______ ____
ROOT
ATOM      1  C   UNL     1       1.790   7.753  20.244  0.00  0.00    +0.000 C 
ATOM      2  O   UNL     1       1.686   8.464  19.256  0.00  0.00    +0.000 OA
ATOM      3  N   UNL     1       1.439   8.136  21.540  0.00  0.00    +0.000 N 
ATOM      4  H   UNL     1       1.442   7.484  22.312  0.00  0.00    +0.000 HD
ENDROOT
BRANCH   1   7
ATOM      5  C   UNL     1       3.976   4.890  19.057  0.00  0.00    +0.000 A 
ATOM      6  C   UNL     1       3.432   6.176  19.237  0.00  0.00    +0.000 A 
ATOM      7  C   UNL     1       2.318   6.367  20.071  0.00  0.00    +0.000 A 
ATOM      8  C   UNL     1       1.770   5.271  20.744  0.00  0.00    +0.000 A 
ATOM      9  C   UNL     1       2.313   3.994  20.566  0.00  0.00    +0.000 A 
ATOM     10  C   UNL     1       3.414   3.796  19.718  0.00  0.00    +0.000 A 
ATOM     11 CL   UNL     1       3.992   2.174  19.586  0.00  0.00    +0.000 Cl
BRANCH   5  12
ATOM     12  S   UNL     1       5.330   4.676  17.947  0.00  0.00    +0.000 S 
ATOM     13  O   UNL     1       4.892   3.894  16.815  0.00  0.00    +0.000 OA
ATOM     14  O   UNL     1       6.504   4.324  18.705  0.00  0.00    +0.000 OA
BRANCH  12  15
ATOM     15  N   UNL     1       5.576   6.222  17.338  0.00  0.00    +0.000 NA
ATOM     16  H   UNL     1       6.283   6.704  17.897  0.00  0.00    +0.000 HD
ATOM     17  H   UNL     1       4.688   6.725  17.273  0.00  0.00    +0.000 HD
ENDBRANCH  12  15
ENDBRANCH   5  12
ENDBRANCH   1   7
BRANCH   3  18
ATOM     18  N   UNL     1       0.959   9.402  21.726  0.00  0.00    +0.000 NA
ATOM     19  C   UNL     1      -0.215   9.535  22.253  0.00  0.00    +0.000 C 
BRANCH  19  20
ATOM     20  C   UNL     1      -0.749  10.853  22.464  0.00  0.00    +0.000 A 
ATOM     21  C   UNL     1      -0.327  12.093  22.011  0.00  0.00    +0.000 A 
ATOM     22  C   UNL     1      -1.219  13.058  22.536  0.00  0.00    +0.000 A 
ATOM     23  C   UNL     1      -2.128  12.344  23.276  0.00  0.00    +0.000 A 
ATOM     24  O   UNL     1      -1.866  11.003  23.245  0.00  0.00    +0.000 OA
BRANCH  23  25
ATOM     25  N   UNL     1      -3.251  12.762  24.050  0.00  0.00    +0.000 N 
ATOM     26  O   UNL     1      -3.224  13.927  24.474  0.00  0.00    +0.000 OA
ATOM     27  O   UNL     1      -4.163  11.944  24.243  0.00  0.00    +0.000 OA
ENDBRANCH  23  25
ENDBRANCH  19  20
ENDBRANCH   3  18
TORSDOF 6
ENDMDL
MODEL 8
REMARK VINA RESULT:      -7.3      4.204      9.419
REMARK  Name = 
REMARK  6 active torsions:
REMARK  status: ('A' for Active; 'I' for Inactive)
REMARK    1  A    between atoms: N_1  and  S_2
REMARK    2  A    between atoms: S_2  and  C_5
REMARK    3  A    between atoms: C_7  and  C_8
REMARK    4  A    between atoms: N_10  and  N_11
REMARK    5  A    between atoms: C_12  and  C_13
REMARK    6  A    between atoms: C_16  and  N_17
REMARK                            x       y       z     vdW  Elec       q    Type
REMARK                         _______ _______ _______ _____ _____    ______ ____
ROOT
ATOM      1  C   UNL     1       1.392   9.346  18.416  0.00  0.00    +0.000 C 
ATOM      2  O   UNL     1       1.912   9.676  17.361  0.00  0.00    +0.000 OA
ATOM      3  N   UNL     1       1.764   8.234  19.173  0.00  0.00    +0.000 N 
ATOM      4  H   UNL     1       1.380   8.056  20.091  0.00  0.00    +0.000 HD
ENDROOT
BRANCH   1   7
ATOM      5  C   UNL     1      -0.762  11.246  20.894  0.00  0.00    +0.000 A 
ATOM      6  C   UNL     1       0.252  10.442  20.339  0.00  0.00    +0.000 A 
ATOM      7  C   UNL     1       0.285  10.190  18.958  0.00  0.00    +0.000 A 
ATOM      8  C   UNL     1      -0.683  10.768  18.132  0.00  0.00    +0.000 A 
ATOM      9  C   UNL     1      -1.689  11.570  18.684  0.00  0.00    +0.000 A 
ATOM     10  C   UNL     1      -1.737  11.808  20.067  0.00  0.00    +0.000 A 
ATOM     11 CL   UNL     1      -3.025  12.815  20.622  0.00  0.00    +0.000 Cl
BRANCH   5  12
ATOM     12  S   UNL     1      -0.815  11.481  22.641  0.00  0.00    +0.000 S 
ATOM     13  O   UNL     1      -2.149  11.196  23.115  0.00  0.00    +0.000 OA
ATOM     14  O   UNL     1      -0.140  12.713  22.967  0.00  0.00    +0.000 OA
BRANCH  12  15
ATOM     15  N   UNL     1       0.132  10.225  23.227  0.00  0.00    +0.000 NA
ATOM     16  H   UNL     1       0.365  10.397  24.208  0.00  0.00    +0.000 HD
ATOM     17  H   UNL     1       0.950  10.086  22.629  0.00  0.00    +0.000 HD
ENDBRANCH  12  15
ENDBRANCH   5  12
ENDBRANCH   1   7
BRANCH   3  18
ATOM     18  N   UNL     1       2.771   7.443  18.696  0.00  0.00    +0.000 NA
ATOM     19  C   UNL     1       2.496   6.207  18.424  0.00  0.00    +0.000 C 
BRANCH  19  20
ATOM     20  C   UNL     1       3.531   5.348  17.919  0.00  0.00    +0.000 A 
ATOM     21  C   UNL     1       3.469   4.104  17.310  0.00  0.00    +0.000 A 
ATOM     22  C   UNL     1       4.798   3.709  17.027  0.00  0.00    +0.000 A 
ATOM     23  C   UNL     1       5.586   4.737  17.482  0.00  0.00    +0.000 A 
ATOM     24  O   UNL     1       4.840   5.745  18.025  0.00  0.00    +0.000 OA
BRANCH  23  25
ATOM     25  N   UNL     1       7.001   4.910  17.489  0.00  0.00    +0.000 N 
ATOM     26  O   UNL     1       7.590   4.588  18.532  0.00  0.00    +0.000 OA
ATOM     27  O   UNL     1       7.538   5.364  16.467  0.00  0.00    +0.000 OA
ENDBRANCH  23  25
ENDBRANCH  19  20
ENDBRANCH   3  18
TORSDOF 6
ENDMDL
MODEL 9
REMARK VINA RESULT:      -7.3      4.163      9.759
REMARK  Name = 
REMARK  6 active torsions:
REMARK  status: ('A' for Active; 'I' for Inactive)
REMARK    1  A    between atoms: N_1  and  S_2
REMARK    2  A    between atoms: S_2  and  C_5
REMARK    3  A    between atoms: C_7  and  C_8
REMARK    4  A    between atoms: N_10  and  N_11
REMARK    5  A    between atoms: C_12  and  C_13
REMARK    6  A    between atoms: C_16  and  N_17
REMARK                            x       y       z     vdW  Elec       q    Type
REMARK                         _______ _______ _______ _____ _____    ______ ____
ROOT
ATOM      1  C   UNL     1       1.382   9.025  19.287  0.00  0.00    +0.000 C 
ATOM      2  O   UNL     1       1.599   9.538  18.199  0.00  0.00    +0.000 OA
ATOM      3  N   UNL     1       1.822   7.758  19.671  0.00  0.00    +0.000 N 
ATOM      4  H   UNL     1       1.712   7.414  20.615  0.00  0.00    +0.000 HD
ENDROOT
BRANCH   1   7
ATOM      5  C   UNL     1      -0.844  11.708  20.780  0.00  0.00    +0.000 A 
ATOM      6  C   UNL     1      -0.081  10.954  19.870  0.00  0.00    +0.000 A 
ATOM      7  C   UNL     1       0.602   9.802  20.296  0.00  0.00    +0.000 A 
ATOM      8  C   UNL     1       0.493   9.395  21.628  0.00  0.00    +0.000 A 
ATOM      9  C   UNL     1      -0.269  10.144  22.532  0.00  0.00    +0.000 A 
ATOM     10  C   UNL     1      -0.936  11.306  22.114  0.00  0.00    +0.000 A 
ATOM     11 CL   UNL     1      -1.844  12.140  23.325  0.00  0.00    +0.000 Cl
BRANCH   5  12
ATOM     12  S   UNL     1      -1.627  13.189  20.227  0.00  0.00    +0.000 S 
ATOM     13  O   UNL     1      -0.990  14.322  20.854  0.00  0.00    +0.000 OA
ATOM     14  O   UNL     1      -3.057  13.003  20.267  0.00  0.00    +0.000 OA
BRANCH  12  15
ATOM     15  N   UNL     1      -1.183  13.279  18.611  0.00  0.00    +0.000 NA
ATOM     16  H   UNL     1      -1.683  12.566  18.075  0.00  0.00    +0.000 HD
ATOM     17  H   UNL     1      -0.166  13.226  18.518  0.00  0.00    +0.000 HD
ENDBRANCH  12  15
ENDBRANCH   5  12
ENDBRANCH   1   7
BRANCH   3  18
ATOM     18  N   UNL     1       2.534   7.025  18.763  0.00  0.00    +0.000 NA
ATOM     19  C   UNL     1       3.422   6.198  19.213  0.00  0.00    +0.000 C 
BRANCH  19  20
ATOM     20  C   UNL     1       4.187   5.410  18.285  0.00  0.00    +0.000 A 
ATOM     21  C   UNL     1       3.790   4.530  17.291  0.00  0.00    +0.000 A 
ATOM     22  C   UNL     1       4.965   4.019  16.690  0.00  0.00    +0.000 A 
ATOM     23  C   UNL     1       6.004   4.621  17.357  0.00  0.00    +0.000 A 
ATOM     24  O   UNL     1       5.557   5.471  18.328  0.00  0.00    +0.000 OA
BRANCH  23  25
ATOM     25  N   UNL     1       7.417   4.496  17.211  0.00  0.00    +0.000 N 
ATOM     26  O   UNL     1       8.072   4.402  18.260  0.00  0.00    +0.000 OA
ATOM     27  O   UNL     1       7.886   4.491  16.064  0.00  0.00    +0.000 OA
ENDBRANCH  23  25
ENDBRANCH  19  20
ENDBRANCH   3  18
TORSDOF 6
ENDMDL
