MODEL 1
REMARK VINA RESULT:      -8.7      0.000      0.000
REMARK  Name = 
REMARK  8 active torsions:
REMARK  status: ('A' for Active; 'I' for Inactive)
REMARK    1  A    between atoms: C_2  and  C_3
REMARK    2  A    between atoms: N_5  and  C_6
REMARK    3  A    between atoms: C_6  and  C_7
REMARK    4  A    between atoms: C_10  and  C_11
REMARK    5  A    between atoms: C_14  and  C_15
REMARK    6  A    between atoms: C_15  and  C_16
REMARK    7  A    between atoms: C_15  and  C_17
REMARK    8  A    between atoms: C_22  and  C_23
REMARK                            x       y       z     vdW  Elec       q    Type
REMARK                         _______ _______ _______ _____ _____    ______ ____
ROOT
ATOM      1  C   UNL     1       8.375   8.744  18.386  0.00  0.00    +0.000 A 
ATOM      2  C   UNL     1       7.759   8.461  17.154  0.00  0.00    +0.000 A 
ATOM      3  C   UNL     1       7.371   7.165  16.808  0.00  0.00    +0.000 A 
ATOM      4  C   UNL     1       7.600   6.096  17.679  0.00  0.00    +0.000 A 
ATOM      5  C   UNL     1       8.227   6.355  18.902  0.00  0.00    +0.000 A 
ATOM      6  C   UNL     1       8.603   7.661  19.250  0.00  0.00    +0.000 A 
ENDROOT
BRANCH   1  10
ATOM      7  C   UNL     1       9.264  12.793  19.411  0.00  0.00    +0.000 A 
ATOM      8  C   UNL     1       9.661  11.771  20.271  0.00  0.00    +0.000 A 
ATOM      9  C   UNL     1       9.434  10.441  19.918  0.00  0.00    +0.000 A 
ATOM     10  C   UNL     1       8.800  10.122  18.712  0.00  0.00    +0.000 A 
ATOM     11  C   UNL     1       8.532  11.205  17.875  0.00  0.00    +0.000 A 
ATOM     12  N   UNL     1       8.760  12.507  18.183  0.00  0.00    +0.000 NA
BRANCH   7  13
ATOM     13  C   UNL     1       9.271  14.248  19.879  0.00  0.00    +0.000 C 
ATOM     14  C   UNL     1       9.814  14.537  21.273  0.00  0.00    +0.000 C 
ATOM     15  C   UNL     1       8.341  14.592  21.037  0.00  0.00    +0.000 C 
BRANCH  13  18
ATOM     16  C   UNL     1      10.696  15.496  18.306  0.00  0.00    +0.000 C 
ATOM     17  O   UNL     1      11.740  14.957  18.650  0.00  0.00    +0.000 OA
ATOM     18  N   UNL     1       9.458  15.225  18.837  0.00  0.00    +0.000 N 
ATOM     19  H   UNL     1       8.622  15.632  18.436  0.00  0.00    +0.000 HD
BRANCH  16  21
ATOM     20  C   UNL     1      11.370  17.672  17.413  0.00  0.00    +0.000 C 
ATOM     21  C   UNL     1      10.663  16.546  17.251  0.00  0.00    +0.000 C 
ENDBRANCH  16  21
ENDBRANCH  13  18
ENDBRANCH   7  13
ENDBRANCH   1  10
BRANCH   4  22
ATOM     22  C   UNL     1       7.145   4.702  17.278  0.00  0.00    +0.000 C 
ATOM     23  C   UNL     1       6.954   4.617  15.760  0.00  0.00    +0.000 C 
BRANCH  22  24
ATOM     24  C   UNL     1       5.907   4.188  18.020  0.00  0.00    +0.000 C 
ATOM     25  O   UNL     1       5.743   4.412  19.221  0.00  0.00    +0.000 OA
ATOM     26  N   UNL     1       4.997   3.519  17.225  0.00  0.00    +0.000 N 
ATOM     27  C   UNL     1       3.824   3.031  17.749  0.00  0.00    +0.000 A 
ATOM     28  C   UNL     1       2.947   3.655  18.666  0.00  0.00    +0.000 A 
ATOM     29  C   UNL     1       1.992   2.707  18.938  0.00  0.00    +0.000 A 
ATOM     30  N   UNL     1       2.339   1.612  18.204  0.00  0.00    +0.000 N 
ATOM     31  N   UNL     1       3.381   1.827  17.381  0.00  0.00    +0.000 NA
ATOM     32  H   UNL     1       5.344   2.980  16.443  0.00  0.00    +0.000 HD
ATOM     33  H   UNL     1       1.899   0.699  18.202  0.00  0.00    +0.000 HD
BRANCH  29  34
ATOM     34  C   UNL     1       0.828   2.867  19.889  0.00  0.00    +0.000 C 
ATOM     35  C   UNL     1       1.084   2.781  21.378  0.00  0.00    +0.000 C 
ATOM     36  C   UNL     1       0.776   4.101  20.761  0.00  0.00    +0.000 C 
ENDBRANCH  29  34
ENDBRANCH  22  24
ENDBRANCH   4  22
TORSDOF 7
ENDMDL
MODEL 2
REMARK VINA RESULT:      -8.6      1.195      2.217
REMARK  Name = 
REMARK  8 active torsions:
REMARK  status: ('A' for Active; 'I' for Inactive)
REMARK    1  A    between atoms: C_2  and  C_3
REMARK    2  A    between atoms: N_5  and  C_6
REMARK    3  A    between atoms: C_6  and  C_7
REMARK    4  A    between atoms: C_10  and  C_11
REMARK    5  A    between atoms: C_14  and  C_15
REMARK    6  A    between atoms: C_15  and  C_16
REMARK    7  A    between atoms: C_15  and  C_17
REMARK    8  A    between atoms: C_22  and  C_23
REMARK                            x       y       z     vdW  Elec       q    Type
REMARK                         _______ _______ _______ _____ _____    ______ ____
ROOT
ATOM      1  C   UNL     1       8.432   8.826  18.378  0.00  0.00    +0.000 A 
ATOM      2  C   UNL     1       7.809   8.548  17.147  0.00  0.00    +0.000 A 
ATOM      3  C   UNL     1       7.412   7.256  16.801  0.00  0.00    +0.000 A 
ATOM      4  C   UNL     1       7.639   6.183  17.669  0.00  0.00    +0.000 A 
ATOM      5  C   UNL     1       8.273   6.437  18.890  0.00  0.00    +0.000 A 
ATOM      6  C   UNL     1       8.658   7.740  19.238  0.00  0.00    +0.000 A 
ENDROOT
BRANCH   1  10
ATOM      7  C   UNL     1      10.017  12.703  19.208  0.00  0.00    +0.000 A 
ATOM      8  C   UNL     1       9.195  12.529  18.097  0.00  0.00    +0.000 A 
ATOM      9  C   UNL     1       8.619  11.283  17.851  0.00  0.00    +0.000 A 
ATOM     10  C   UNL     1       8.868  10.200  18.703  0.00  0.00    +0.000 A 
ATOM     11  C   UNL     1       9.618  10.499  19.839  0.00  0.00    +0.000 A 
ATOM     12  N   UNL     1      10.174  11.705  20.116  0.00  0.00    +0.000 NA
BRANCH   7  13
ATOM     13  C   UNL     1      10.854  13.973  19.363  0.00  0.00    +0.000 C 
ATOM     14  C   UNL     1      10.905  14.931  18.180  0.00  0.00    +0.000 C 
ATOM     15  C   UNL     1      12.093  14.078  18.481  0.00  0.00    +0.000 C 
BRANCH  13  18
ATOM     16  C   UNL     1       9.858  15.172  21.269  0.00  0.00    +0.000 C 
ATOM     17  O   UNL     1       8.783  15.380  20.720  0.00  0.00    +0.000 OA
ATOM     18  N   UNL     1      10.916  14.505  20.700  0.00  0.00    +0.000 N 
ATOM     19  H   UNL     1      11.739  14.278  21.245  0.00  0.00    +0.000 HD
BRANCH  16  21
ATOM     20  C   UNL     1       9.130  16.033  23.441  0.00  0.00    +0.000 C 
ATOM     21  C   UNL     1      10.141  15.648  22.651  0.00  0.00    +0.000 C 
ENDBRANCH  16  21
ENDBRANCH  13  18
ENDBRANCH   7  13
ENDBRANCH   1  10
BRANCH   4  22
ATOM     22  C   UNL     1       7.173   4.793  17.269  0.00  0.00    +0.000 C 
ATOM     23  C   UNL     1       6.927   4.725  15.758  0.00  0.00    +0.000 C 
BRANCH  22  24
ATOM     24  C   UNL     1       5.965   4.266  18.050  0.00  0.00    +0.000 C 
ATOM     25  O   UNL     1       5.771   4.592  19.223  0.00  0.00    +0.000 OA
ATOM     26  N   UNL     1       5.114   3.461  17.317  0.00  0.00    +0.000 N 
ATOM     27  C   UNL     1       3.972   2.943  17.879  0.00  0.00    +0.000 A 
ATOM     28  C   UNL     1       3.042   3.588  18.727  0.00  0.00    +0.000 A 
ATOM     29  C   UNL     1       2.152   2.606  19.083  0.00  0.00    +0.000 A 
ATOM     30  N   UNL     1       2.585   1.473  18.461  0.00  0.00    +0.000 N 
ATOM     31  N   UNL     1       3.620   1.681  17.626  0.00  0.00    +0.000 NA
ATOM     32  H   UNL     1       5.509   2.875  16.593  0.00  0.00    +0.000 HD
ATOM     33  H   UNL     1       2.210   0.535  18.544  0.00  0.00    +0.000 HD
BRANCH  29  34
ATOM     34  C   UNL     1       0.968   2.772  20.007  0.00  0.00    +0.000 C 
ATOM     35  C   UNL     1       1.202   2.768  21.503  0.00  0.00    +0.000 C 
ATOM     36  C   UNL     1       0.861   4.045  20.816  0.00  0.00    +0.000 C 
ENDBRANCH  29  34
ENDBRANCH  22  24
ENDBRANCH   4  22
TORSDOF 7
ENDMDL
MODEL 3
REMARK VINA RESULT:      -8.4      1.282      2.197
REMARK  Name = 
REMARK  8 active torsions:
REMARK  status: ('A' for Active; 'I' for Inactive)
REMARK    1  A    between atoms: C_2  and  C_3
REMARK    2  A    between atoms: N_5  and  C_6
REMARK    3  A    between atoms: C_6  and  C_7
REMARK    4  A    between atoms: C_10  and  C_11
REMARK    5  A    between atoms: C_14  and  C_15
REMARK    6  A    between atoms: C_15  and  C_16
REMARK    7  A    between atoms: C_15  and  C_17
REMARK    8  A    between atoms: C_22  and  C_23
REMARK                            x       y       z     vdW  Elec       q    Type
REMARK                         _______ _______ _______ _____ _____    ______ ____
ROOT
ATOM      1  C   UNL     1       8.463   8.868  18.492  0.00  0.00    +0.000 A 
ATOM      2  C   UNL     1       7.820   8.671  17.256  0.00  0.00    +0.000 A 
ATOM      3  C   UNL     1       7.401   7.406  16.840  0.00  0.00    +0.000 A 
ATOM      4  C   UNL     1       7.625   6.282  17.640  0.00  0.00    +0.000 A 
ATOM      5  C   UNL     1       8.279   6.456  18.865  0.00  0.00    +0.000 A 
ATOM      6  C   UNL     1       8.686   7.731  19.284  0.00  0.00    +0.000 A 
ENDROOT
BRANCH   1  10
ATOM      7  C   UNL     1       9.443  12.862  19.643  0.00  0.00    +0.000 A 
ATOM      8  C   UNL     1       9.520  11.843  20.590  0.00  0.00    +0.000 A 
ATOM      9  C   UNL     1       9.266  10.525  20.212  0.00  0.00    +0.000 A 
ATOM     10  C   UNL     1       8.920  10.216  18.891  0.00  0.00    +0.000 A 
ATOM     11  C   UNL     1       8.968  11.285  17.998  0.00  0.00    +0.000 A 
ATOM     12  N   UNL     1       9.232  12.574  18.332  0.00  0.00    +0.000 NA
BRANCH   7  13
ATOM     13  C   UNL     1       9.468  14.328  20.075  0.00  0.00    +0.000 C 
ATOM     14  C   UNL     1      10.193  15.316  19.170  0.00  0.00    +0.000 C 
ATOM     15  C   UNL     1      10.830  14.899  20.455  0.00  0.00    +0.000 C 
BRANCH  13  18
ATOM     16  C   UNL     1       7.118  15.055  20.188  0.00  0.00    +0.000 C 
ATOM     17  O   UNL     1       6.917  14.970  18.984  0.00  0.00    +0.000 OA
ATOM     18  N   UNL     1       8.310  14.769  20.810  0.00  0.00    +0.000 N 
ATOM     19  H   UNL     1       8.379  14.761  21.820  0.00  0.00    +0.000 HD
BRANCH  16  21
ATOM     20  C   UNL     1       4.824  14.996  21.038  0.00  0.00    +0.000 C 
ATOM     21  C   UNL     1       6.059  15.505  21.133  0.00  0.00    +0.000 C 
ENDBRANCH  16  21
ENDBRANCH  13  18
ENDBRANCH   7  13
ENDBRANCH   1  10
BRANCH   4  22
ATOM     22  C   UNL     1       7.136   4.924  17.166  0.00  0.00    +0.000 C 
ATOM     23  C   UNL     1       6.855   4.952  15.659  0.00  0.00    +0.000 C 
BRANCH  22  24
ATOM     24  C   UNL     1       5.940   4.360  17.940  0.00  0.00    +0.000 C 
ATOM     25  O   UNL     1       5.793   4.588  19.142  0.00  0.00    +0.000 OA
ATOM     26  N   UNL     1       5.045   3.642  17.171  0.00  0.00    +0.000 N 
ATOM     27  C   UNL     1       3.908   3.105  17.726  0.00  0.00    +0.000 A 
ATOM     28  C   UNL     1       3.023   3.697  18.657  0.00  0.00    +0.000 A 
ATOM     29  C   UNL     1       2.120   2.708  18.959  0.00  0.00    +0.000 A 
ATOM     30  N   UNL     1       2.501   1.623  18.227  0.00  0.00    +0.000 N 
ATOM     31  N   UNL     1       3.514   1.879  17.378  0.00  0.00    +0.000 NA
ATOM     32  H   UNL     1       5.400   3.112  16.386  0.00  0.00    +0.000 HD
ATOM     33  H   UNL     1       2.104   0.691  18.243  0.00  0.00    +0.000 HD
BRANCH  29  34
ATOM     34  C   UNL     1       0.971   2.822  19.934  0.00  0.00    +0.000 C 
ATOM     35  C   UNL     1       1.271   2.836  21.418  0.00  0.00    +0.000 C 
ATOM     36  C   UNL     1       0.840   4.093  20.745  0.00  0.00    +0.000 C 
ENDBRANCH  29  34
ENDBRANCH  22  24
ENDBRANCH   4  22
TORSDOF 7
ENDMDL
MODEL 4
REMARK VINA RESULT:      -8.4      6.742      8.988
REMARK  Name = 
REMARK  8 active torsions:
REMARK  status: ('A' for Active; 'I' for Inactive)
REMARK    1  A    between atoms: C_2  and  C_3
REMARK    2  A    between atoms: N_5  and  C_6
REMARK    3  A    between atoms: C_6  and  C_7
REMARK    4  A    between atoms: C_10  and  C_11
REMARK    5  A    between atoms: C_14  and  C_15
REMARK    6  A    between atoms: C_15  and  C_16
REMARK    7  A    between atoms: C_15  and  C_17
REMARK    8  A    between atoms: C_22  and  C_23
REMARK                            x       y       z     vdW  Elec       q    Type
REMARK                         _______ _______ _______ _____ _____    ______ ____
ROOT
ATOM      1  C   UNL     1       1.781   8.041  19.459  0.00  0.00    +0.000 A 
ATOM      2  C   UNL     1       1.767   7.062  20.468  0.00  0.00    +0.000 A 
ATOM      3  C   UNL     1       2.347   5.806  20.280  0.00  0.00    +0.000 A 
ATOM      4  C   UNL     1       2.951   5.474  19.064  0.00  0.00    +0.000 A 
ATOM      5  C   UNL     1       2.959   6.429  18.042  0.00  0.00    +0.000 A 
ATOM      6  C   UNL     1       2.387   7.694  18.240  0.00  0.00    +0.000 A 
ENDROOT
BRANCH   1  10
ATOM      7  C   UNL     1      -0.319  11.740  19.832  0.00  0.00    +0.000 A 
ATOM      8  C   UNL     1      -0.484  10.763  20.811  0.00  0.00    +0.000 A 
ATOM      9  C   UNL     1       0.245   9.577  20.735  0.00  0.00    +0.000 A 
ATOM     10  C   UNL     1       1.134   9.351  19.678  0.00  0.00    +0.000 A 
ATOM     11  C   UNL     1       1.305  10.426  18.806  0.00  0.00    +0.000 A 
ATOM     12  N   UNL     1       0.625  11.599  18.866  0.00  0.00    +0.000 NA
BRANCH   7  13
ATOM     13  C   UNL     1      -1.278  12.928  19.750  0.00  0.00    +0.000 C 
ATOM     14  C   UNL     1      -0.751  14.216  19.131  0.00  0.00    +0.000 C 
ATOM     15  C   UNL     1      -0.933  14.138  20.611  0.00  0.00    +0.000 C 
BRANCH  13  18
ATOM     16  C   UNL     1      -3.127  11.969  18.437  0.00  0.00    +0.000 C 
ATOM     17  O   UNL     1      -2.434  11.660  17.477  0.00  0.00    +0.000 OA
ATOM     18  N   UNL     1      -2.666  12.583  19.577  0.00  0.00    +0.000 N 
ATOM     19  H   UNL     1      -3.274  12.718  20.375  0.00  0.00    +0.000 HD
BRANCH  16  21
ATOM     20  C   UNL     1      -5.361  12.339  19.367  0.00  0.00    +0.000 C 
ATOM     21  C   UNL     1      -4.594  11.715  18.463  0.00  0.00    +0.000 C 
ENDBRANCH  16  21
ENDBRANCH  13  18
ENDBRANCH   7  13
ENDBRANCH   1  10
BRANCH   4  22
ATOM     22  C   UNL     1       3.591   4.105  18.903  0.00  0.00    +0.000 C 
ATOM     23  C   UNL     1       4.563   3.829  20.055  0.00  0.00    +0.000 C 
BRANCH  22  24
ATOM     24  C   UNL     1       4.259   3.859  17.546  0.00  0.00    +0.000 C 
ATOM     25  O   UNL     1       3.893   2.940  16.811  0.00  0.00    +0.000 OA
ATOM     26  N   UNL     1       5.241   4.773  17.215  0.00  0.00    +0.000 N 
ATOM     27  C   UNL     1       5.904   4.695  16.014  0.00  0.00    +0.000 A 
ATOM     28  C   UNL     1       5.367   4.425  14.733  0.00  0.00    +0.000 A 
ATOM     29  C   UNL     1       6.459   4.360  13.903  0.00  0.00    +0.000 A 
ATOM     30  N   UNL     1       7.543   4.578  14.700  0.00  0.00    +0.000 N 
ATOM     31  N   UNL     1       7.221   4.904  15.966  0.00  0.00    +0.000 NA
ATOM     32  H   UNL     1       5.800   5.170  17.959  0.00  0.00    +0.000 HD
ATOM     33  H   UNL     1       8.522   4.541  14.443  0.00  0.00    +0.000 HD
BRANCH  29  34
ATOM     34  C   UNL     1       6.431   4.069  12.420  0.00  0.00    +0.000 C 
ATOM     35  C   UNL     1       6.642   2.645  11.951  0.00  0.00    +0.000 C 
ATOM     36  C   UNL     1       5.284   3.251  11.870  0.00  0.00    +0.000 C 
ENDBRANCH  29  34
ENDBRANCH  22  24
ENDBRANCH   4  22
TORSDOF 7
ENDMDL
MODEL 5
REMARK VINA RESULT:      -8.3      6.123     11.640
REMARK  Name = 
REMARK  8 active torsions:
REMARK  status: ('A' for Active; 'I' for Inactive)
REMARK    1  A    between atoms: C_2  and  C_3
REMARK    2  A    between atoms: N_5  and  C_6
REMARK    3  A    between atoms: C_6  and  C_7
REMARK    4  A    between atoms: C_10  and  C_11
REMARK    5  A    between atoms: C_14  and  C_15
REMARK    6  A    between atoms: C_15  and  C_16
REMARK    7  A    between atoms: C_15  and  C_17
REMARK    8  A    between atoms: C_22  and  C_23
REMARK                            x       y       z     vdW  Elec       q    Type
REMARK                         _______ _______ _______ _____ _____    ______ ____
ROOT
ATOM      1  C   UNL     1       1.368   8.559  20.055  0.00  0.00    +0.000 A 
ATOM      2  C   UNL     1       1.103   8.864  21.403  0.00  0.00    +0.000 A 
ATOM      3  C   UNL     1       0.622  10.116  21.791  0.00  0.00    +0.000 A 
ATOM      4  C   UNL     1       0.402  11.121  20.844  0.00  0.00    +0.000 A 
ATOM      5  C   UNL     1       0.677  10.842  19.501  0.00  0.00    +0.000 A 
ATOM      6  C   UNL     1       1.147   9.579  19.115  0.00  0.00    +0.000 A 
ENDROOT
BRANCH   1  10
ATOM      7  C   UNL     1       3.243   4.874  18.992  0.00  0.00    +0.000 A 
ATOM      8  C   UNL     1       2.684   5.010  20.260  0.00  0.00    +0.000 A 
ATOM      9  C   UNL     1       2.012   6.185  20.598  0.00  0.00    +0.000 A 
ATOM     10  C   UNL     1       1.904   7.235  19.678  0.00  0.00    +0.000 A 
ATOM     11  C   UNL     1       2.406   6.965  18.406  0.00  0.00    +0.000 A 
ATOM     12  N   UNL     1       3.046   5.825  18.042  0.00  0.00    +0.000 NA
BRANCH   7  13
ATOM     13  C   UNL     1       4.191   3.715  18.682  0.00  0.00    +0.000 C 
ATOM     14  C   UNL     1       3.764   2.724  17.607  0.00  0.00    +0.000 C 
ATOM     15  C   UNL     1       3.696   2.319  19.042  0.00  0.00    +0.000 C 
BRANCH  13  18
ATOM     16  C   UNL     1       6.319   4.659  17.877  0.00  0.00    +0.000 C 
ATOM     17  O   UNL     1       5.872   5.043  16.804  0.00  0.00    +0.000 OA
ATOM     18  N   UNL     1       5.592   4.011  18.846  0.00  0.00    +0.000 N 
ATOM     19  H   UNL     1       5.997   3.812  19.752  0.00  0.00    +0.000 HD
BRANCH  16  21
ATOM     20  C   UNL     1       8.100   5.884  19.025  0.00  0.00    +0.000 C 
ATOM     21  C   UNL     1       7.748   4.851  18.249  0.00  0.00    +0.000 C 
ENDBRANCH  16  21
ENDBRANCH  13  18
ENDBRANCH   7  13
ENDBRANCH   1  10
BRANCH   4  22
ATOM     22  C   UNL     1      -0.143  12.464  21.301  0.00  0.00    +0.000 C 
ATOM     23  C   UNL     1      -1.608  12.330  21.729  0.00  0.00    +0.000 C 
BRANCH  22  24
ATOM     24  C   UNL     1       0.038  13.609  20.300  0.00  0.00    +0.000 C 
ATOM     25  O   UNL     1      -0.872  13.941  19.538  0.00  0.00    +0.000 OA
ATOM     26  N   UNL     1       1.261  14.248  20.372  0.00  0.00    +0.000 N 
ATOM     27  C   UNL     1       1.551  15.315  19.556  0.00  0.00    +0.000 A 
ATOM     28  C   UNL     1       0.718  16.403  19.207  0.00  0.00    +0.000 A 
ATOM     29  C   UNL     1       1.447  17.125  18.295  0.00  0.00    +0.000 A 
ATOM     30  N   UNL     1       2.624  16.453  18.149  0.00  0.00    +0.000 N 
ATOM     31  N   UNL     1       2.758  15.416  18.997  0.00  0.00    +0.000 NA
ATOM     32  H   UNL     1       2.075  13.704  20.629  0.00  0.00    +0.000 HD
ATOM     33  H   UNL     1       3.383  16.658  17.509  0.00  0.00    +0.000 HD
BRANCH  29  34
ATOM     34  C   UNL     1       0.993  18.382  17.590  0.00  0.00    +0.000 C 
ATOM     35  C   UNL     1       0.797  18.347  16.089  0.00  0.00    +0.000 C 
ATOM     36  C   UNL     1      -0.392  18.406  16.984  0.00  0.00    +0.000 C 
ENDBRANCH  29  34
ENDBRANCH  22  24
ENDBRANCH   4  22
TORSDOF 7
ENDMDL
MODEL 6
REMARK VINA RESULT:      -8.2      6.345      8.267
REMARK  Name = 
REMARK  8 active torsions:
REMARK  status: ('A' for Active; 'I' for Inactive)
REMARK    1  A    between atoms: C_2  and  C_3
REMARK    2  A    between atoms: N_5  and  C_6
REMARK    3  A    between atoms: C_6  and  C_7
REMARK    4  A    between atoms: C_10  and  C_11
REMARK    5  A    between atoms: C_14  and  C_15
REMARK    6  A    between atoms: C_15  and  C_16
REMARK    7  A    between atoms: C_15  and  C_17
REMARK    8  A    between atoms: C_22  and  C_23
REMARK                            x       y       z     vdW  Elec       q    Type
REMARK                         _______ _______ _______ _____ _____    ______ ____
ROOT
ATOM      1  C   UNL     1       1.713   8.166  19.412  0.00  0.00    +0.000 A 
ATOM      2  C   UNL     1       1.680   7.189  20.423  0.00  0.00    +0.000 A 
ATOM      3  C   UNL     1       2.306   5.951  20.269  0.00  0.00    +0.000 A 
ATOM      4  C   UNL     1       2.978   5.634  19.084  0.00  0.00    +0.000 A 
ATOM      5  C   UNL     1       3.007   6.587  18.060  0.00  0.00    +0.000 A 
ATOM      6  C   UNL     1       2.388   7.834  18.226  0.00  0.00    +0.000 A 
ENDROOT
BRANCH   1  10
ATOM      7  C   UNL     1      -0.595  11.736  19.810  0.00  0.00    +0.000 A 
ATOM      8  C   UNL     1      -0.255  11.015  20.953  0.00  0.00    +0.000 A 
ATOM      9  C   UNL     1       0.552   9.883  20.843  0.00  0.00    +0.000 A 
ATOM     10  C   UNL     1       1.016   9.456  19.594  0.00  0.00    +0.000 A 
ATOM     11  C   UNL     1       0.708  10.298  18.526  0.00  0.00    +0.000 A 
ATOM     12  N   UNL     1      -0.057  11.415  18.605  0.00  0.00    +0.000 NA
BRANCH   7  13
ATOM     13  C   UNL     1      -1.671  12.820  19.867  0.00  0.00    +0.000 C 
ATOM     14  C   UNL     1      -2.631  12.797  21.050  0.00  0.00    +0.000 C 
ATOM     15  C   UNL     1      -3.113  12.352  19.708  0.00  0.00    +0.000 C 
BRANCH  13  18
ATOM     16  C   UNL     1      -0.428  14.945  19.930  0.00  0.00    +0.000 C 
ATOM     17  O   UNL     1       0.098  14.734  21.014  0.00  0.00    +0.000 OA
ATOM     18  N   UNL     1      -1.294  14.087  19.295  0.00  0.00    +0.000 N 
ATOM     19  H   UNL     1      -1.613  14.276  18.353  0.00  0.00    +0.000 HD
BRANCH  16  21
ATOM     20  C   UNL     1       1.020  16.431  18.632  0.00  0.00    +0.000 C 
ATOM     21  C   UNL     1      -0.186  16.201  19.168  0.00  0.00    +0.000 C 
ENDBRANCH  16  21
ENDBRANCH  13  18
ENDBRANCH   7  13
ENDBRANCH   1  10
BRANCH   4  22
ATOM     22  C   UNL     1       3.667   4.286  18.960  0.00  0.00    +0.000 C 
ATOM     23  C   UNL     1       4.692   4.101  20.084  0.00  0.00    +0.000 C 
BRANCH  22  24
ATOM     24  C   UNL     1       4.293   4.003  17.591  0.00  0.00    +0.000 C 
ATOM     25  O   UNL     1       3.871   3.096  16.869  0.00  0.00    +0.000 OA
ATOM     26  N   UNL     1       5.307   4.871  17.232  0.00  0.00    +0.000 N 
ATOM     27  C   UNL     1       5.938   4.757  16.017  0.00  0.00    +0.000 A 
ATOM     28  C   UNL     1       5.362   4.505  14.750  0.00  0.00    +0.000 A 
ATOM     29  C   UNL     1       6.431   4.387  13.897  0.00  0.00    +0.000 A 
ATOM     30  N   UNL     1       7.541   4.562  14.669  0.00  0.00    +0.000 N 
ATOM     31  N   UNL     1       7.262   4.908  15.939  0.00  0.00    +0.000 NA
ATOM     32  H   UNL     1       5.899   5.248  17.961  0.00  0.00    +0.000 HD
ATOM     33  H   UNL     1       8.512   4.480  14.390  0.00  0.00    +0.000 HD
BRANCH  29  34
ATOM     34  C   UNL     1       6.358   4.089  12.417  0.00  0.00    +0.000 C 
ATOM     35  C   UNL     1       6.485   2.654  11.954  0.00  0.00    +0.000 C 
ATOM     36  C   UNL     1       5.158   3.329  11.896  0.00  0.00    +0.000 C 
ENDBRANCH  29  34
ENDBRANCH  22  24
ENDBRANCH   4  22
TORSDOF 7
ENDMDL
MODEL 7
REMARK VINA RESULT:      -8.2      6.047     11.622
REMARK  Name = 
REMARK  8 active torsions:
REMARK  status: ('A' for Active; 'I' for Inactive)
REMARK    1  A    between atoms: C_2  and  C_3
REMARK    2  A    between atoms: N_5  and  C_6
REMARK    3  A    between atoms: C_6  and  C_7
REMARK    4  A    between atoms: C_10  and  C_11
REMARK    5  A    between atoms: C_14  and  C_15
REMARK    6  A    between atoms: C_15  and  C_16
REMARK    7  A    between atoms: C_15  and  C_17
REMARK    8  A    between atoms: C_22  and  C_23
REMARK                            x       y       z     vdW  Elec       q    Type
REMARK                         _______ _______ _______ _____ _____    ______ ____
ROOT
ATOM      1  C   UNL     1       1.335   8.475  20.390  0.00  0.00    +0.000 A 
ATOM      2  C   UNL     1       1.066   9.508  19.475  0.00  0.00    +0.000 A 
ATOM      3  C   UNL     1       0.547  10.737  19.886  0.00  0.00    +0.000 A 
ATOM      4  C   UNL     1       0.261  10.975  21.234  0.00  0.00    +0.000 A 
ATOM      5  C   UNL     1       0.506   9.952  22.158  0.00  0.00    +0.000 A 
ATOM      6  C   UNL     1       1.040   8.725  21.740  0.00  0.00    +0.000 A 
ENDROOT
BRANCH   1  10
ATOM      7  C   UNL     1       3.169   4.837  19.113  0.00  0.00    +0.000 A 
ATOM      8  C   UNL     1       2.454   4.854  20.308  0.00  0.00    +0.000 A 
ATOM      9  C   UNL     1       1.796   6.018  20.705  0.00  0.00    +0.000 A 
ATOM     10  C   UNL     1       1.857   7.175  19.919  0.00  0.00    +0.000 A 
ATOM     11  C   UNL     1       2.510   7.030  18.696  0.00  0.00    +0.000 A 
ATOM     12  N   UNL     1       3.142   5.905  18.274  0.00  0.00    +0.000 NA
BRANCH   7  13
ATOM     13  C   UNL     1       4.098   3.669  18.781  0.00  0.00    +0.000 C 
ATOM     14  C   UNL     1       3.463   2.296  18.596  0.00  0.00    +0.000 C 
ATOM     15  C   UNL     1       4.230   2.584  19.845  0.00  0.00    +0.000 C 
BRANCH  13  18
ATOM     16  C   UNL     1       6.334   4.674  18.553  0.00  0.00    +0.000 C 
ATOM     17  O   UNL     1       6.416   5.030  19.721  0.00  0.00    +0.000 OA
ATOM     18  N   UNL     1       5.261   4.014  18.004  0.00  0.00    +0.000 N 
ATOM     19  H   UNL     1       5.300   3.658  17.057  0.00  0.00    +0.000 HD
BRANCH  16  21
ATOM     20  C   UNL     1       7.254   4.597  16.286  0.00  0.00    +0.000 C 
ATOM     21  C   UNL     1       7.420   4.942  17.570  0.00  0.00    +0.000 C 
ENDBRANCH  16  21
ENDBRANCH  13  18
ENDBRANCH   7  13
ENDBRANCH   1  10
BRANCH   4  22
ATOM     22  C   UNL     1      -0.282  12.332  21.650  0.00  0.00    +0.000 C 
ATOM     23  C   UNL     1      -1.758  12.220  22.045  0.00  0.00    +0.000 C 
BRANCH  22  24
ATOM     24  C   UNL     1      -0.068  13.454  20.629  0.00  0.00    +0.000 C 
ATOM     25  O   UNL     1      -0.956  13.777  19.837  0.00  0.00    +0.000 OA
ATOM     26  N   UNL     1       1.159  14.085  20.719  0.00  0.00    +0.000 N 
ATOM     27  C   UNL     1       1.477  15.132  19.887  0.00  0.00    +0.000 A 
ATOM     28  C   UNL     1       0.662  16.219  19.495  0.00  0.00    +0.000 A 
ATOM     29  C   UNL     1       1.420  16.915  18.586  0.00  0.00    +0.000 A 
ATOM     30  N   UNL     1       2.594  16.232  18.485  0.00  0.00    +0.000 N 
ATOM     31  N   UNL     1       2.699  15.212  19.357  0.00  0.00    +0.000 NA
ATOM     32  H   UNL     1       1.961  13.541  21.007  0.00  0.00    +0.000 HD
ATOM     33  H   UNL     1       3.370  16.417  17.860  0.00  0.00    +0.000 HD
BRANCH  29  34
ATOM     34  C   UNL     1       0.993  18.161  17.843  0.00  0.00    +0.000 C 
ATOM     35  C   UNL     1       0.895  18.112  16.333  0.00  0.00    +0.000 C 
ATOM     36  C   UNL     1      -0.350  18.159  17.149  0.00  0.00    +0.000 C 
ENDBRANCH  29  34
ENDBRANCH  22  24
ENDBRANCH   4  22
TORSDOF 7
ENDMDL
MODEL 8
REMARK VINA RESULT:      -8.1      6.643      9.151
REMARK  Name = 
REMARK  8 active torsions:
REMARK  status: ('A' for Active; 'I' for Inactive)
REMARK    1  A    between atoms: C_2  and  C_3
REMARK    2  A    between atoms: N_5  and  C_6
REMARK    3  A    between atoms: C_6  and  C_7
REMARK    4  A    between atoms: C_10  and  C_11
REMARK    5  A    between atoms: C_14  and  C_15
REMARK    6  A    between atoms: C_15  and  C_16
REMARK    7  A    between atoms: C_15  and  C_17
REMARK    8  A    between atoms: C_22  and  C_23
REMARK                            x       y       z     vdW  Elec       q    Type
REMARK                         _______ _______ _______ _____ _____    ______ ____
ROOT
ATOM      1  C   UNL     1       2.131   7.795  18.899  0.00  0.00    +0.000 A 
ATOM      2  C   UNL     1       3.042   7.793  17.826  0.00  0.00    +0.000 A 
ATOM      3  C   UNL     1       4.062   6.844  17.731  0.00  0.00    +0.000 A 
ATOM      4  C   UNL     1       4.221   5.867  18.718  0.00  0.00    +0.000 A 
ATOM      5  C   UNL     1       3.335   5.864  19.802  0.00  0.00    +0.000 A 
ATOM      6  C   UNL     1       2.305   6.811  19.885  0.00  0.00    +0.000 A 
ENDROOT
BRANCH   1  10
ATOM      7  C   UNL     1      -0.644  11.027  19.190  0.00  0.00    +0.000 A 
ATOM      8  C   UNL     1      -0.420  10.433  17.950  0.00  0.00    +0.000 A 
ATOM      9  C   UNL     1       0.434   9.335  17.852  0.00  0.00    +0.000 A 
ATOM     10  C   UNL     1       1.081   8.830  18.986  0.00  0.00    +0.000 A 
ATOM     11  C   UNL     1       0.716   9.426  20.193  0.00  0.00    +0.000 A 
ATOM     12  N   UNL     1      -0.128  10.481  20.322  0.00  0.00    +0.000 NA
BRANCH   7  13
ATOM     13  C   UNL     1      -1.367  12.370  19.289  0.00  0.00    +0.000 C 
ATOM     14  C   UNL     1      -0.771  13.548  18.529  0.00  0.00    +0.000 C 
ATOM     15  C   UNL     1      -0.626  13.487  20.014  0.00  0.00    +0.000 C 
BRANCH  13  18
ATOM     16  C   UNL     1      -3.620  11.930  18.398  0.00  0.00    +0.000 C 
ATOM     17  O   UNL     1      -3.242  11.658  17.266  0.00  0.00    +0.000 OA
ATOM     18  N   UNL     1      -2.797  12.284  19.440  0.00  0.00    +0.000 N 
ATOM     19  H   UNL     1      -3.165  12.397  20.376  0.00  0.00    +0.000 HD
BRANCH  16  21
ATOM     20  C   UNL     1      -5.773  10.790  18.634  0.00  0.00    +0.000 C 
ATOM     21  C   UNL     1      -5.062  11.917  18.771  0.00  0.00    +0.000 C 
ENDBRANCH  16  21
ENDBRANCH  13  18
ENDBRANCH   7  13
ENDBRANCH   1  10
BRANCH   4  22
ATOM     22  C   UNL     1       5.328   4.837  18.571  0.00  0.00    +0.000 C 
ATOM     23  C   UNL     1       6.628   5.354  19.195  0.00  0.00    +0.000 C 
BRANCH  22  24
ATOM     24  C   UNL     1       5.562   4.339  17.141  0.00  0.00    +0.000 C 
ATOM     25  O   UNL     1       5.118   3.253  16.762  0.00  0.00    +0.000 OA
ATOM     26  N   UNL     1       6.248   5.222  16.330  0.00  0.00    +0.000 N 
ATOM     27  C   UNL     1       6.502   4.922  15.013  0.00  0.00    +0.000 A 
ATOM     28  C   UNL     1       5.633   4.332  14.066  0.00  0.00    +0.000 A 
ATOM     29  C   UNL     1       6.405   4.160  12.943  0.00  0.00    +0.000 A 
ATOM     30  N   UNL     1       7.642   4.630  13.269  0.00  0.00    +0.000 N 
ATOM     31  N   UNL     1       7.692   5.210  14.483  0.00  0.00    +0.000 NA
ATOM     32  H   UNL     1       6.950   5.817  16.750  0.00  0.00    +0.000 HD
ATOM     33  H   UNL     1       8.485   4.606  12.708  0.00  0.00    +0.000 HD
BRANCH  29  34
ATOM     34  C   UNL     1       5.952   3.539  11.641  0.00  0.00    +0.000 C 
ATOM     35  C   UNL     1       5.528   2.086  11.634  0.00  0.00    +0.000 C 
ATOM     36  C   UNL     1       4.498   3.152  11.497  0.00  0.00    +0.000 C 
ENDBRANCH  29  34
ENDBRANCH  22  24
ENDBRANCH   4  22
TORSDOF 7
ENDMDL
MODEL 9
REMARK VINA RESULT:      -8.1      7.643     11.339
REMARK  Name = 
REMARK  8 active torsions:
REMARK  status: ('A' for Active; 'I' for Inactive)
REMARK    1  A    between atoms: C_2  and  C_3
REMARK    2  A    between atoms: N_5  and  C_6
REMARK    3  A    between atoms: C_6  and  C_7
REMARK    4  A    between atoms: C_10  and  C_11
REMARK    5  A    between atoms: C_14  and  C_15
REMARK    6  A    between atoms: C_15  and  C_16
REMARK    7  A    between atoms: C_15  and  C_17
REMARK    8  A    between atoms: C_22  and  C_23
REMARK                            x       y       z     vdW  Elec       q    Type
REMARK                         _______ _______ _______ _____ _____    ______ ____
ROOT
ATOM      1  C   UNL     1       1.449   8.449  19.791  0.00  0.00    +0.000 A 
ATOM      2  C   UNL     1       1.392   9.414  18.769  0.00  0.00    +0.000 A 
ATOM      3  C   UNL     1       0.899  10.699  18.999  0.00  0.00    +0.000 A 
ATOM      4  C   UNL     1       0.426  11.065  20.263  0.00  0.00    +0.000 A 
ATOM      5  C   UNL     1       0.458  10.113  21.288  0.00  0.00    +0.000 A 
ATOM      6  C   UNL     1       0.967   8.828  21.054  0.00  0.00    +0.000 A 
ENDROOT
BRANCH   1  10
ATOM      7  C   UNL     1       3.225   4.649  18.992  0.00  0.00    +0.000 A 
ATOM      8  C   UNL     1       2.656   4.884  20.242  0.00  0.00    +0.000 A 
ATOM      9  C   UNL     1       2.016   6.097  20.495  0.00  0.00    +0.000 A 
ATOM     10  C   UNL     1       1.949   7.087  19.508  0.00  0.00    +0.000 A 
ATOM     11  C   UNL     1       2.456   6.721  18.262  0.00  0.00    +0.000 A 
ATOM     12  N   UNL     1       3.066   5.541  17.981  0.00  0.00    +0.000 NA
BRANCH   7  13
ATOM     13  C   UNL     1       4.141   3.445  18.770  0.00  0.00    +0.000 C 
ATOM     14  C   UNL     1       3.483   2.082  18.602  0.00  0.00    +0.000 C 
ATOM     15  C   UNL     1       4.176   2.406  19.885  0.00  0.00    +0.000 C 
BRANCH  13  18
ATOM     16  C   UNL     1       6.331   4.554  18.572  0.00  0.00    +0.000 C 
ATOM     17  O   UNL     1       6.267   5.120  19.655  0.00  0.00    +0.000 OA
ATOM     18  N   UNL     1       5.360   3.729  18.057  0.00  0.00    +0.000 N 
ATOM     19  H   UNL     1       5.520   3.212  17.202  0.00  0.00    +0.000 HD
BRANCH  16  21
ATOM     20  C   UNL     1       7.310   4.770  16.340  0.00  0.00    +0.000 C 
ATOM     21  C   UNL     1       7.500   4.719  17.665  0.00  0.00    +0.000 C 
ENDBRANCH  16  21
ENDBRANCH  13  18
ENDBRANCH   7  13
ENDBRANCH   1  10
BRANCH   4  22
ATOM     22  C   UNL     1      -0.083  12.480  20.484  0.00  0.00    +0.000 C 
ATOM     23  C   UNL     1       1.047  13.383  20.989  0.00  0.00    +0.000 C 
BRANCH  22  24
ATOM     24  C   UNL     1      -1.320  12.590  21.381  0.00  0.00    +0.000 C 
ATOM     25  O   UNL     1      -1.215  12.676  22.607  0.00  0.00    +0.000 OA
ATOM     26  N   UNL     1      -2.521  12.638  20.700  0.00  0.00    +0.000 N 
ATOM     27  C   UNL     1      -3.711  12.769  21.374  0.00  0.00    +0.000 A 
ATOM     28  C   UNL     1      -4.009  13.610  22.472  0.00  0.00    +0.000 A 
ATOM     29  C   UNL     1      -5.294  13.283  22.825  0.00  0.00    +0.000 A 
ATOM     30  N   UNL     1      -5.676  12.300  21.961  0.00  0.00    +0.000 N 
ATOM     31  N   UNL     1      -4.773  12.057  20.993  0.00  0.00    +0.000 NA
ATOM     32  H   UNL     1      -2.604  12.127  19.831  0.00  0.00    +0.000 HD
ATOM     33  H   UNL     1      -6.541  11.772  21.962  0.00  0.00    +0.000 HD
BRANCH  29  34
ATOM     34  C   UNL     1      -6.082  13.883  23.968  0.00  0.00    +0.000 C 
ATOM     35  C   UNL     1      -7.256  14.784  23.651  0.00  0.00    +0.000 C 
ATOM     36  C   UNL     1      -7.504  13.415  24.184  0.00  0.00    +0.000 C 
ENDBRANCH  29  34
ENDBRANCH  22  24
ENDBRANCH   4  22
TORSDOF 7
ENDMDL
