MODEL 1
REMARK VINA RESULT:      -8.5      0.000      0.000
REMARK  Name = 
REMARK  6 active torsions:
REMARK  status: ('A' for Active; 'I' for Inactive)
REMARK    1  A    between atoms: C_1  and  C_2
REMARK    2  A    between atoms: C_2  and  C_3
REMARK    3  A    between atoms: N_6  and  C_7
REMARK    4  A    between atoms: C_10  and  C_11
REMARK    5  A    between atoms: N_19  and  C_20
REMARK    6  A    between atoms: C_24  and  C_25
REMARK                            x       y       z     vdW  Elec       q    Type
REMARK                         _______ _______ _______ _____ _____    ______ ____
ROOT
ATOM      1  C   UNL     1       3.496   3.803  19.741  0.00  0.00    +0.000 C 
ATOM      2  C   UNL     1       2.961   4.932  18.866  0.00  0.00    +0.000 C 
ATOM      3  C   UNL     1       1.871   4.452  17.896  0.00  0.00    +0.000 C 
ATOM      4  C   UNL     1       2.275   6.021  19.705  0.00  0.00    +0.000 C 
ATOM      5  O   UNL     1       1.539   5.770  20.653  0.00  0.00    +0.000 OA
ATOM      6  N   UNL     1       2.501   7.229  19.079  0.00  0.00    +0.000 N 
ATOM      7  C   UNL     1       3.632   7.115  18.291  0.00  0.00    +0.000 C 
ATOM      8  O   UNL     1       4.250   8.011  17.735  0.00  0.00    +0.000 OA
ATOM      9  N   UNL     1       3.977   5.753  18.239  0.00  0.00    +0.000 N 
ENDROOT
BRANCH   6  10
ATOM     10  C   UNL     1       1.631   8.353  19.128  0.00  0.00    +0.000 A 
ATOM     11  C   UNL     1       1.128   8.849  20.336  0.00  0.00    +0.000 A 
ATOM     12  C   UNL     1       0.143   9.844  20.368  0.00  0.00    +0.000 A 
ATOM     13  C   UNL     1      -0.374  10.372  19.182  0.00  0.00    +0.000 A 
ATOM     14  C   UNL     1       0.132   9.899  17.966  0.00  0.00    +0.000 A 
ATOM     15  C   UNL     1       1.126   8.915  17.942  0.00  0.00    +0.000 A 
BRANCH  13  16
ATOM     16  C   UNL     1      -1.457  11.421  19.194  0.00  0.00    +0.000 C 
ATOM     17  F   UNL     1      -1.158  12.525  18.456  0.00  0.00    +0.000 F 
ATOM     18  F   UNL     1      -2.640  10.955  18.707  0.00  0.00    +0.000 F 
ATOM     19  F   UNL     1      -1.725  11.876  20.451  0.00  0.00    +0.000 F 
ENDBRANCH  13  16
ENDBRANCH   6  10
BRANCH   9  20
ATOM     20  C   UNL     1       5.111   5.269  17.558  0.00  0.00    +0.000 A 
ATOM     21  C   UNL     1       6.326   5.138  18.241  0.00  0.00    +0.000 A 
ATOM     22  C   UNL     1       7.453   4.630  17.593  0.00  0.00    +0.000 A 
ATOM     23  C   UNL     1       7.389   4.294  16.241  0.00  0.00    +0.000 A 
ATOM     24  C   UNL     1       6.195   4.459  15.529  0.00  0.00    +0.000 A 
ATOM     25  C   UNL     1       5.052   4.917  16.208  0.00  0.00    +0.000 A 
BRANCH  24  26
ATOM     26  C   UNL     1       6.119   4.187  14.047  0.00  0.00    +0.000 C 
ATOM     27  F   UNL     1       6.389   2.897  13.709  0.00  0.00    +0.000 F 
ATOM     28  F   UNL     1       4.888   4.462  13.533  0.00  0.00    +0.000 F 
ATOM     29  F   UNL     1       6.996   4.950  13.337  0.00  0.00    +0.000 F 
ENDBRANCH  24  26
ENDBRANCH   9  20
TORSDOF 4
ENDMDL
MODEL 2
REMARK VINA RESULT:      -8.4      0.455      1.449
REMARK  Name = 
REMARK  6 active torsions:
REMARK  status: ('A' for Active; 'I' for Inactive)
REMARK    1  A    between atoms: C_1  and  C_2
REMARK    2  A    between atoms: C_2  and  C_3
REMARK    3  A    between atoms: N_6  and  C_7
REMARK    4  A    between atoms: C_10  and  C_11
REMARK    5  A    between atoms: N_19  and  C_20
REMARK    6  A    between atoms: C_24  and  C_25
REMARK                            x       y       z     vdW  Elec       q    Type
REMARK                         _______ _______ _______ _____ _____    ______ ____
ROOT
ATOM      1  C   UNL     1       3.537   3.657  19.684  0.00  0.00    +0.000 C 
ATOM      2  C   UNL     1       2.975   4.792  18.834  0.00  0.00    +0.000 C 
ATOM      3  C   UNL     1       1.886   4.309  17.864  0.00  0.00    +0.000 C 
ATOM      4  C   UNL     1       2.276   5.853  19.698  0.00  0.00    +0.000 C 
ATOM      5  O   UNL     1       1.553   5.573  20.647  0.00  0.00    +0.000 OA
ATOM      6  N   UNL     1       2.476   7.076  19.092  0.00  0.00    +0.000 N 
ATOM      7  C   UNL     1       3.602   6.996  18.294  0.00  0.00    +0.000 C 
ATOM      8  O   UNL     1       4.201   7.913  17.749  0.00  0.00    +0.000 OA
ATOM      9  N   UNL     1       3.971   5.641  18.214  0.00  0.00    +0.000 N 
ENDROOT
BRANCH   6  10
ATOM     10  C   UNL     1       1.586   8.183  19.168  0.00  0.00    +0.000 A 
ATOM     11  C   UNL     1       1.146   8.859  18.024  0.00  0.00    +0.000 A 
ATOM     12  C   UNL     1       0.409  10.047  18.111  0.00  0.00    +0.000 A 
ATOM     13  C   UNL     1       0.094  10.599  19.357  0.00  0.00    +0.000 A 
ATOM     14  C   UNL     1       0.512   9.924  20.509  0.00  0.00    +0.000 A 
ATOM     15  C   UNL     1       1.235   8.731  20.414  0.00  0.00    +0.000 A 
BRANCH  13  16
ATOM     16  C   UNL     1      -0.671  11.893  19.472  0.00  0.00    +0.000 C 
ATOM     17  F   UNL     1      -1.907  11.751  20.024  0.00  0.00    +0.000 F 
ATOM     18  F   UNL     1      -0.024  12.815  20.238  0.00  0.00    +0.000 F 
ATOM     19  F   UNL     1      -0.871  12.488  18.262  0.00  0.00    +0.000 F 
ENDBRANCH  13  16
ENDBRANCH   6  10
BRANCH   9  20
ATOM     20  C   UNL     1       5.108   5.191  17.516  0.00  0.00    +0.000 A 
ATOM     21  C   UNL     1       6.335   5.089  18.181  0.00  0.00    +0.000 A 
ATOM     22  C   UNL     1       7.466   4.612  17.516  0.00  0.00    +0.000 A 
ATOM     23  C   UNL     1       7.393   4.280  16.164  0.00  0.00    +0.000 A 
ATOM     24  C   UNL     1       6.185   4.416  15.469  0.00  0.00    +0.000 A 
ATOM     25  C   UNL     1       5.040   4.842  16.165  0.00  0.00    +0.000 A 
BRANCH  24  26
ATOM     26  C   UNL     1       6.096   4.148  13.988  0.00  0.00    +0.000 C 
ATOM     27  F   UNL     1       4.860   4.367  13.461  0.00  0.00    +0.000 F 
ATOM     28  F   UNL     1       6.954   4.922  13.268  0.00  0.00    +0.000 F 
ATOM     29  F   UNL     1       6.410   2.858  13.677  0.00  0.00    +0.000 F 
ENDBRANCH  24  26
ENDBRANCH   9  20
TORSDOF 4
ENDMDL
MODEL 3
REMARK VINA RESULT:      -8.3      0.446      1.260
REMARK  Name = 
REMARK  6 active torsions:
REMARK  status: ('A' for Active; 'I' for Inactive)
REMARK    1  A    between atoms: C_1  and  C_2
REMARK    2  A    between atoms: C_2  and  C_3
REMARK    3  A    between atoms: N_6  and  C_7
REMARK    4  A    between atoms: C_10  and  C_11
REMARK    5  A    between atoms: N_19  and  C_20
REMARK    6  A    between atoms: C_24  and  C_25
REMARK                            x       y       z     vdW  Elec       q    Type
REMARK                         _______ _______ _______ _____ _____    ______ ____
ROOT
ATOM      1  C   UNL     1       3.510   3.639  19.671  0.00  0.00    +0.000 C 
ATOM      2  C   UNL     1       2.953   4.787  18.835  0.00  0.00    +0.000 C 
ATOM      3  C   UNL     1       1.869   4.320  17.852  0.00  0.00    +0.000 C 
ATOM      4  C   UNL     1       2.251   5.835  19.712  0.00  0.00    +0.000 C 
ATOM      5  O   UNL     1       1.522   5.541  20.652  0.00  0.00    +0.000 OA
ATOM      6  N   UNL     1       2.454   7.067  19.125  0.00  0.00    +0.000 N 
ATOM      7  C   UNL     1       3.585   6.999  18.332  0.00  0.00    +0.000 C 
ATOM      8  O   UNL     1       4.187   7.923  17.804  0.00  0.00    +0.000 OA
ATOM      9  N   UNL     1       3.953   5.645  18.233  0.00  0.00    +0.000 N 
ENDROOT
BRANCH   6  10
ATOM     10  C   UNL     1       1.565   8.173  19.213  0.00  0.00    +0.000 A 
ATOM     11  C   UNL     1       1.134   8.869  18.078  0.00  0.00    +0.000 A 
ATOM     12  C   UNL     1       0.397  10.056  18.180  0.00  0.00    +0.000 A 
ATOM     13  C   UNL     1       0.073  10.587  19.432  0.00  0.00    +0.000 A 
ATOM     14  C   UNL     1       0.481   9.892  20.575  0.00  0.00    +0.000 A 
ATOM     15  C   UNL     1       1.204   8.700  20.466  0.00  0.00    +0.000 A 
BRANCH  13  16
ATOM     16  C   UNL     1      -0.692  11.880  19.564  0.00  0.00    +0.000 C 
ATOM     17  F   UNL     1       0.095  12.954  19.844  0.00  0.00    +0.000 F 
ATOM     18  F   UNL     1      -1.373  12.201  18.429  0.00  0.00    +0.000 F 
ATOM     19  F   UNL     1      -1.624  11.833  20.558  0.00  0.00    +0.000 F 
ENDBRANCH  13  16
ENDBRANCH   6  10
BRANCH   9  20
ATOM     20  C   UNL     1       5.094   5.204  17.535  0.00  0.00    +0.000 A 
ATOM     21  C   UNL     1       6.319   5.101  18.202  0.00  0.00    +0.000 A 
ATOM     22  C   UNL     1       7.454   4.635  17.536  0.00  0.00    +0.000 A 
ATOM     23  C   UNL     1       7.385   4.313  16.181  0.00  0.00    +0.000 A 
ATOM     24  C   UNL     1       6.178   4.450  15.484  0.00  0.00    +0.000 A 
ATOM     25  C   UNL     1       5.030   4.866  16.181  0.00  0.00    +0.000 A 
BRANCH  24  26
ATOM     26  C   UNL     1       6.094   4.194  14.000  0.00  0.00    +0.000 C 
ATOM     27  F   UNL     1       6.961   4.939  13.262  0.00  0.00    +0.000 F 
ATOM     28  F   UNL     1       6.350   2.894  13.684  0.00  0.00    +0.000 F 
ATOM     29  F   UNL     1       4.854   4.460  13.500  0.00  0.00    +0.000 F 
ENDBRANCH  24  26
ENDBRANCH   9  20
TORSDOF 4
ENDMDL
MODEL 4
REMARK VINA RESULT:      -8.0      1.293      1.947
REMARK  Name = 
REMARK  6 active torsions:
REMARK  status: ('A' for Active; 'I' for Inactive)
REMARK    1  A    between atoms: C_1  and  C_2
REMARK    2  A    between atoms: C_2  and  C_3
REMARK    3  A    between atoms: N_6  and  C_7
REMARK    4  A    between atoms: C_10  and  C_11
REMARK    5  A    between atoms: N_19  and  C_20
REMARK    6  A    between atoms: C_24  and  C_25
REMARK                            x       y       z     vdW  Elec       q    Type
REMARK                         _______ _______ _______ _____ _____    ______ ____
ROOT
ATOM      1  C   UNL     1       4.427   3.085  18.437  0.00  0.00    +0.000 C 
ATOM      2  C   UNL     1       3.632   4.265  17.890  0.00  0.00    +0.000 C 
ATOM      3  C   UNL     1       2.374   3.819  17.129  0.00  0.00    +0.000 C 
ATOM      4  C   UNL     1       3.099   5.160  19.020  0.00  0.00    +0.000 C 
ATOM      5  O   UNL     1       2.626   4.714  20.059  0.00  0.00    +0.000 OA
ATOM      6  N   UNL     1       3.095   6.458  18.552  0.00  0.00    +0.000 N 
ATOM      7  C   UNL     1       4.012   6.559  17.522  0.00  0.00    +0.000 C 
ATOM      8  O   UNL     1       4.425   7.578  16.985  0.00  0.00    +0.000 OA
ATOM      9  N   UNL     1       4.418   5.256  17.183  0.00  0.00    +0.000 N 
ENDROOT
BRANCH   6  10
ATOM     10  C   UNL     1       2.195   7.476  18.968  0.00  0.00    +0.000 A 
ATOM     11  C   UNL     1       1.737   8.465  18.090  0.00  0.00    +0.000 A 
ATOM     12  C   UNL     1       0.989   9.559  18.541  0.00  0.00    +0.000 A 
ATOM     13  C   UNL     1       0.677   9.697  19.897  0.00  0.00    +0.000 A 
ATOM     14  C   UNL     1       1.112   8.707  20.784  0.00  0.00    +0.000 A 
ATOM     15  C   UNL     1       1.847   7.610  20.324  0.00  0.00    +0.000 A 
BRANCH  13  16
ATOM     16  C   UNL     1      -0.101  10.884  20.408  0.00  0.00    +0.000 C 
ATOM     17  F   UNL     1      -0.637  10.694  21.645  0.00  0.00    +0.000 F 
ATOM     18  F   UNL     1       0.663  12.007  20.501  0.00  0.00    +0.000 F 
ATOM     19  F   UNL     1      -1.147  11.208  19.596  0.00  0.00    +0.000 F 
ENDBRANCH  13  16
ENDBRANCH   6  10
BRANCH   9  20
ATOM     20  C   UNL     1       5.385   4.980  16.198  0.00  0.00    +0.000 A 
ATOM     21  C   UNL     1       6.724   5.314  16.429  0.00  0.00    +0.000 A 
ATOM     22  C   UNL     1       7.704   5.018  15.479  0.00  0.00    +0.000 A 
ATOM     23  C   UNL     1       7.346   4.430  14.267  0.00  0.00    +0.000 A 
ATOM     24  C   UNL     1       6.005   4.127  13.999  0.00  0.00    +0.000 A 
ATOM     25  C   UNL     1       5.037   4.377  14.987  0.00  0.00    +0.000 A 
BRANCH  24  26
ATOM     26  C   UNL     1       5.576   3.570  12.665  0.00  0.00    +0.000 C 
ATOM     27  F   UNL     1       5.770   2.230  12.539  0.00  0.00    +0.000 F 
ATOM     28  F   UNL     1       4.255   3.786  12.414  0.00  0.00    +0.000 F 
ATOM     29  F   UNL     1       6.248   4.143  11.626  0.00  0.00    +0.000 F 
ENDBRANCH  24  26
ENDBRANCH   9  20
TORSDOF 4
ENDMDL
MODEL 5
REMARK VINA RESULT:      -7.9      1.332      2.006
REMARK  Name = 
REMARK  6 active torsions:
REMARK  status: ('A' for Active; 'I' for Inactive)
REMARK    1  A    between atoms: C_1  and  C_2
REMARK    2  A    between atoms: C_2  and  C_3
REMARK    3  A    between atoms: N_6  and  C_7
REMARK    4  A    between atoms: C_10  and  C_11
REMARK    5  A    between atoms: N_19  and  C_20
REMARK    6  A    between atoms: C_24  and  C_25
REMARK                            x       y       z     vdW  Elec       q    Type
REMARK                         _______ _______ _______ _____ _____    ______ ____
ROOT
ATOM      1  C   UNL     1       4.517   3.163  18.393  0.00  0.00    +0.000 C 
ATOM      2  C   UNL     1       3.690   4.321  17.844  0.00  0.00    +0.000 C 
ATOM      3  C   UNL     1       2.419   3.840  17.127  0.00  0.00    +0.000 C 
ATOM      4  C   UNL     1       3.175   5.231  18.969  0.00  0.00    +0.000 C 
ATOM      5  O   UNL     1       2.737   4.801  20.030  0.00  0.00    +0.000 OA
ATOM      6  N   UNL     1       3.140   6.519  18.475  0.00  0.00    +0.000 N 
ATOM      7  C   UNL     1       4.027   6.612  17.418  0.00  0.00    +0.000 C 
ATOM      8  O   UNL     1       4.410   7.624  16.849  0.00  0.00    +0.000 OA
ATOM      9  N   UNL     1       4.442   5.307  17.096  0.00  0.00    +0.000 N 
ENDROOT
BRANCH   6  10
ATOM     10  C   UNL     1       2.236   7.533  18.895  0.00  0.00    +0.000 A 
ATOM     11  C   UNL     1       1.716   8.478  18.003  0.00  0.00    +0.000 A 
ATOM     12  C   UNL     1       0.964   9.572  18.448  0.00  0.00    +0.000 A 
ATOM     13  C   UNL     1       0.712   9.755  19.811  0.00  0.00    +0.000 A 
ATOM     14  C   UNL     1       1.210   8.809  20.713  0.00  0.00    +0.000 A 
ATOM     15  C   UNL     1       1.948   7.711  20.260  0.00  0.00    +0.000 A 
BRANCH  13  16
ATOM     16  C   UNL     1      -0.069  10.944  20.314  0.00  0.00    +0.000 C 
ATOM     17  F   UNL     1      -0.978  11.418  19.419  0.00  0.00    +0.000 F 
ATOM     18  F   UNL     1      -0.770  10.665  21.447  0.00  0.00    +0.000 F 
ATOM     19  F   UNL     1       0.736  12.001  20.621  0.00  0.00    +0.000 F 
ENDBRANCH  13  16
ENDBRANCH   6  10
BRANCH   9  20
ATOM     20  C   UNL     1       5.386   5.024  16.091  0.00  0.00    +0.000 A 
ATOM     21  C   UNL     1       6.730   5.362  16.287  0.00  0.00    +0.000 A 
ATOM     22  C   UNL     1       7.687   5.059  15.316  0.00  0.00    +0.000 A 
ATOM     23  C   UNL     1       7.301   4.460  14.118  0.00  0.00    +0.000 A 
ATOM     24  C   UNL     1       5.955   4.153  13.884  0.00  0.00    +0.000 A 
ATOM     25  C   UNL     1       5.011   4.410  14.893  0.00  0.00    +0.000 A 
BRANCH  24  26
ATOM     26  C   UNL     1       5.496   3.585  12.565  0.00  0.00    +0.000 C 
ATOM     27  F   UNL     1       4.158   3.710  12.347  0.00  0.00    +0.000 F 
ATOM     28  F   UNL     1       6.107   4.181  11.503  0.00  0.00    +0.000 F 
ATOM     29  F   UNL     1       5.770   2.255  12.452  0.00  0.00    +0.000 F 
ENDBRANCH  24  26
ENDBRANCH   9  20
TORSDOF 4
ENDMDL
MODEL 6
REMARK VINA RESULT:      -7.8      1.339      1.878
REMARK  Name = 
REMARK  6 active torsions:
REMARK  status: ('A' for Active; 'I' for Inactive)
REMARK    1  A    between atoms: C_1  and  C_2
REMARK    2  A    between atoms: C_2  and  C_3
REMARK    3  A    between atoms: N_6  and  C_7
REMARK    4  A    between atoms: C_10  and  C_11
REMARK    5  A    between atoms: N_19  and  C_20
REMARK    6  A    between atoms: C_24  and  C_25
REMARK                            x       y       z     vdW  Elec       q    Type
REMARK                         _______ _______ _______ _____ _____    ______ ____
ROOT
ATOM      1  C   UNL     1       4.251   3.098  18.243  0.00  0.00    +0.000 C 
ATOM      2  C   UNL     1       3.554   4.359  17.743  0.00  0.00    +0.000 C 
ATOM      3  C   UNL     1       2.257   4.045  16.983  0.00  0.00    +0.000 C 
ATOM      4  C   UNL     1       3.110   5.259  18.906  0.00  0.00    +0.000 C 
ATOM      5  O   UNL     1       2.611   4.822  19.936  0.00  0.00    +0.000 OA
ATOM      6  N   UNL     1       3.213   6.567  18.479  0.00  0.00    +0.000 N 
ATOM      7  C   UNL     1       4.125   6.623  17.441  0.00  0.00    +0.000 C 
ATOM      8  O   UNL     1       4.619   7.619  16.931  0.00  0.00    +0.000 OA
ATOM      9  N   UNL     1       4.415   5.301  17.058  0.00  0.00    +0.000 N 
ENDROOT
BRANCH   6  10
ATOM     10  C   UNL     1       2.406   7.644  18.937  0.00  0.00    +0.000 A 
ATOM     11  C   UNL     1       1.950   7.718  20.258  0.00  0.00    +0.000 A 
ATOM     12  C   UNL     1       1.022   8.686  20.661  0.00  0.00    +0.000 A 
ATOM     13  C   UNL     1       0.515   9.612  19.744  0.00  0.00    +0.000 A 
ATOM     14  C   UNL     1       0.976   9.561  18.424  0.00  0.00    +0.000 A 
ATOM     15  C   UNL     1       1.914   8.601  18.032  0.00  0.00    +0.000 A 
BRANCH  13  16
ATOM     16  C   UNL     1      -0.509  10.642  20.150  0.00  0.00    +0.000 C 
ATOM     17  F   UNL     1      -0.973  10.480  21.419  0.00  0.00    +0.000 F 
ATOM     18  F   UNL     1      -0.024  11.912  20.088  0.00  0.00    +0.000 F 
ATOM     19  F   UNL     1      -1.611  10.623  19.347  0.00  0.00    +0.000 F 
ENDBRANCH  13  16
ENDBRANCH   6  10
BRANCH   9  20
ATOM     20  C   UNL     1       5.347   4.976  16.053  0.00  0.00    +0.000 A 
ATOM     21  C   UNL     1       6.704   5.255  16.249  0.00  0.00    +0.000 A 
ATOM     22  C   UNL     1       7.647   4.909  15.279  0.00  0.00    +0.000 A 
ATOM     23  C   UNL     1       7.235   4.326  14.082  0.00  0.00    +0.000 A 
ATOM     24  C   UNL     1       5.878   4.077  13.848  0.00  0.00    +0.000 A 
ATOM     25  C   UNL     1       4.945   4.377  14.856  0.00  0.00    +0.000 A 
BRANCH  24  26
ATOM     26  C   UNL     1       5.394   3.528  12.530  0.00  0.00    +0.000 C 
ATOM     27  F   UNL     1       4.070   3.740  12.296  0.00  0.00    +0.000 F 
ATOM     28  F   UNL     1       6.055   4.070  11.469  0.00  0.00    +0.000 F 
ATOM     29  F   UNL     1       5.579   2.181  12.432  0.00  0.00    +0.000 F 
ENDBRANCH  24  26
ENDBRANCH   9  20
TORSDOF 4
ENDMDL
MODEL 7
REMARK VINA RESULT:      -7.6      1.567      2.182
REMARK  Name = 
REMARK  6 active torsions:
REMARK  status: ('A' for Active; 'I' for Inactive)
REMARK    1  A    between atoms: C_1  and  C_2
REMARK    2  A    between atoms: C_2  and  C_3
REMARK    3  A    between atoms: N_6  and  C_7
REMARK    4  A    between atoms: C_10  and  C_11
REMARK    5  A    between atoms: N_19  and  C_20
REMARK    6  A    between atoms: C_24  and  C_25
REMARK                            x       y       z     vdW  Elec       q    Type
REMARK                         _______ _______ _______ _____ _____    ______ ____
ROOT
ATOM      1  C   UNL     1       4.874   3.158  18.113  0.00  0.00    +0.000 C 
ATOM      2  C   UNL     1       3.973   4.284  17.617  0.00  0.00    +0.000 C 
ATOM      3  C   UNL     1       2.620   3.765  17.106  0.00  0.00    +0.000 C 
ATOM      4  C   UNL     1       3.608   5.257  18.749  0.00  0.00    +0.000 C 
ATOM      5  O   UNL     1       3.320   4.888  19.881  0.00  0.00    +0.000 OA
ATOM      6  N   UNL     1       3.498   6.515  18.193  0.00  0.00    +0.000 N 
ATOM      7  C   UNL     1       4.233   6.547  17.022  0.00  0.00    +0.000 C 
ATOM      8  O   UNL     1       4.530   7.526  16.351  0.00  0.00    +0.000 OA
ATOM      9  N   UNL     1       4.610   5.226  16.720  0.00  0.00    +0.000 N 
ENDROOT
BRANCH   6  10
ATOM     10  C   UNL     1       2.652   7.552  18.673  0.00  0.00    +0.000 A 
ATOM     11  C   UNL     1       2.138   7.545  19.975  0.00  0.00    +0.000 A 
ATOM     12  C   UNL     1       1.175   8.474  20.389  0.00  0.00    +0.000 A 
ATOM     13  C   UNL     1       0.692   9.441  19.502  0.00  0.00    +0.000 A 
ATOM     14  C   UNL     1       1.210   9.472  18.203  0.00  0.00    +0.000 A 
ATOM     15  C   UNL     1       2.183   8.550  17.801  0.00  0.00    +0.000 A 
BRANCH  13  16
ATOM     16  C   UNL     1      -0.368  10.430  19.918  0.00  0.00    +0.000 C 
ATOM     17  F   UNL     1      -1.504  10.361  19.171  0.00  0.00    +0.000 F 
ATOM     18  F   UNL     1      -0.760  10.261  21.211  0.00  0.00    +0.000 F 
ATOM     19  F   UNL     1       0.061  11.721  19.823  0.00  0.00    +0.000 F 
ENDBRANCH  13  16
ENDBRANCH   6  10
BRANCH   9  20
ATOM     20  C   UNL     1       5.412   4.886  15.614  0.00  0.00    +0.000 A 
ATOM     21  C   UNL     1       6.776   5.198  15.624  0.00  0.00    +0.000 A 
ATOM     22  C   UNL     1       7.595   4.839  14.552  0.00  0.00    +0.000 A 
ATOM     23  C   UNL     1       7.047   4.209  13.435  0.00  0.00    +0.000 A 
ATOM     24  C   UNL     1       5.676   3.927  13.387  0.00  0.00    +0.000 A 
ATOM     25  C   UNL     1       4.874   4.241  14.498  0.00  0.00    +0.000 A 
BRANCH  24  26
ATOM     26  C   UNL     1       5.040   3.325  12.159  0.00  0.00    +0.000 C 
ATOM     27  F   UNL     1       5.188   4.079  11.036  0.00  0.00    +0.000 F 
ATOM     28  F   UNL     1       5.551   2.099  11.858  0.00  0.00    +0.000 F 
ATOM     29  F   UNL     1       3.698   3.140  12.310  0.00  0.00    +0.000 F 
ENDBRANCH  24  26
ENDBRANCH   9  20
TORSDOF 4
ENDMDL
MODEL 8
REMARK VINA RESULT:      -7.4      1.638      8.626
REMARK  Name = 
REMARK  6 active torsions:
REMARK  status: ('A' for Active; 'I' for Inactive)
REMARK    1  A    between atoms: C_1  and  C_2
REMARK    2  A    between atoms: C_2  and  C_3
REMARK    3  A    between atoms: N_6  and  C_7
REMARK    4  A    between atoms: C_10  and  C_11
REMARK    5  A    between atoms: N_19  and  C_20
REMARK    6  A    between atoms: C_24  and  C_25
REMARK                            x       y       z     vdW  Elec       q    Type
REMARK                         _______ _______ _______ _____ _____    ______ ____
ROOT
ATOM      1  C   UNL     1      -0.188   8.256  21.425  0.00  0.00    +0.000 C 
ATOM      2  C   UNL     1       1.096   8.467  20.630  0.00  0.00    +0.000 C 
ATOM      3  C   UNL     1       2.231   9.034  21.495  0.00  0.00    +0.000 C 
ATOM      4  C   UNL     1       1.651   7.140  20.090  0.00  0.00    +0.000 C 
ATOM      5  O   UNL     1       1.668   6.105  20.748  0.00  0.00    +0.000 OA
ATOM      6  N   UNL     1       2.251   7.405  18.877  0.00  0.00    +0.000 N 
ATOM      7  C   UNL     1       1.703   8.564  18.357  0.00  0.00    +0.000 C 
ATOM      8  O   UNL     1       1.840   9.016  17.229  0.00  0.00    +0.000 OA
ATOM      9  N   UNL     1       0.926   9.158  19.368  0.00  0.00    +0.000 N 
ENDROOT
BRANCH   6  10
ATOM     10  C   UNL     1       3.347   6.684  18.329  0.00  0.00    +0.000 A 
ATOM     11  C   UNL     1       4.541   7.315  17.963  0.00  0.00    +0.000 A 
ATOM     12  C   UNL     1       5.550   6.635  17.272  0.00  0.00    +0.000 A 
ATOM     13  C   UNL     1       5.389   5.291  16.919  0.00  0.00    +0.000 A 
ATOM     14  C   UNL     1       4.208   4.642  17.293  0.00  0.00    +0.000 A 
ATOM     15  C   UNL     1       3.210   5.325  17.997  0.00  0.00    +0.000 A 
BRANCH  13  16
ATOM     16  C   UNL     1       6.450   4.548  16.146  0.00  0.00    +0.000 C 
ATOM     17  F   UNL     1       6.040   3.336  15.682  0.00  0.00    +0.000 F 
ATOM     18  F   UNL     1       6.880   5.239  15.055  0.00  0.00    +0.000 F 
ATOM     19  F   UNL     1       7.562   4.302  16.895  0.00  0.00    +0.000 F 
ENDBRANCH  13  16
ENDBRANCH   6  10
BRANCH   9  20
ATOM     20  C   UNL     1       0.181  10.337  19.176  0.00  0.00    +0.000 A 
ATOM     21  C   UNL     1       0.735  11.572  19.528  0.00  0.00    +0.000 A 
ATOM     22  C   UNL     1       0.025  12.755  19.315  0.00  0.00    +0.000 A 
ATOM     23  C   UNL     1      -1.268  12.710  18.794  0.00  0.00    +0.000 A 
ATOM     24  C   UNL     1      -1.856  11.480  18.475  0.00  0.00    +0.000 A 
ATOM     25  C   UNL     1      -1.109  10.301  18.640  0.00  0.00    +0.000 A 
BRANCH  24  26
ATOM     26  C   UNL     1      -3.282  11.393  17.991  0.00  0.00    +0.000 C 
ATOM     27  F   UNL     1      -4.147  12.186  18.680  0.00  0.00    +0.000 F 
ATOM     28  F   UNL     1      -3.408  11.748  16.682  0.00  0.00    +0.000 F 
ATOM     29  F   UNL     1      -3.782  10.129  18.082  0.00  0.00    +0.000 F 
ENDBRANCH  24  26
ENDBRANCH   9  20
TORSDOF 4
ENDMDL
MODEL 9
REMARK VINA RESULT:      -7.4      2.033      8.638
REMARK  Name = 
REMARK  6 active torsions:
REMARK  status: ('A' for Active; 'I' for Inactive)
REMARK    1  A    between atoms: C_1  and  C_2
REMARK    2  A    between atoms: C_2  and  C_3
REMARK    3  A    between atoms: N_6  and  C_7
REMARK    4  A    between atoms: C_10  and  C_11
REMARK    5  A    between atoms: N_19  and  C_20
REMARK    6  A    between atoms: C_24  and  C_25
REMARK                            x       y       z     vdW  Elec       q    Type
REMARK                         _______ _______ _______ _____ _____    ______ ____
ROOT
ATOM      1  C   UNL     1      -0.424   8.225  21.594  0.00  0.00    +0.000 C 
ATOM      2  C   UNL     1       0.899   8.486  20.882  0.00  0.00    +0.000 C 
ATOM      3  C   UNL     1       1.970   9.046  21.831  0.00  0.00    +0.000 C 
ATOM      4  C   UNL     1       1.512   7.189  20.333  0.00  0.00    +0.000 C 
ATOM      5  O   UNL     1       1.513   6.134  20.957  0.00  0.00    +0.000 OA
ATOM      6  N   UNL     1       2.176   7.507  19.166  0.00  0.00    +0.000 N 
ATOM      7  C   UNL     1       1.635   8.672  18.653  0.00  0.00    +0.000 C 
ATOM      8  O   UNL     1       1.827   9.164  17.550  0.00  0.00    +0.000 OA
ATOM      9  N   UNL     1       0.789   9.216  19.636  0.00  0.00    +0.000 N 
ENDROOT
BRANCH   6  10
ATOM     10  C   UNL     1       3.316   6.825  18.660  0.00  0.00    +0.000 A 
ATOM     11  C   UNL     1       4.008   5.874  19.419  0.00  0.00    +0.000 A 
ATOM     12  C   UNL     1       5.224   5.332  18.985  0.00  0.00    +0.000 A 
ATOM     13  C   UNL     1       5.788   5.732  17.770  0.00  0.00    +0.000 A 
ATOM     14  C   UNL     1       5.099   6.668  16.992  0.00  0.00    +0.000 A 
ATOM     15  C   UNL     1       3.878   7.196  17.426  0.00  0.00    +0.000 A 
BRANCH  13  16
ATOM     16  C   UNL     1       7.112   5.184  17.299  0.00  0.00    +0.000 C 
ATOM     17  F   UNL     1       7.780   6.017  16.455  0.00  0.00    +0.000 F 
ATOM     18  F   UNL     1       7.967   4.930  18.327  0.00  0.00    +0.000 F 
ATOM     19  F   UNL     1       6.976   4.006  16.626  0.00  0.00    +0.000 F 
ENDBRANCH  13  16
ENDBRANCH   6  10
BRANCH   9  20
ATOM     20  C   UNL     1       0.031  10.387  19.439  0.00  0.00    +0.000 A 
ATOM     21  C   UNL     1       0.529  11.617  19.880  0.00  0.00    +0.000 A 
ATOM     22  C   UNL     1      -0.192  12.793  19.665  0.00  0.00    +0.000 A 
ATOM     23  C   UNL     1      -1.443  12.743  19.051  0.00  0.00    +0.000 A 
ATOM     24  C   UNL     1      -1.978  11.516  18.641  0.00  0.00    +0.000 A 
ATOM     25  C   UNL     1      -1.216  10.347  18.811  0.00  0.00    +0.000 A 
BRANCH  24  26
ATOM     26  C   UNL     1      -3.364  11.420  18.053  0.00  0.00    +0.000 C 
ATOM     27  F   UNL     1      -3.443  11.836  16.760  0.00  0.00    +0.000 F 
ATOM     28  F   UNL     1      -3.847  10.147  18.069  0.00  0.00    +0.000 F 
ATOM     29  F   UNL     1      -4.270  12.169  18.742  0.00  0.00    +0.000 F 
ENDBRANCH  24  26
ENDBRANCH   9  20
TORSDOF 4
ENDMDL
