MODEL 1
REMARK VINA RESULT:      -6.8      0.000      0.000
REMARK  Name = 
REMARK  12 active torsions:
REMARK  status: ('A' for Active; 'I' for Inactive)
REMARK    1  A    between atoms: C_1  and  N_2
REMARK    2  A    between atoms: C_5  and  S_6
REMARK    3  A    between atoms: S_6  and  C_7
REMARK    4  A    between atoms: C_7  and  N_9
REMARK    5  A    between atoms: N_9  and  C_10
REMARK    6  A    between atoms: C_10  and  C_11
REMARK    7  A    between atoms: C_11  and  C_12
REMARK    8  A    between atoms: C_12  and  C_13
REMARK    9  A    between atoms: C_13  and  N_14
REMARK   10  A    between atoms: C_15  and  O_17
REMARK   11  A    between atoms: O_17  and  C_18
REMARK   12  A    between atoms: C_18  and  C_19
REMARK                            x       y       z     vdW  Elec       q    Type
REMARK                         _______ _______ _______ _____ _____    ______ ____
ROOT
ATOM      1  C   UNL     1       7.885   8.180  17.539  0.00  0.00    +0.000 C 
ENDROOT
BRANCH   1   2
ATOM      2  C   UNL     1       8.404   9.197  18.554  0.00  0.00    +0.000 C 
BRANCH   2   3
ATOM      3  N   UNL     1       9.196  10.281  17.998  0.00  0.00    +0.000 N 
ATOM      4  H   UNL     1       9.083  10.529  17.021  0.00  0.00    +0.000 HD
BRANCH   3   5
ATOM      5  C   UNL     1       9.976  11.139  18.745  0.00  0.00    +0.000 C 
ATOM      6  S   UNL     1       9.761  11.505  20.362  0.00  0.00    +0.000 S 
BRANCH   5   7
ATOM      7  S   UNL     1      11.200  11.864  17.715  0.00  0.00    +0.000 S 
BRANCH   7  12
ATOM      8  C   UNL     1      10.139  17.820  17.514  0.00  0.00    +0.000 C 
ATOM      9  N   UNL     1      10.326  16.390  17.256  0.00  0.00    +0.000 NA
ATOM     10  C   UNL     1      11.724  16.003  17.477  0.00  0.00    +0.000 C 
ATOM     11  C   UNL     1      11.955  14.509  17.222  0.00  0.00    +0.000 C 
ATOM     12  C   UNL     1      11.011  13.659  18.076  0.00  0.00    +0.000 C 
ATOM     13  C   UNL     1       9.569  14.102  17.792  0.00  0.00    +0.000 C 
ATOM     14  C   UNL     1       9.409  15.597  18.084  0.00  0.00    +0.000 C 
ENDBRANCH   7  12
ENDBRANCH   5   7
ENDBRANCH   3   5
ENDBRANCH   2   3
ENDBRANCH   1   2
BRANCH   1  15
ATOM     15  C   UNL     1       7.735   6.787  18.168  0.00  0.00    +0.000 C 
BRANCH  15  16
ATOM     16  C   UNL     1       7.229   5.737  17.180  0.00  0.00    +0.000 C 
BRANCH  16  17
ATOM     17  N   UNL     1       5.867   5.352  17.468  0.00  0.00    +0.000 N 
ATOM     18  C   UNL     1       4.810   5.929  16.832  0.00  0.00    +0.000 C 
ATOM     19  O   UNL     1       4.909   6.742  15.919  0.00  0.00    +0.000 OA
ATOM     20  H   UNL     1       5.651   4.746  18.246  0.00  0.00    +0.000 HD
BRANCH  18  21
ATOM     21  O   UNL     1       3.656   5.542  17.421  0.00  0.00    +0.000 OA
BRANCH  21  22
ATOM     22  C   UNL     1       3.512   4.122  17.548  0.00  0.00    +0.000 C 
BRANCH  22  23
ATOM     23  C   UNL     1       2.797   3.736  18.816  0.00  0.00    +0.000 A 
ATOM     24  C   UNL     1       3.491   3.153  19.887  0.00  0.00    +0.000 A 
ATOM     25  C   UNL     1       2.819   2.812  21.063  0.00  0.00    +0.000 A 
ATOM     26  C   UNL     1       1.450   3.051  21.181  0.00  0.00    +0.000 A 
ATOM     27  C   UNL     1       0.753   3.633  20.123  0.00  0.00    +0.000 A 
ATOM     28  C   UNL     1       1.423   3.972  18.947  0.00  0.00    +0.000 A 
ENDBRANCH  22  23
ENDBRANCH  21  22
ENDBRANCH  18  21
ENDBRANCH  16  17
ENDBRANCH  15  16
ENDBRANCH   1  15
TORSDOF 11
ENDMDL
MODEL 2
REMARK VINA RESULT:      -6.6      7.110      9.353
REMARK  Name = 
REMARK  12 active torsions:
REMARK  status: ('A' for Active; 'I' for Inactive)
REMARK    1  A    between atoms: C_1  and  N_2
REMARK    2  A    between atoms: C_5  and  S_6
REMARK    3  A    between atoms: S_6  and  C_7
REMARK    4  A    between atoms: C_7  and  N_9
REMARK    5  A    between atoms: N_9  and  C_10
REMARK    6  A    between atoms: C_10  and  C_11
REMARK    7  A    between atoms: C_11  and  C_12
REMARK    8  A    between atoms: C_12  and  C_13
REMARK    9  A    between atoms: C_13  and  N_14
REMARK   10  A    between atoms: C_15  and  O_17
REMARK   11  A    between atoms: O_17  and  C_18
REMARK   12  A    between atoms: C_18  and  C_19
REMARK                            x       y       z     vdW  Elec       q    Type
REMARK                         _______ _______ _______ _____ _____    ______ ____
ROOT
ATOM      1  C   UNL     1       1.644   5.538  19.805  0.00  0.00    +0.000 C 
ENDROOT
BRANCH   1   2
ATOM      2  C   UNL     1       1.494   6.617  20.875  0.00  0.00    +0.000 C 
BRANCH   2   3
ATOM      3  N   UNL     1       1.715   7.979  20.418  0.00  0.00    +0.000 N 
ATOM      4  H   UNL     1       2.457   8.167  19.753  0.00  0.00    +0.000 HD
BRANCH   3   5
ATOM      5  C   UNL     1       0.868   9.035  20.680  0.00  0.00    +0.000 C 
ATOM      6  S   UNL     1      -0.037   9.248  22.069  0.00  0.00    +0.000 S 
BRANCH   5   7
ATOM      7  S   UNL     1       0.815  10.103  19.286  0.00  0.00    +0.000 S 
BRANCH   7  12
ATOM      8  C   UNL     1      -4.691  11.651  17.304  0.00  0.00    +0.000 C 
ATOM      9  N   UNL     1      -3.261  11.493  17.576  0.00  0.00    +0.000 NA
ATOM     10  C   UNL     1      -2.950  11.888  18.955  0.00  0.00    +0.000 C 
ATOM     11  C   UNL     1      -1.459  11.728  19.277  0.00  0.00    +0.000 C 
ATOM     12  C   UNL     1      -0.994  10.295  19.001  0.00  0.00    +0.000 C 
ATOM     13  C   UNL     1      -1.335   9.947  17.546  0.00  0.00    +0.000 C 
ATOM     14  C   UNL     1      -2.838  10.113  17.302  0.00  0.00    +0.000 C 
ENDBRANCH   7  12
ENDBRANCH   5   7
ENDBRANCH   3   5
ENDBRANCH   2   3
ENDBRANCH   1   2
BRANCH   1  15
ATOM     15  C   UNL     1       1.033   4.206  20.263  0.00  0.00    +0.000 C 
BRANCH  15  16
ATOM     16  C   UNL     1       2.075   3.220  20.790  0.00  0.00    +0.000 C 
BRANCH  16  17
ATOM     17  N   UNL     1       3.410   3.592  20.383  0.00  0.00    +0.000 N 
ATOM     18  C   UNL     1       4.152   2.805  19.556  0.00  0.00    +0.000 C 
ATOM     19  O   UNL     1       3.742   1.779  19.022  0.00  0.00    +0.000 OA
ATOM     20  H   UNL     1       3.885   4.374  20.808  0.00  0.00    +0.000 HD
BRANCH  18  21
ATOM     21  O   UNL     1       5.419   3.272  19.495  0.00  0.00    +0.000 OA
BRANCH  21  22
ATOM     22  C   UNL     1       5.512   4.675  19.220  0.00  0.00    +0.000 C 
BRANCH  22  23
ATOM     23  C   UNL     1       5.709   4.955  17.753  0.00  0.00    +0.000 A 
ATOM     24  C   UNL     1       4.920   5.904  17.087  0.00  0.00    +0.000 A 
ATOM     25  C   UNL     1       5.122   6.165  15.730  0.00  0.00    +0.000 A 
ATOM     26  C   UNL     1       6.113   5.482  15.027  0.00  0.00    +0.000 A 
ATOM     27  C   UNL     1       6.904   4.538  15.681  0.00  0.00    +0.000 A 
ATOM     28  C   UNL     1       6.702   4.275  17.037  0.00  0.00    +0.000 A 
ENDBRANCH  22  23
ENDBRANCH  21  22
ENDBRANCH  18  21
ENDBRANCH  16  17
ENDBRANCH  15  16
ENDBRANCH   1  15
TORSDOF 11
ENDMDL
MODEL 3
REMARK VINA RESULT:      -6.5      6.608     10.020
REMARK  Name = 
REMARK  12 active torsions:
REMARK  status: ('A' for Active; 'I' for Inactive)
REMARK    1  A    between atoms: C_1  and  N_2
REMARK    2  A    between atoms: C_5  and  S_6
REMARK    3  A    between atoms: S_6  and  C_7
REMARK    4  A    between atoms: C_7  and  N_9
REMARK    5  A    between atoms: N_9  and  C_10
REMARK    6  A    between atoms: C_10  and  C_11
REMARK    7  A    between atoms: C_11  and  C_12
REMARK    8  A    between atoms: C_12  and  C_13
REMARK    9  A    between atoms: C_13  and  N_14
REMARK   10  A    between atoms: C_15  and  O_17
REMARK   11  A    between atoms: O_17  and  C_18
REMARK   12  A    between atoms: C_18  and  C_19
REMARK                            x       y       z     vdW  Elec       q    Type
REMARK                         _______ _______ _______ _____ _____    ______ ____
ROOT
ATOM      1  C   UNL     1       3.551   7.685  17.814  0.00  0.00    +0.000 C 
ENDROOT
BRANCH   1   2
ATOM      2  C   UNL     1       4.341   6.913  16.759  0.00  0.00    +0.000 C 
BRANCH   2   3
ATOM      3  N   UNL     1       5.671   6.492  17.166  0.00  0.00    +0.000 N 
ATOM      4  H   UNL     1       6.274   7.147  17.653  0.00  0.00    +0.000 HD
BRANCH   3   5
ATOM      5  C   UNL     1       6.129   5.193  17.104  0.00  0.00    +0.000 C 
ATOM      6  S   UNL     1       7.586   4.634  17.706  0.00  0.00    +0.000 S 
BRANCH   5   7
ATOM      7  S   UNL     1       4.977   4.208  16.216  0.00  0.00    +0.000 S 
BRANCH   7  12
ATOM      8  C   UNL     1       1.476   2.509  20.853  0.00  0.00    +0.000 C 
ATOM      9  N   UNL     1       2.204   3.205  19.790  0.00  0.00    +0.000 NA
ATOM     10  C   UNL     1       3.649   3.164  20.039  0.00  0.00    +0.000 C 
ATOM     11  C   UNL     1       4.444   3.879  18.940  0.00  0.00    +0.000 C 
ATOM     12  C   UNL     1       4.110   3.299  17.563  0.00  0.00    +0.000 C 
ATOM     13  C   UNL     1       2.592   3.381  17.358  0.00  0.00    +0.000 C 
ATOM     14  C   UNL     1       1.865   2.634  18.480  0.00  0.00    +0.000 C 
ENDBRANCH   7  12
ENDBRANCH   5   7
ENDBRANCH   3   5
ENDBRANCH   2   3
ENDBRANCH   1   2
BRANCH   1  15
ATOM     15  C   UNL     1       2.602   6.761  18.591  0.00  0.00    +0.000 C 
BRANCH  15  16
ATOM     16  C   UNL     1       2.048   7.404  19.862  0.00  0.00    +0.000 C 
BRANCH  16  17
ATOM     17  N   UNL     1       1.554   8.737  19.608  0.00  0.00    +0.000 N 
ATOM     18  C   UNL     1       0.701   9.360  20.466  0.00  0.00    +0.000 C 
ATOM     19  O   UNL     1       0.348   8.903  21.549  0.00  0.00    +0.000 OA
ATOM     20  H   UNL     1       1.715   9.191  18.721  0.00  0.00    +0.000 HD
BRANCH  18  21
ATOM     21  O   UNL     1       0.237  10.499  19.905  0.00  0.00    +0.000 OA
BRANCH  21  22
ATOM     22  C   UNL     1       0.071  10.424  18.483  0.00  0.00    +0.000 C 
BRANCH  22  23
ATOM     23  C   UNL     1      -1.369  10.584  18.070  0.00  0.00    +0.000 A 
ATOM     24  C   UNL     1      -1.889   9.875  16.978  0.00  0.00    +0.000 A 
ATOM     25  C   UNL     1      -3.230  10.021  16.614  0.00  0.00    +0.000 A 
ATOM     26  C   UNL     1      -4.061  10.876  17.337  0.00  0.00    +0.000 A 
ATOM     27  C   UNL     1      -3.553  11.583  18.426  0.00  0.00    +0.000 A 
ATOM     28  C   UNL     1      -2.214  11.439  18.789  0.00  0.00    +0.000 A 
ENDBRANCH  22  23
ENDBRANCH  21  22
ENDBRANCH  18  21
ENDBRANCH  16  17
ENDBRANCH  15  16
ENDBRANCH   1  15
TORSDOF 11
ENDMDL
MODEL 4
REMARK VINA RESULT:      -6.5      6.959      9.757
REMARK  Name = 
REMARK  12 active torsions:
REMARK  status: ('A' for Active; 'I' for Inactive)
REMARK    1  A    between atoms: C_1  and  N_2
REMARK    2  A    between atoms: C_5  and  S_6
REMARK    3  A    between atoms: S_6  and  C_7
REMARK    4  A    between atoms: C_7  and  N_9
REMARK    5  A    between atoms: N_9  and  C_10
REMARK    6  A    between atoms: C_10  and  C_11
REMARK    7  A    between atoms: C_11  and  C_12
REMARK    8  A    between atoms: C_12  and  C_13
REMARK    9  A    between atoms: C_13  and  N_14
REMARK   10  A    between atoms: C_15  and  O_17
REMARK   11  A    between atoms: O_17  and  C_18
REMARK   12  A    between atoms: C_18  and  C_19
REMARK                            x       y       z     vdW  Elec       q    Type
REMARK                         _______ _______ _______ _____ _____    ______ ____
ROOT
ATOM      1  C   UNL     1       2.197   6.893  18.173  0.00  0.00    +0.000 C 
ENDROOT
BRANCH   1   2
ATOM      2  C   UNL     1       2.407   6.905  19.685  0.00  0.00    +0.000 C 
BRANCH   2   3
ATOM      3  N   UNL     1       3.145   5.772  20.218  0.00  0.00    +0.000 N 
ATOM      4  H   UNL     1       3.946   5.937  20.817  0.00  0.00    +0.000 HD
BRANCH   3   5
ATOM      5  C   UNL     1       2.733   4.459  20.122  0.00  0.00    +0.000 C 
ATOM      6  S   UNL     1       1.192   3.888  20.430  0.00  0.00    +0.000 S 
BRANCH   5   7
ATOM      7  S   UNL     1       4.103   3.445  19.697  0.00  0.00    +0.000 S 
BRANCH   7  12
ATOM      8  C   UNL     1       7.073   5.004  14.659  0.00  0.00    +0.000 C 
ATOM      9  N   UNL     1       6.526   4.364  15.857  0.00  0.00    +0.000 NA
ATOM     10  C   UNL     1       6.866   5.137  17.057  0.00  0.00    +0.000 C 
ATOM     11  C   UNL     1       6.302   4.498  18.332  0.00  0.00    +0.000 C 
ATOM     12  C   UNL     1       4.788   4.302  18.219  0.00  0.00    +0.000 C 
ATOM     13  C   UNL     1       4.499   3.479  16.956  0.00  0.00    +0.000 C 
ATOM     14  C   UNL     1       5.075   4.184  15.723  0.00  0.00    +0.000 C 
ENDBRANCH   7  12
ENDBRANCH   5   7
ENDBRANCH   3   5
ENDBRANCH   2   3
ENDBRANCH   1   2
BRANCH   1  15
ATOM     15  C   UNL     1       2.255   8.312  17.588  0.00  0.00    +0.000 C 
BRANCH  15  16
ATOM     16  C   UNL     1       2.163   9.403  18.655  0.00  0.00    +0.000 C 
BRANCH  16  17
ATOM     17  N   UNL     1       0.885  10.075  18.616  0.00  0.00    +0.000 N 
ATOM     18  C   UNL     1       0.752  11.381  18.974  0.00  0.00    +0.000 C 
ATOM     19  O   UNL     1       1.686  12.118  19.271  0.00  0.00    +0.000 OA
ATOM     20  H   UNL     1       0.031   9.560  18.457  0.00  0.00    +0.000 HD
BRANCH  18  21
ATOM     21  O   UNL     1      -0.559  11.705  19.043  0.00  0.00    +0.000 OA
BRANCH  21  22
ATOM     22  C   UNL     1      -1.444  10.580  18.985  0.00  0.00    +0.000 C 
BRANCH  22  23
ATOM     23  C   UNL     1      -2.363  10.640  17.794  0.00  0.00    +0.000 A 
ATOM     24  C   UNL     1      -3.511  11.445  17.809  0.00  0.00    +0.000 A 
ATOM     25  C   UNL     1      -4.348  11.504  16.692  0.00  0.00    +0.000 A 
ATOM     26  C   UNL     1      -4.047  10.759  15.552  0.00  0.00    +0.000 A 
ATOM     27  C   UNL     1      -2.906   9.958  15.527  0.00  0.00    +0.000 A 
ATOM     28  C   UNL     1      -2.070   9.897  16.643  0.00  0.00    +0.000 A 
ENDBRANCH  22  23
ENDBRANCH  21  22
ENDBRANCH  18  21
ENDBRANCH  16  17
ENDBRANCH  15  16
ENDBRANCH   1  15
TORSDOF 11
ENDMDL
MODEL 5
REMARK VINA RESULT:      -6.5      6.295      8.289
REMARK  Name = 
REMARK  12 active torsions:
REMARK  status: ('A' for Active; 'I' for Inactive)
REMARK    1  A    between atoms: C_1  and  N_2
REMARK    2  A    between atoms: C_5  and  S_6
REMARK    3  A    between atoms: S_6  and  C_7
REMARK    4  A    between atoms: C_7  and  N_9
REMARK    5  A    between atoms: N_9  and  C_10
REMARK    6  A    between atoms: C_10  and  C_11
REMARK    7  A    between atoms: C_11  and  C_12
REMARK    8  A    between atoms: C_12  and  C_13
REMARK    9  A    between atoms: C_13  and  N_14
REMARK   10  A    between atoms: C_15  and  O_17
REMARK   11  A    between atoms: O_17  and  C_18
REMARK   12  A    between atoms: C_18  and  C_19
REMARK                            x       y       z     vdW  Elec       q    Type
REMARK                         _______ _______ _______ _____ _____    ______ ____
ROOT
ATOM      1  C   UNL     1       1.872   3.893  18.624  0.00  0.00    +0.000 C 
ENDROOT
BRANCH   1   2
ATOM      2  C   UNL     1       2.081   5.051  19.598  0.00  0.00    +0.000 C 
BRANCH   2   3
ATOM      3  N   UNL     1       2.484   6.308  18.990  0.00  0.00    +0.000 N 
ATOM      4  H   UNL     1       3.011   6.295  18.124  0.00  0.00    +0.000 HD
BRANCH   3   5
ATOM      5  C   UNL     1       2.048   7.548  19.405  0.00  0.00    +0.000 C 
ATOM      6  S   UNL     1       1.626   7.970  20.967  0.00  0.00    +0.000 S 
BRANCH   5   7
ATOM      7  S   UNL     1       1.921   8.618  18.017  0.00  0.00    +0.000 S 
BRANCH   7  12
ATOM      8  C   UNL     1      -0.502  14.061  19.088  0.00  0.00    +0.000 C 
ATOM      9  N   UNL     1       0.058  12.830  18.527  0.00  0.00    +0.000 NA
ATOM     10  C   UNL     1       1.462  12.672  18.925  0.00  0.00    +0.000 C 
ATOM     11  C   UNL     1       2.080  11.387  18.360  0.00  0.00    +0.000 C 
ATOM     12  C   UNL     1       1.256  10.163  18.766  0.00  0.00    +0.000 C 
ATOM     13  C   UNL     1      -0.194  10.383  18.313  0.00  0.00    +0.000 C 
ATOM     14  C   UNL     1      -0.750  11.671  18.928  0.00  0.00    +0.000 C 
ENDBRANCH   7  12
ENDBRANCH   5   7
ENDBRANCH   3   5
ENDBRANCH   2   3
ENDBRANCH   1   2
BRANCH   1  15
ATOM     15  C   UNL     1       3.005   2.861  18.729  0.00  0.00    +0.000 C 
BRANCH  15  16
ATOM     16  C   UNL     1       4.226   3.388  19.482  0.00  0.00    +0.000 C 
BRANCH  16  17
ATOM     17  N   UNL     1       5.387   3.457  18.626  0.00  0.00    +0.000 N 
ATOM     18  C   UNL     1       5.638   4.544  17.846  0.00  0.00    +0.000 C 
ATOM     19  O   UNL     1       4.973   5.575  17.857  0.00  0.00    +0.000 OA
ATOM     20  H   UNL     1       5.971   2.648  18.476  0.00  0.00    +0.000 HD
BRANCH  18  21
ATOM     21  O   UNL     1       6.660   4.275  17.002  0.00  0.00    +0.000 OA
BRANCH  21  22
ATOM     22  C   UNL     1       6.942   5.328  16.072  0.00  0.00    +0.000 C 
BRANCH  22  23
ATOM     23  C   UNL     1       6.917   4.848  14.645  0.00  0.00    +0.000 A 
ATOM     24  C   UNL     1       6.022   3.850  14.235  0.00  0.00    +0.000 A 
ATOM     25  C   UNL     1       5.999   3.423  12.905  0.00  0.00    +0.000 A 
ATOM     26  C   UNL     1       6.868   3.990  11.974  0.00  0.00    +0.000 A 
ATOM     27  C   UNL     1       7.759   4.986  12.371  0.00  0.00    +0.000 A 
ATOM     28  C   UNL     1       7.785   5.411  13.700  0.00  0.00    +0.000 A 
ENDBRANCH  22  23
ENDBRANCH  21  22
ENDBRANCH  18  21
ENDBRANCH  16  17
ENDBRANCH  15  16
ENDBRANCH   1  15
TORSDOF 11
ENDMDL
MODEL 6
REMARK VINA RESULT:      -6.4      6.148      7.501
REMARK  Name = 
REMARK  12 active torsions:
REMARK  status: ('A' for Active; 'I' for Inactive)
REMARK    1  A    between atoms: C_1  and  N_2
REMARK    2  A    between atoms: C_5  and  S_6
REMARK    3  A    between atoms: S_6  and  C_7
REMARK    4  A    between atoms: C_7  and  N_9
REMARK    5  A    between atoms: N_9  and  C_10
REMARK    6  A    between atoms: C_10  and  C_11
REMARK    7  A    between atoms: C_11  and  C_12
REMARK    8  A    between atoms: C_12  and  C_13
REMARK    9  A    between atoms: C_13  and  N_14
REMARK   10  A    between atoms: C_15  and  O_17
REMARK   11  A    between atoms: O_17  and  C_18
REMARK   12  A    between atoms: C_18  and  C_19
REMARK                            x       y       z     vdW  Elec       q    Type
REMARK                         _______ _______ _______ _____ _____    ______ ____
ROOT
ATOM      1  C   UNL     1       5.311   6.582  18.250  0.00  0.00    +0.000 C 
ENDROOT
BRANCH   1   2
ATOM      2  C   UNL     1       4.205   7.193  17.392  0.00  0.00    +0.000 C 
BRANCH   2   3
ATOM      3  N   UNL     1       2.856   7.022  17.904  0.00  0.00    +0.000 N 
ATOM      4  H   UNL     1       2.367   6.150  17.737  0.00  0.00    +0.000 HD
BRANCH   3   5
ATOM      5  C   UNL     1       2.236   7.897  18.771  0.00  0.00    +0.000 C 
ATOM      6  S   UNL     1       1.780   7.563  20.345  0.00  0.00    +0.000 S 
BRANCH   5   7
ATOM      7  S   UNL     1       1.917   9.414  17.944  0.00  0.00    +0.000 S 
BRANCH   7  12
ATOM      8  C   UNL     1      -2.913  12.527  19.845  0.00  0.00    +0.000 C 
ATOM      9  N   UNL     1      -1.723  12.003  19.170  0.00  0.00    +0.000 NA
ATOM     10  C   UNL     1      -0.571  12.005  20.079  0.00  0.00    +0.000 C 
ATOM     11  C   UNL     1       0.693  11.456  19.408  0.00  0.00    +0.000 C 
ATOM     12  C   UNL     1       0.444  10.054  18.843  0.00  0.00    +0.000 C 
ATOM     13  C   UNL     1      -0.761  10.121  17.895  0.00  0.00    +0.000 C 
ATOM     14  C   UNL     1      -1.987  10.662  18.636  0.00  0.00    +0.000 C 
ENDBRANCH   7  12
ENDBRANCH   5   7
ENDBRANCH   3   5
ENDBRANCH   2   3
ENDBRANCH   1   2
BRANCH   1  15
ATOM     15  C   UNL     1       6.666   6.622  17.529  0.00  0.00    +0.000 C 
BRANCH  15  16
ATOM     16  C   UNL     1       7.145   5.242  17.079  0.00  0.00    +0.000 C 
BRANCH  16  17
ATOM     17  N   UNL     1       6.185   4.215  17.410  0.00  0.00    +0.000 N 
ATOM     18  C   UNL     1       5.330   3.707  16.480  0.00  0.00    +0.000 C 
ATOM     19  O   UNL     1       5.349   3.998  15.289  0.00  0.00    +0.000 OA
ATOM     20  H   UNL     1       6.025   3.942  18.369  0.00  0.00    +0.000 HD
BRANCH  18  21
ATOM     21  O   UNL     1       4.413   2.919  17.084  0.00  0.00    +0.000 OA
BRANCH  21  22
ATOM     22  C   UNL     1       3.129   3.535  17.247  0.00  0.00    +0.000 C 
BRANCH  22  23
ATOM     23  C   UNL     1       2.626   3.434  18.662  0.00  0.00    +0.000 A 
ATOM     24  C   UNL     1       1.366   3.936  19.018  0.00  0.00    +0.000 A 
ATOM     25  C   UNL     1       0.904   3.823  20.332  0.00  0.00    +0.000 A 
ATOM     26  C   UNL     1       1.695   3.208  21.300  0.00  0.00    +0.000 A 
ATOM     27  C   UNL     1       2.949   2.702  20.956  0.00  0.00    +0.000 A 
ATOM     28  C   UNL     1       3.412   2.817  19.644  0.00  0.00    +0.000 A 
ENDBRANCH  22  23
ENDBRANCH  21  22
ENDBRANCH  18  21
ENDBRANCH  16  17
ENDBRANCH  15  16
ENDBRANCH   1  15
TORSDOF 11
ENDMDL
MODEL 7
REMARK VINA RESULT:      -6.4      6.646      8.043
REMARK  Name = 
REMARK  12 active torsions:
REMARK  status: ('A' for Active; 'I' for Inactive)
REMARK    1  A    between atoms: C_1  and  N_2
REMARK    2  A    between atoms: C_5  and  S_6
REMARK    3  A    between atoms: S_6  and  C_7
REMARK    4  A    between atoms: C_7  and  N_9
REMARK    5  A    between atoms: N_9  and  C_10
REMARK    6  A    between atoms: C_10  and  C_11
REMARK    7  A    between atoms: C_11  and  C_12
REMARK    8  A    between atoms: C_12  and  C_13
REMARK    9  A    between atoms: C_13  and  N_14
REMARK   10  A    between atoms: C_15  and  O_17
REMARK   11  A    between atoms: O_17  and  C_18
REMARK   12  A    between atoms: C_18  and  C_19
REMARK                            x       y       z     vdW  Elec       q    Type
REMARK                         _______ _______ _______ _____ _____    ______ ____
ROOT
ATOM      1  C   UNL     1       2.158   5.607  20.895  0.00  0.00    +0.000 C 
ENDROOT
BRANCH   1   2
ATOM      2  C   UNL     1       1.800   7.008  20.402  0.00  0.00    +0.000 C 
BRANCH   2   3
ATOM      3  N   UNL     1       1.713   8.026  21.436  0.00  0.00    +0.000 N 
ATOM      4  H   UNL     1       2.460   8.109  22.117  0.00  0.00    +0.000 HD
BRANCH   3   5
ATOM      5  C   UNL     1       0.766   9.028  21.464  0.00  0.00    +0.000 C 
ATOM      6  S   UNL     1      -0.137   9.490  22.793  0.00  0.00    +0.000 S 
BRANCH   5   7
ATOM      7  S   UNL     1       0.587   9.709  19.854  0.00  0.00    +0.000 S 
BRANCH   7  12
ATOM      8  C   UNL     1       0.198  15.749  19.922  0.00  0.00    +0.000 C 
ATOM      9  N   UNL     1       0.511  14.338  19.685  0.00  0.00    +0.000 NA
ATOM     10  C   UNL     1       1.089  13.727  20.888  0.00  0.00    +0.000 C 
ATOM     11  C   UNL     1       1.423  12.245  20.677  0.00  0.00    +0.000 C 
ATOM     12  C   UNL     1       0.188  11.470  20.210  0.00  0.00    +0.000 C 
ATOM     13  C   UNL     1      -0.361  12.149  18.947  0.00  0.00    +0.000 C 
ATOM     14  C   UNL     1      -0.687  13.617  19.236  0.00  0.00    +0.000 C 
ENDBRANCH   7  12
ENDBRANCH   5   7
ENDBRANCH   3   5
ENDBRANCH   2   3
ENDBRANCH   1   2
BRANCH   1  15
ATOM     15  C   UNL     1       1.063   4.591  20.540  0.00  0.00    +0.000 C 
BRANCH  15  16
ATOM     16  C   UNL     1       1.498   3.142  20.759  0.00  0.00    +0.000 C 
BRANCH  16  17
ATOM     17  N   UNL     1       2.080   2.578  19.564  0.00  0.00    +0.000 N 
ATOM     18  C   UNL     1       3.417   2.348  19.458  0.00  0.00    +0.000 C 
ATOM     19  O   UNL     1       4.223   2.508  20.369  0.00  0.00    +0.000 OA
ATOM     20  H   UNL     1       1.534   2.468  18.721  0.00  0.00    +0.000 HD
BRANCH  18  21
ATOM     21  O   UNL     1       3.725   2.013  18.185  0.00  0.00    +0.000 OA
BRANCH  21  22
ATOM     22  C   UNL     1       3.129   2.861  17.196  0.00  0.00    +0.000 C 
BRANCH  22  23
ATOM     23  C   UNL     1       3.935   4.111  16.960  0.00  0.00    +0.000 A 
ATOM     24  C   UNL     1       3.565   5.330  17.547  0.00  0.00    +0.000 A 
ATOM     25  C   UNL     1       4.330   6.480  17.332  0.00  0.00    +0.000 A 
ATOM     26  C   UNL     1       5.468   6.422  16.530  0.00  0.00    +0.000 A 
ATOM     27  C   UNL     1       5.846   5.214  15.944  0.00  0.00    +0.000 A 
ATOM     28  C   UNL     1       5.082   4.065  16.157  0.00  0.00    +0.000 A 
ENDBRANCH  22  23
ENDBRANCH  21  22
ENDBRANCH  18  21
ENDBRANCH  16  17
ENDBRANCH  15  16
ENDBRANCH   1  15
TORSDOF 11
ENDMDL
MODEL 8
REMARK VINA RESULT:      -6.4      1.815      2.375
REMARK  Name = 
REMARK  12 active torsions:
REMARK  status: ('A' for Active; 'I' for Inactive)
REMARK    1  A    between atoms: C_1  and  N_2
REMARK    2  A    between atoms: C_5  and  S_6
REMARK    3  A    between atoms: S_6  and  C_7
REMARK    4  A    between atoms: C_7  and  N_9
REMARK    5  A    between atoms: N_9  and  C_10
REMARK    6  A    between atoms: C_10  and  C_11
REMARK    7  A    between atoms: C_11  and  C_12
REMARK    8  A    between atoms: C_12  and  C_13
REMARK    9  A    between atoms: C_13  and  N_14
REMARK   10  A    between atoms: C_15  and  O_17
REMARK   11  A    between atoms: O_17  and  C_18
REMARK   12  A    between atoms: C_18  and  C_19
REMARK                            x       y       z     vdW  Elec       q    Type
REMARK                         _______ _______ _______ _____ _____    ______ ____
ROOT
ATOM      1  C   UNL     1       8.560   9.739  17.940  0.00  0.00    +0.000 C 
ENDROOT
BRANCH   1   2
ATOM      2  C   UNL     1       9.513  10.548  18.817  0.00  0.00    +0.000 C 
BRANCH   2   3
ATOM      3  N   UNL     1       9.050  11.879  19.172  0.00  0.00    +0.000 N 
ATOM      4  H   UNL     1       8.140  12.191  18.853  0.00  0.00    +0.000 HD
BRANCH   3   5
ATOM      5  C   UNL     1       9.682  12.707  20.076  0.00  0.00    +0.000 C 
ATOM      6  S   UNL     1       8.933  13.646  21.239  0.00  0.00    +0.000 S 
BRANCH   5   7
ATOM      7  S   UNL     1      11.412  12.694  19.771  0.00  0.00    +0.000 S 
BRANCH   7  12
ATOM      8  C   UNL     1      11.029  18.285  17.485  0.00  0.00    +0.000 C 
ATOM      9  N   UNL     1      10.844  17.003  18.169  0.00  0.00    +0.000 NA
ATOM     10  C   UNL     1      10.720  15.911  17.196  0.00  0.00    +0.000 C 
ATOM     11  C   UNL     1      10.532  14.551  17.878  0.00  0.00    +0.000 C 
ATOM     12  C   UNL     1      11.668  14.276  18.866  0.00  0.00    +0.000 C 
ATOM     13  C   UNL     1      11.739  15.443  19.861  0.00  0.00    +0.000 C 
ATOM     14  C   UNL     1      11.943  16.764  19.112  0.00  0.00    +0.000 C 
ENDBRANCH   7  12
ENDBRANCH   5   7
ENDBRANCH   3   5
ENDBRANCH   2   3
ENDBRANCH   1   2
BRANCH   1  15
ATOM     15  C   UNL     1       8.434   8.291  18.436  0.00  0.00    +0.000 C 
BRANCH  15  16
ATOM     16  C   UNL     1       7.596   7.411  17.509  0.00  0.00    +0.000 C 
BRANCH  16  17
ATOM     17  N   UNL     1       7.052   6.271  18.209  0.00  0.00    +0.000 N 
ATOM     18  C   UNL     1       7.257   4.998  17.774  0.00  0.00    +0.000 C 
ATOM     19  O   UNL     1       7.974   4.696  16.825  0.00  0.00    +0.000 OA
ATOM     20  H   UNL     1       6.389   6.391  18.961  0.00  0.00    +0.000 HD
BRANCH  18  21
ATOM     21  O   UNL     1       6.484   4.143  18.480  0.00  0.00    +0.000 OA
BRANCH  21  22
ATOM     22  C   UNL     1       5.472   4.783  19.267  0.00  0.00    +0.000 C 
BRANCH  22  23
ATOM     23  C   UNL     1       4.083   4.417  18.815  0.00  0.00    +0.000 A 
ATOM     24  C   UNL     1       2.953   4.927  19.470  0.00  0.00    +0.000 A 
ATOM     25  C   UNL     1       1.670   4.592  19.031  0.00  0.00    +0.000 A 
ATOM     26  C   UNL     1       1.505   3.745  17.936  0.00  0.00    +0.000 A 
ATOM     27  C   UNL     1       2.622   3.236  17.276  0.00  0.00    +0.000 A 
ATOM     28  C   UNL     1       3.905   3.569  17.715  0.00  0.00    +0.000 A 
ENDBRANCH  22  23
ENDBRANCH  21  22
ENDBRANCH  18  21
ENDBRANCH  16  17
ENDBRANCH  15  16
ENDBRANCH   1  15
TORSDOF 11
ENDMDL
MODEL 9
REMARK VINA RESULT:      -6.3      3.148      4.261
REMARK  Name = 
REMARK  12 active torsions:
REMARK  status: ('A' for Active; 'I' for Inactive)
REMARK    1  A    between atoms: C_1  and  N_2
REMARK    2  A    between atoms: C_5  and  S_6
REMARK    3  A    between atoms: S_6  and  C_7
REMARK    4  A    between atoms: C_7  and  N_9
REMARK    5  A    between atoms: N_9  and  C_10
REMARK    6  A    between atoms: C_10  and  C_11
REMARK    7  A    between atoms: C_11  and  C_12
REMARK    8  A    between atoms: C_12  and  C_13
REMARK    9  A    between atoms: C_13  and  N_14
REMARK   10  A    between atoms: C_15  and  O_17
REMARK   11  A    between atoms: O_17  and  C_18
REMARK   12  A    between atoms: C_18  and  C_19
REMARK                            x       y       z     vdW  Elec       q    Type
REMARK                         _______ _______ _______ _____ _____    ______ ____
ROOT
ATOM      1  C   UNL     1       8.997  10.082  18.860  0.00  0.00    +0.000 C 
ENDROOT
BRANCH   1   2
ATOM      2  C   UNL     1       9.832  11.163  18.177  0.00  0.00    +0.000 C 
BRANCH   2   3
ATOM      3  N   UNL     1       9.087  12.323  17.716  0.00  0.00    +0.000 N 
ATOM      4  H   UNL     1       8.687  12.319  16.784  0.00  0.00    +0.000 HD
BRANCH   3   5
ATOM      5  C   UNL     1       8.717  13.380  18.519  0.00  0.00    +0.000 C 
ATOM      6  S   UNL     1       7.432  14.416  18.251  0.00  0.00    +0.000 S 
BRANCH   5   7
ATOM      7  S   UNL     1       9.857  13.534  19.847  0.00  0.00    +0.000 S 
BRANCH   7  12
ATOM      8  C   UNL     1       7.599  12.533  25.373  0.00  0.00    +0.000 C 
ATOM      9  N   UNL     1       8.420  12.703  24.172  0.00  0.00    +0.000 NA
ATOM     10  C   UNL     1       8.050  11.719  23.149  0.00  0.00    +0.000 C 
ATOM     11  C   UNL     1       8.886  11.872  21.873  0.00  0.00    +0.000 C 
ATOM     12  C   UNL     1       8.783  13.297  21.323  0.00  0.00    +0.000 C 
ATOM     13  C   UNL     1       9.192  14.275  22.432  0.00  0.00    +0.000 C 
ATOM     14  C   UNL     1       8.306  14.077  23.666  0.00  0.00    +0.000 C 
ENDBRANCH   7  12
ENDBRANCH   5   7
ENDBRANCH   3   5
ENDBRANCH   2   3
ENDBRANCH   1   2
BRANCH   1  15
ATOM     15  C   UNL     1       7.916   9.531  17.919  0.00  0.00    +0.000 C 
BRANCH  15  16
ATOM     16  C   UNL     1       8.200   8.103  17.452  0.00  0.00    +0.000 C 
BRANCH  16  17
ATOM     17  N   UNL     1       7.161   7.192  17.871  0.00  0.00    +0.000 N 
ATOM     18  C   UNL     1       6.736   6.174  17.074  0.00  0.00    +0.000 C 
ATOM     19  O   UNL     1       7.237   5.884  15.992  0.00  0.00    +0.000 OA
ATOM     20  H   UNL     1       6.623   7.367  18.707  0.00  0.00    +0.000 HD
BRANCH  18  21
ATOM     21  O   UNL     1       5.633   5.604  17.608  0.00  0.00    +0.000 OA
BRANCH  21  22
ATOM     22  C   UNL     1       5.185   4.434  16.914  0.00  0.00    +0.000 C 
BRANCH  22  23
ATOM     23  C   UNL     1       3.863   3.934  17.435  0.00  0.00    +0.000 A 
ATOM     24  C   UNL     1       2.815   4.823  17.714  0.00  0.00    +0.000 A 
ATOM     25  C   UNL     1       1.589   4.346  18.184  0.00  0.00    +0.000 A 
ATOM     26  C   UNL     1       1.399   2.979  18.378  0.00  0.00    +0.000 A 
ATOM     27  C   UNL     1       2.435   2.087  18.101  0.00  0.00    +0.000 A 
ATOM     28  C   UNL     1       3.661   2.563  17.633  0.00  0.00    +0.000 A 
ENDBRANCH  22  23
ENDBRANCH  21  22
ENDBRANCH  18  21
ENDBRANCH  16  17
ENDBRANCH  15  16
ENDBRANCH   1  15
TORSDOF 11
ENDMDL
