MODEL 1
REMARK VINA RESULT:      -7.6      0.000      0.000
REMARK  Name = 
REMARK  6 active torsions:
REMARK  status: ('A' for Active; 'I' for Inactive)
REMARK    1  A    between atoms: C_5  and  C_6
REMARK    2  A    between atoms: C_6  and  C_7
REMARK    3  A    between atoms: C_6  and  N_19
REMARK    4  A    between atoms: N_11  and  C_12
REMARK    5  A    between atoms: C_12  and  C_13
REMARK    6  A    between atoms: N_22  and  C_23
REMARK                            x       y       z     vdW  Elec       q    Type
REMARK                         _______ _______ _______ _____ _____    ______ ____
ROOT
ATOM      1  C   UNL     1       2.963   6.850  19.123  0.00  0.00    +0.000 C 
ENDROOT
BRANCH   1   6
ATOM      2  F   UNL     1       0.101   1.940  19.032  0.00  0.00    +0.000 F 
ATOM      3  C   UNL     1       0.721   3.127  19.052  0.00  0.00    +0.000 A 
ATOM      4  C   UNL     1       1.053   3.709  20.268  0.00  0.00    +0.000 A 
ATOM      5  C   UNL     1       1.733   4.933  20.291  0.00  0.00    +0.000 A 
ATOM      6  C   UNL     1       2.092   5.579  19.092  0.00  0.00    +0.000 A 
ATOM      7  C   UNL     1       1.723   4.967  17.874  0.00  0.00    +0.000 A 
ATOM      8  C   UNL     1       1.041   3.749  17.856  0.00  0.00    +0.000 A 
ENDBRANCH   1   6
BRANCH   1   9
ATOM      9  N   UNL     1       2.208   8.116  19.136  0.00  0.00    +0.000 NA
ATOM     10  C   UNL     1       1.417   8.398  20.348  0.00  0.00    +0.000 C 
ATOM     11  C   UNL     1       0.858   9.863  20.356  0.00  0.00    +0.000 C 
ATOM     12  N   UNL     1       0.352  10.423  19.077  0.00  0.00    +0.000 NA
ATOM     13  C   UNL     1       1.129   9.902  17.939  0.00  0.00    +0.000 C 
ATOM     14  C   UNL     1       1.356   8.385  17.976  0.00  0.00    +0.000 C 
BRANCH  12  15
ATOM     15  C   UNL     1      -1.105  10.351  18.890  0.00  0.00    +0.000 C 
ATOM     16  C   UNL     1      -1.821  11.658  19.262  0.00  0.00    +0.000 C 
ATOM     17  C   UNL     1      -3.134  11.599  18.493  0.00  0.00    +0.000 C 
ATOM     18  C   UNL     1      -2.759  10.993  17.155  0.00  0.00    +0.000 C 
ATOM     19  C   UNL     1      -1.521  10.145  17.414  0.00  0.00    +0.000 C 
ENDBRANCH  12  15
ENDBRANCH   1   9
BRANCH   1  20
ATOM     20  C   UNL     1       4.035   6.807  18.041  0.00  0.00    +0.000 A 
ATOM     21  N   UNL     1       4.062   7.580  16.963  0.00  0.00    +0.000 NA
ATOM     22  N   UNL     1       5.228   7.327  16.307  0.00  0.00    +0.000 NA
ATOM     23  N   UNL     1       5.925   6.400  16.932  0.00  0.00    +0.000 NA
ATOM     24  N   UNL     1       5.164   6.006  17.976  0.00  0.00    +0.000 N 
BRANCH  24  25
ATOM     25  C   UNL     1       5.723   5.039  18.899  0.00  0.00    +0.000 C 
BRANCH  25  26
ATOM     26  C   UNL     1       5.075   3.673  18.824  0.00  0.00    +0.000 A 
ATOM     27  C   UNL     1       4.770   2.928  19.974  0.00  0.00    +0.000 A 
ATOM     28  C   UNL     1       4.067   1.724  19.880  0.00  0.00    +0.000 A 
ATOM     29  C   UNL     1       3.649   1.253  18.637  0.00  0.00    +0.000 A 
ATOM     30  C   UNL     1       3.942   1.980  17.488  0.00  0.00    +0.000 A 
ATOM     31  C   UNL     1       4.653   3.180  17.578  0.00  0.00    +0.000 A 
ENDBRANCH  25  26
ENDBRANCH  24  25
ENDBRANCH   1  20
TORSDOF 6
ENDMDL
MODEL 2
REMARK VINA RESULT:      -7.6      3.051      6.264
REMARK  Name = 
REMARK  6 active torsions:
REMARK  status: ('A' for Active; 'I' for Inactive)
REMARK    1  A    between atoms: C_5  and  C_6
REMARK    2  A    between atoms: C_6  and  C_7
REMARK    3  A    between atoms: C_6  and  N_19
REMARK    4  A    between atoms: N_11  and  C_12
REMARK    5  A    between atoms: C_12  and  C_13
REMARK    6  A    between atoms: N_22  and  C_23
REMARK                            x       y       z     vdW  Elec       q    Type
REMARK                         _______ _______ _______ _____ _____    ______ ____
ROOT
ATOM      1  C   UNL     1       4.170   6.302  17.099  0.00  0.00    +0.000 C 
ENDROOT
BRANCH   1   6
ATOM      2  F   UNL     1       0.567   9.691  19.899  0.00  0.00    +0.000 F 
ATOM      3  C   UNL     1       1.463   8.928  19.260  0.00  0.00    +0.000 A 
ATOM      4  C   UNL     1       1.976   7.800  19.886  0.00  0.00    +0.000 A 
ATOM      5  C   UNL     1       2.886   6.980  19.207  0.00  0.00    +0.000 A 
ATOM      6  C   UNL     1       3.281   7.282  17.889  0.00  0.00    +0.000 A 
ATOM      7  C   UNL     1       2.753   8.448  17.290  0.00  0.00    +0.000 A 
ATOM      8  C   UNL     1       1.850   9.264  17.973  0.00  0.00    +0.000 A 
ENDBRANCH   1   6
BRANCH   1   9
ATOM      9  N   UNL     1       4.057   4.892  17.514  0.00  0.00    +0.000 NA
ATOM     10  C   UNL     1       2.825   4.186  17.116  0.00  0.00    +0.000 C 
ATOM     11  C   UNL     1       2.916   2.646  17.393  0.00  0.00    +0.000 C 
ATOM     12  N   UNL     1       3.570   2.201  18.651  0.00  0.00    +0.000 NA
ATOM     13  C   UNL     1       4.666   3.115  19.017  0.00  0.00    +0.000 C 
ATOM     14  C   UNL     1       4.299   4.603  18.929  0.00  0.00    +0.000 C 
BRANCH  12  15
ATOM     15  C   UNL     1       2.656   1.888  19.760  0.00  0.00    +0.000 C 
ATOM     16  C   UNL     1       3.124   2.471  21.102  0.00  0.00    +0.000 C 
ATOM     17  C   UNL     1       1.854   2.555  21.937  0.00  0.00    +0.000 C 
ATOM     18  C   UNL     1       0.787   2.998  20.956  0.00  0.00    +0.000 C 
ATOM     19  C   UNL     1       1.253   2.515  19.588  0.00  0.00    +0.000 C 
ENDBRANCH  12  15
ENDBRANCH   1   9
BRANCH   1  20
ATOM     20  C   UNL     1       5.612   6.793  17.043  0.00  0.00    +0.000 A 
ATOM     21  N   UNL     1       6.027   7.988  17.442  0.00  0.00    +0.000 NA
ATOM     22  N   UNL     1       7.385   8.004  17.345  0.00  0.00    +0.000 NA
ATOM     23  N   UNL     1       7.833   6.857  16.876  0.00  0.00    +0.000 NA
ATOM     24  N   UNL     1       6.738   6.113  16.608  0.00  0.00    +0.000 N 
BRANCH  24  25
ATOM     25  C   UNL     1       6.935   4.752  16.150  0.00  0.00    +0.000 C 
BRANCH  25  26
ATOM     26  C   UNL     1       6.812   4.585  14.651  0.00  0.00    +0.000 A 
ATOM     27  C   UNL     1       7.718   5.181  13.759  0.00  0.00    +0.000 A 
ATOM     28  C   UNL     1       7.650   4.915  12.388  0.00  0.00    +0.000 A 
ATOM     29  C   UNL     1       6.685   4.040  11.892  0.00  0.00    +0.000 A 
ATOM     30  C   UNL     1       5.781   3.441  12.764  0.00  0.00    +0.000 A 
ATOM     31  C   UNL     1       5.841   3.714  14.134  0.00  0.00    +0.000 A 
ENDBRANCH  25  26
ENDBRANCH  24  25
ENDBRANCH   1  20
TORSDOF 6
ENDMDL
MODEL 3
REMARK VINA RESULT:      -6.9      6.416      9.187
REMARK  Name = 
REMARK  6 active torsions:
REMARK  status: ('A' for Active; 'I' for Inactive)
REMARK    1  A    between atoms: C_5  and  C_6
REMARK    2  A    between atoms: C_6  and  C_7
REMARK    3  A    between atoms: C_6  and  N_19
REMARK    4  A    between atoms: N_11  and  C_12
REMARK    5  A    between atoms: C_12  and  C_13
REMARK    6  A    between atoms: N_22  and  C_23
REMARK                            x       y       z     vdW  Elec       q    Type
REMARK                         _______ _______ _______ _____ _____    ______ ____
ROOT
ATOM      1  C   UNL     1      -0.634  12.054  20.161  0.00  0.00    +0.000 C 
ENDROOT
BRANCH   1   6
ATOM      2  F   UNL     1      -3.431   9.456  15.950  0.00  0.00    +0.000 F 
ATOM      3  C   UNL     1      -2.747  10.107  16.900  0.00  0.00    +0.000 A 
ATOM      4  C   UNL     1      -3.346  11.159  17.579  0.00  0.00    +0.000 A 
ATOM      5  C   UNL     1      -2.647  11.818  18.598  0.00  0.00    +0.000 A 
ATOM      6  C   UNL     1      -1.342  11.420  18.948  0.00  0.00    +0.000 A 
ATOM      7  C   UNL     1      -0.757  10.358  18.224  0.00  0.00    +0.000 A 
ATOM      8  C   UNL     1      -1.456   9.707  17.207  0.00  0.00    +0.000 A 
ENDBRANCH   1   6
BRANCH   1   9
ATOM      9  N   UNL     1       0.717  12.577  19.885  0.00  0.00    +0.000 NA
ATOM     10  C   UNL     1       1.307  13.452  20.915  0.00  0.00    +0.000 C 
ATOM     11  C   UNL     1       2.821  13.748  20.636  0.00  0.00    +0.000 C 
ATOM     12  N   UNL     1       3.237  13.989  19.230  0.00  0.00    +0.000 NA
ATOM     13  C   UNL     1       2.428  13.178  18.304  0.00  0.00    +0.000 C 
ATOM     14  C   UNL     1       0.919  13.220  18.585  0.00  0.00    +0.000 C 
BRANCH  12  15
ATOM     15  C   UNL     1       3.355  15.402  18.841  0.00  0.00    +0.000 C 
ATOM     16  C   UNL     1       3.400  15.601  17.318  0.00  0.00    +0.000 C 
ATOM     17  C   UNL     1       2.948  17.040  17.115  0.00  0.00    +0.000 C 
ATOM     18  C   UNL     1       1.839  17.234  18.130  0.00  0.00    +0.000 C 
ATOM     19  C   UNL     1       2.132  16.253  19.258  0.00  0.00    +0.000 C 
ENDBRANCH  12  15
ENDBRANCH   1   9
BRANCH   1  20
ATOM     20  C   UNL     1      -0.677  11.125  21.368  0.00  0.00    +0.000 A 
ATOM     21  N   UNL     1      -0.236   9.874  21.384  0.00  0.00    +0.000 NA
ATOM     22  N   UNL     1      -0.337   9.420  22.664  0.00  0.00    +0.000 NA
ATOM     23  N   UNL     1      -0.851  10.346  23.449  0.00  0.00    +0.000 NA
ATOM     24  N   UNL     1      -1.141  11.392  22.646  0.00  0.00    +0.000 N 
BRANCH  24  25
ATOM     25  C   UNL     1      -1.650  12.601  23.262  0.00  0.00    +0.000 C 
BRANCH  25  26
ATOM     26  C   UNL     1      -3.153  12.752  23.169  0.00  0.00    +0.000 A 
ATOM     27  C   UNL     1      -3.813  12.893  21.938  0.00  0.00    +0.000 A 
ATOM     28  C   UNL     1      -5.209  12.913  21.874  0.00  0.00    +0.000 A 
ATOM     29  C   UNL     1      -5.965  12.780  23.037  0.00  0.00    +0.000 A 
ATOM     30  C   UNL     1      -5.325  12.639  24.265  0.00  0.00    +0.000 A 
ATOM     31  C   UNL     1      -3.929  12.628  24.333  0.00  0.00    +0.000 A 
ENDBRANCH  25  26
ENDBRANCH  24  25
ENDBRANCH   1  20
TORSDOF 6
ENDMDL
MODEL 4
REMARK VINA RESULT:      -6.8      6.218      9.101
REMARK  Name = 
REMARK  6 active torsions:
REMARK  status: ('A' for Active; 'I' for Inactive)
REMARK    1  A    between atoms: C_5  and  C_6
REMARK    2  A    between atoms: C_6  and  C_7
REMARK    3  A    between atoms: C_6  and  N_19
REMARK    4  A    between atoms: N_11  and  C_12
REMARK    5  A    between atoms: C_12  and  C_13
REMARK    6  A    between atoms: N_22  and  C_23
REMARK                            x       y       z     vdW  Elec       q    Type
REMARK                         _______ _______ _______ _____ _____    ______ ____
ROOT
ATOM      1  C   UNL     1      -0.115  12.145  20.450  0.00  0.00    +0.000 C 
ENDROOT
BRANCH   1   6
ATOM      2  F   UNL     1      -3.119   9.508  16.409  0.00  0.00    +0.000 F 
ATOM      3  C   UNL     1      -2.385  10.164  17.317  0.00  0.00    +0.000 A 
ATOM      4  C   UNL     1      -2.906  11.290  17.940  0.00  0.00    +0.000 A 
ATOM      5  C   UNL     1      -2.155  11.957  18.916  0.00  0.00    +0.000 A 
ATOM      6  C   UNL     1      -0.876  11.493  19.279  0.00  0.00    +0.000 A 
ATOM      7  C   UNL     1      -0.369  10.356  18.611  0.00  0.00    +0.000 A 
ATOM      8  C   UNL     1      -1.120   9.697  17.637  0.00  0.00    +0.000 A 
ENDBRANCH   1   6
BRANCH   1   9
ATOM      9  N   UNL     1       1.168  12.772  20.082  0.00  0.00    +0.000 NA
ATOM     10  C   UNL     1       1.691  13.793  21.008  0.00  0.00    +0.000 C 
ATOM     11  C   UNL     1       3.160  14.211  20.651  0.00  0.00    +0.000 C 
ATOM     12  N   UNL     1       3.514  14.360  19.216  0.00  0.00    +0.000 NA
ATOM     13  C   UNL     1       2.768  13.390  18.395  0.00  0.00    +0.000 C 
ATOM     14  C   UNL     1       1.271  13.308  18.723  0.00  0.00    +0.000 C 
BRANCH  12  15
ATOM     15  C   UNL     1       3.477  15.736  18.698  0.00  0.00    +0.000 C 
ATOM     16  C   UNL     1       3.391  15.794  17.165  0.00  0.00    +0.000 C 
ATOM     17  C   UNL     1       2.800  17.167  16.875  0.00  0.00    +0.000 C 
ATOM     18  C   UNL     1       1.757  17.364  17.956  0.00  0.00    +0.000 C 
ATOM     19  C   UNL     1       2.218  16.519  19.138  0.00  0.00    +0.000 C 
ENDBRANCH  12  15
ENDBRANCH   1   9
BRANCH   1  20
ATOM     20  C   UNL     1       0.008  11.184  21.627  0.00  0.00    +0.000 A 
ATOM     21  N   UNL     1       1.033  10.369  21.842  0.00  0.00    +0.000 NA
ATOM     22  N   UNL     1       0.830   9.765  23.045  0.00  0.00    +0.000 NA
ATOM     23  N   UNL     1      -0.306  10.164  23.583  0.00  0.00    +0.000 NA
ATOM     24  N   UNL     1      -0.873  10.992  22.679  0.00  0.00    +0.000 N 
BRANCH  24  25
ATOM     25  C   UNL     1      -2.109  11.654  23.043  0.00  0.00    +0.000 C 
BRANCH  25  26
ATOM     26  C   UNL     1      -2.060  13.161  22.916  0.00  0.00    +0.000 A 
ATOM     27  C   UNL     1      -1.131  13.939  23.625  0.00  0.00    +0.000 A 
ATOM     28  C   UNL     1      -1.031  15.314  23.400  0.00  0.00    +0.000 A 
ATOM     29  C   UNL     1      -1.849  15.930  22.454  0.00  0.00    +0.000 A 
ATOM     30  C   UNL     1      -2.774  15.173  21.743  0.00  0.00    +0.000 A 
ATOM     31  C   UNL     1      -2.883  13.798  21.973  0.00  0.00    +0.000 A 
ENDBRANCH  25  26
ENDBRANCH  24  25
ENDBRANCH   1  20
TORSDOF 6
ENDMDL
MODEL 5
REMARK VINA RESULT:      -6.7      3.251      6.974
REMARK  Name = 
REMARK  6 active torsions:
REMARK  status: ('A' for Active; 'I' for Inactive)
REMARK    1  A    between atoms: C_5  and  C_6
REMARK    2  A    between atoms: C_6  and  C_7
REMARK    3  A    between atoms: C_6  and  N_19
REMARK    4  A    between atoms: N_11  and  C_12
REMARK    5  A    between atoms: C_12  and  C_13
REMARK    6  A    between atoms: N_22  and  C_23
REMARK                            x       y       z     vdW  Elec       q    Type
REMARK                         _______ _______ _______ _____ _____    ______ ____
ROOT
ATOM      1  C   UNL     1       6.956   4.812  16.575  0.00  0.00    +0.000 C 
ENDROOT
BRANCH   1   6
ATOM      2  F   UNL     1       6.904   3.911  10.963  0.00  0.00    +0.000 F 
ATOM      3  C   UNL     1       6.873   4.168  12.278  0.00  0.00    +0.000 A 
ATOM      4  C   UNL     1       6.018   3.447  13.100  0.00  0.00    +0.000 A 
ATOM      5  C   UNL     1       6.010   3.689  14.479  0.00  0.00    +0.000 A 
ATOM      6  C   UNL     1       6.868   4.651  15.045  0.00  0.00    +0.000 A 
ATOM      7  C   UNL     1       7.711   5.379  14.177  0.00  0.00    +0.000 A 
ATOM      8  C   UNL     1       7.713   5.138  12.803  0.00  0.00    +0.000 A 
ENDBRANCH   1   6
BRANCH   1   9
ATOM      9  N   UNL     1       6.001   3.989  17.340  0.00  0.00    +0.000 NA
ATOM     10  C   UNL     1       4.640   3.873  16.784  0.00  0.00    +0.000 C 
ATOM     11  C   UNL     1       3.789   2.791  17.535  0.00  0.00    +0.000 C 
ATOM     12  N   UNL     1       3.923   2.700  19.012  0.00  0.00    +0.000 NA
ATOM     13  C   UNL     1       5.298   3.024  19.429  0.00  0.00    +0.000 C 
ATOM     14  C   UNL     1       5.875   4.284  18.768  0.00  0.00    +0.000 C 
BRANCH  12  15
ATOM     15  C   UNL     1       2.884   3.399  19.782  0.00  0.00    +0.000 C 
ATOM     16  C   UNL     1       1.494   3.305  19.134  0.00  0.00    +0.000 C 
ATOM     17  C   UNL     1       0.527   3.545  20.285  0.00  0.00    +0.000 C 
ATOM     18  C   UNL     1       1.149   2.816  21.459  0.00  0.00    +0.000 C 
ATOM     19  C   UNL     1       2.647   2.786  21.183  0.00  0.00    +0.000 C 
ENDBRANCH  12  15
ENDBRANCH   1   9
BRANCH   1  20
ATOM     20  C   UNL     1       6.926   6.282  16.975  0.00  0.00    +0.000 A 
ATOM     21  N   UNL     1       7.975   6.982  17.389  0.00  0.00    +0.000 NA
ATOM     22  N   UNL     1       7.575   8.275  17.533  0.00  0.00    +0.000 NA
ATOM     23  N   UNL     1       6.296   8.404  17.240  0.00  0.00    +0.000 NA
ATOM     24  N   UNL     1       5.853   7.158  16.963  0.00  0.00    +0.000 N 
BRANCH  24  25
ATOM     25  C   UNL     1       4.481   7.007  16.522  0.00  0.00    +0.000 C 
BRANCH  25  26
ATOM     26  C   UNL     1       3.455   7.335  17.585  0.00  0.00    +0.000 A 
ATOM     27  C   UNL     1       3.306   6.554  18.743  0.00  0.00    +0.000 A 
ATOM     28  C   UNL     1       2.432   6.945  19.761  0.00  0.00    +0.000 A 
ATOM     29  C   UNL     1       1.706   8.129  19.643  0.00  0.00    +0.000 A 
ATOM     30  C   UNL     1       1.843   8.914  18.503  0.00  0.00    +0.000 A 
ATOM     31  C   UNL     1       2.709   8.520  17.479  0.00  0.00    +0.000 A 
ENDBRANCH  25  26
ENDBRANCH  24  25
ENDBRANCH   1  20
TORSDOF 6
ENDMDL
MODEL 6
REMARK VINA RESULT:      -6.6      1.777      2.527
REMARK  Name = 
REMARK  6 active torsions:
REMARK  status: ('A' for Active; 'I' for Inactive)
REMARK    1  A    between atoms: C_5  and  C_6
REMARK    2  A    between atoms: C_6  and  C_7
REMARK    3  A    between atoms: C_6  and  N_19
REMARK    4  A    between atoms: N_11  and  C_12
REMARK    5  A    between atoms: C_12  and  C_13
REMARK    6  A    between atoms: N_22  and  C_23
REMARK                            x       y       z     vdW  Elec       q    Type
REMARK                         _______ _______ _______ _____ _____    ______ ____
ROOT
ATOM      1  C   UNL     1       2.337   7.022  20.016  0.00  0.00    +0.000 C 
ENDROOT
BRANCH   1   6
ATOM      2  F   UNL     1       1.110   1.571  21.056  0.00  0.00    +0.000 F 
ATOM      3  C   UNL     1       1.346   2.872  20.840  0.00  0.00    +0.000 A 
ATOM      4  C   UNL     1       2.124   3.587  21.741  0.00  0.00    +0.000 A 
ATOM      5  C   UNL     1       2.403   4.938  21.499  0.00  0.00    +0.000 A 
ATOM      6  C   UNL     1       1.910   5.579  20.347  0.00  0.00    +0.000 A 
ATOM      7  C   UNL     1       1.107   4.826  19.462  0.00  0.00    +0.000 A 
ATOM      8  C   UNL     1       0.828   3.481  19.709  0.00  0.00    +0.000 A 
ENDBRANCH   1   6
BRANCH   1   9
ATOM      9  N   UNL     1       1.297   8.042  20.242  0.00  0.00    +0.000 NA
ATOM     10  C   UNL     1       1.487   9.338  19.563  0.00  0.00    +0.000 C 
ATOM     11  C   UNL     1       0.217  10.250  19.673  0.00  0.00    +0.000 C 
ATOM     12  N   UNL     1      -0.519  10.269  20.964  0.00  0.00    +0.000 NA
ATOM     13  C   UNL     1      -0.462   8.947  21.612  0.00  0.00    +0.000 C 
ATOM     14  C   UNL     1       0.938   8.318  21.634  0.00  0.00    +0.000 C 
BRANCH  12  15
ATOM     15  C   UNL     1      -0.193  11.389  21.859  0.00  0.00    +0.000 C 
ATOM     16  C   UNL     1      -0.199  12.748  21.141  0.00  0.00    +0.000 C 
ATOM     17  C   UNL     1      -0.419  13.759  22.257  0.00  0.00    +0.000 C 
ATOM     18  C   UNL     1      -1.424  13.094  23.176  0.00  0.00    +0.000 C 
ATOM     19  C   UNL     1      -1.235  11.595  22.983  0.00  0.00    +0.000 C 
ENDBRANCH  12  15
ENDBRANCH   1   9
BRANCH   1  20
ATOM     20  C   UNL     1       2.960   7.105  18.627  0.00  0.00    +0.000 A 
ATOM     21  N   UNL     1       2.535   7.890  17.646  0.00  0.00    +0.000 NA
ATOM     22  N   UNL     1       3.414   7.768  16.614  0.00  0.00    +0.000 NA
ATOM     23  N   UNL     1       4.370   6.911  16.912  0.00  0.00    +0.000 NA
ATOM     24  N   UNL     1       4.064   6.427  18.136  0.00  0.00    +0.000 N 
BRANCH  24  25
ATOM     25  C   UNL     1       4.999   5.512  18.759  0.00  0.00    +0.000 C 
BRANCH  25  26
ATOM     26  C   UNL     1       4.620   4.054  18.614  0.00  0.00    +0.000 A 
ATOM     27  C   UNL     1       4.888   3.111  19.619  0.00  0.00    +0.000 A 
ATOM     28  C   UNL     1       4.424   1.798  19.509  0.00  0.00    +0.000 A 
ATOM     29  C   UNL     1       3.674   1.411  18.400  0.00  0.00    +0.000 A 
ATOM     30  C   UNL     1       3.399   2.334  17.396  0.00  0.00    +0.000 A 
ATOM     31  C   UNL     1       3.871   3.646  17.499  0.00  0.00    +0.000 A 
ENDBRANCH  25  26
ENDBRANCH  24  25
ENDBRANCH   1  20
TORSDOF 6
ENDMDL
MODEL 7
REMARK VINA RESULT:      -6.4      3.088      8.894
REMARK  Name = 
REMARK  6 active torsions:
REMARK  status: ('A' for Active; 'I' for Inactive)
REMARK    1  A    between atoms: C_5  and  C_6
REMARK    2  A    between atoms: C_6  and  C_7
REMARK    3  A    between atoms: C_6  and  N_19
REMARK    4  A    between atoms: N_11  and  C_12
REMARK    5  A    between atoms: C_12  and  C_13
REMARK    6  A    between atoms: N_22  and  C_23
REMARK                            x       y       z     vdW  Elec       q    Type
REMARK                         _______ _______ _______ _____ _____    ______ ____
ROOT
ATOM      1  C   UNL     1       0.888  10.301  19.980  0.00  0.00    +0.000 C 
ENDROOT
BRANCH   1   6
ATOM      2  F   UNL     1      -3.564  11.689  16.730  0.00  0.00    +0.000 F 
ATOM      3  C   UNL     1      -2.488  11.336  17.446  0.00  0.00    +0.000 A 
ATOM      4  C   UNL     1      -1.437  12.231  17.593  0.00  0.00    +0.000 A 
ATOM      5  C   UNL     1      -0.327  11.878  18.371  0.00  0.00    +0.000 A 
ATOM      6  C   UNL     1      -0.268  10.627  19.014  0.00  0.00    +0.000 A 
ATOM      7  C   UNL     1      -1.347   9.735  18.826  0.00  0.00    +0.000 A 
ATOM      8  C   UNL     1      -2.449  10.089  18.047  0.00  0.00    +0.000 A 
ENDBRANCH   1   6
BRANCH   1   9
ATOM      9  N   UNL     1       1.698   9.129  19.603  0.00  0.00    +0.000 NA
ATOM     10  C   UNL     1       1.968   8.951  18.164  0.00  0.00    +0.000 C 
ATOM     11  C   UNL     1       3.028   7.826  17.901  0.00  0.00    +0.000 C 
ATOM     12  N   UNL     1       2.960   6.595  18.730  0.00  0.00    +0.000 NA
ATOM     13  C   UNL     1       2.497   6.913  20.092  0.00  0.00    +0.000 C 
ATOM     14  C   UNL     1       1.271   7.835  20.139  0.00  0.00    +0.000 C 
BRANCH  12  15
ATOM     15  C   UNL     1       2.265   5.457  18.111  0.00  0.00    +0.000 C 
ATOM     16  C   UNL     1       3.215   4.518  17.351  0.00  0.00    +0.000 C 
ATOM     17  C   UNL     1       2.470   3.192  17.300  0.00  0.00    +0.000 C 
ATOM     18  C   UNL     1       1.806   3.080  18.658  0.00  0.00    +0.000 C 
ATOM     19  C   UNL     1       1.607   4.510  19.143  0.00  0.00    +0.000 C 
ENDBRANCH  12  15
ENDBRANCH   1   9
BRANCH   1  20
ATOM     20  C   UNL     1       0.398  10.248  21.422  0.00  0.00    +0.000 A 
ATOM     21  N   UNL     1       0.638   9.259  22.273  0.00  0.00    +0.000 NA
ATOM     22  N   UNL     1       0.140   9.630  23.485  0.00  0.00    +0.000 NA
ATOM     23  N   UNL     1      -0.425  10.819  23.413  0.00  0.00    +0.000 NA
ATOM     24  N   UNL     1      -0.344  11.190  22.117  0.00  0.00    +0.000 N 
BRANCH  24  25
ATOM     25  C   UNL     1      -0.820  12.509  21.756  0.00  0.00    +0.000 C 
BRANCH  25  26
ATOM     26  C   UNL     1      -2.315  12.686  21.911  0.00  0.00    +0.000 A 
ATOM     27  C   UNL     1      -2.889  13.172  23.097  0.00  0.00    +0.000 A 
ATOM     28  C   UNL     1      -4.259  13.435  23.173  0.00  0.00    +0.000 A 
ATOM     29  C   UNL     1      -5.074  13.229  22.061  0.00  0.00    +0.000 A 
ATOM     30  C   UNL     1      -4.521  12.749  20.878  0.00  0.00    +0.000 A 
ATOM     31  C   UNL     1      -3.152  12.476  20.803  0.00  0.00    +0.000 A 
ENDBRANCH  25  26
ENDBRANCH  24  25
ENDBRANCH   1  20
TORSDOF 6
ENDMDL
MODEL 8
REMARK VINA RESULT:      -6.4      3.688      8.940
REMARK  Name = 
REMARK  6 active torsions:
REMARK  status: ('A' for Active; 'I' for Inactive)
REMARK    1  A    between atoms: C_5  and  C_6
REMARK    2  A    between atoms: C_6  and  C_7
REMARK    3  A    between atoms: C_6  and  N_19
REMARK    4  A    between atoms: N_11  and  C_12
REMARK    5  A    between atoms: C_12  and  C_13
REMARK    6  A    between atoms: N_22  and  C_23
REMARK                            x       y       z     vdW  Elec       q    Type
REMARK                         _______ _______ _______ _____ _____    ______ ____
ROOT
ATOM      1  C   UNL     1       0.634  11.217  18.866  0.00  0.00    +0.000 C 
ENDROOT
BRANCH   1   6
ATOM      2  F   UNL     1      -4.857  10.498  17.586  0.00  0.00    +0.000 F 
ATOM      3  C   UNL     1      -3.557  10.703  17.837  0.00  0.00    +0.000 A 
ATOM      4  C   UNL     1      -3.173  11.753  18.659  0.00  0.00    +0.000 A 
ATOM      5  C   UNL     1      -1.818  11.948  18.952  0.00  0.00    +0.000 A 
ATOM      6  C   UNL     1      -0.837  11.084  18.427  0.00  0.00    +0.000 A 
ATOM      7  C   UNL     1      -1.263  10.037  17.580  0.00  0.00    +0.000 A 
ATOM      8  C   UNL     1      -2.614   9.849  17.288  0.00  0.00    +0.000 A 
ENDBRANCH   1   6
BRANCH   1   9
ATOM      9  N   UNL     1       1.334   9.937  19.081  0.00  0.00    +0.000 NA
ATOM     10  C   UNL     1       1.728   9.192  17.871  0.00  0.00    +0.000 C 
ATOM     11  C   UNL     1       2.669   7.984  18.207  0.00  0.00    +0.000 C 
ATOM     12  N   UNL     1       2.370   7.184  19.423  0.00  0.00    +0.000 NA
ATOM     13  C   UNL     1       1.808   8.040  20.482  0.00  0.00    +0.000 C 
ATOM     14  C   UNL     1       0.703   8.990  20.002  0.00  0.00    +0.000 C 
BRANCH  12  15
ATOM     15  C   UNL     1       1.612   5.944  19.190  0.00  0.00    +0.000 C 
ATOM     16  C   UNL     1       2.139   5.138  17.994  0.00  0.00    +0.000 C 
ATOM     17  C   UNL     1       1.661   3.717  18.260  0.00  0.00    +0.000 C 
ATOM     18  C   UNL     1       1.828   3.538  19.756  0.00  0.00    +0.000 C 
ATOM     19  C   UNL     1       1.724   4.934  20.356  0.00  0.00    +0.000 C 
ENDBRANCH  12  15
ENDBRANCH   1   9
BRANCH   1  20
ATOM     20  C   UNL     1       0.770  12.175  20.044  0.00  0.00    +0.000 A 
ATOM     21  N   UNL     1       0.082  12.095  21.176  0.00  0.00    +0.000 NA
ATOM     22  N   UNL     1       0.567  13.047  22.019  0.00  0.00    +0.000 NA
ATOM     23  N   UNL     1       1.528  13.738  21.439  0.00  0.00    +0.000 NA
ATOM     24  N   UNL     1       1.619  13.261  20.179  0.00  0.00    +0.000 N 
BRANCH  24  25
ATOM     25  C   UNL     1       2.664  13.788  19.326  0.00  0.00    +0.000 C 
BRANCH  25  26
ATOM     26  C   UNL     1       2.281  15.060  18.600  0.00  0.00    +0.000 A 
ATOM     27  C   UNL     1       1.071  15.726  18.851  0.00  0.00    +0.000 A 
ATOM     28  C   UNL     1       0.795  16.958  18.253  0.00  0.00    +0.000 A 
ATOM     29  C   UNL     1       1.731  17.549  17.405  0.00  0.00    +0.000 A 
ATOM     30  C   UNL     1       2.935  16.903  17.147  0.00  0.00    +0.000 A 
ATOM     31  C   UNL     1       3.209  15.665  17.737  0.00  0.00    +0.000 A 
ENDBRANCH  25  26
ENDBRANCH  24  25
ENDBRANCH   1  20
TORSDOF 6
ENDMDL
MODEL 9
REMARK VINA RESULT:      -6.4      3.654      9.277
REMARK  Name = 
REMARK  6 active torsions:
REMARK  status: ('A' for Active; 'I' for Inactive)
REMARK    1  A    between atoms: C_5  and  C_6
REMARK    2  A    between atoms: C_6  and  C_7
REMARK    3  A    between atoms: C_6  and  N_19
REMARK    4  A    between atoms: N_11  and  C_12
REMARK    5  A    between atoms: C_12  and  C_13
REMARK    6  A    between atoms: N_22  and  C_23
REMARK                            x       y       z     vdW  Elec       q    Type
REMARK                         _______ _______ _______ _____ _____    ______ ____
ROOT
ATOM      1  C   UNL     1       0.822  11.062  18.733  0.00  0.00    +0.000 C 
ENDROOT
BRANCH   1   6
ATOM      2  F   UNL     1      -4.770  11.053  17.711  0.00  0.00    +0.000 F 
ATOM      3  C   UNL     1      -3.461  11.013  17.997  0.00  0.00    +0.000 A 
ATOM      4  C   UNL     1      -2.631  10.150  17.294  0.00  0.00    +0.000 A 
ATOM      5  C   UNL     1      -1.257  10.132  17.566  0.00  0.00    +0.000 A 
ATOM      6  C   UNL     1      -0.705  10.986  18.539  0.00  0.00    +0.000 A 
ATOM      7  C   UNL     1      -1.582  11.837  19.247  0.00  0.00    +0.000 A 
ATOM      8  C   UNL     1      -2.951  11.849  18.977  0.00  0.00    +0.000 A 
ENDBRANCH   1   6
BRANCH   1   9
ATOM      9  N   UNL     1       1.477   9.769  19.000  0.00  0.00    +0.000 NA
ATOM     10  C   UNL     1       1.880   8.980  17.820  0.00  0.00    +0.000 C 
ATOM     11  C   UNL     1       2.775   7.754  18.213  0.00  0.00    +0.000 C 
ATOM     12  N   UNL     1       2.420   6.995  19.440  0.00  0.00    +0.000 NA
ATOM     13  C   UNL     1       1.857   7.896  20.461  0.00  0.00    +0.000 C 
ATOM     14  C   UNL     1       0.794   8.865  19.927  0.00  0.00    +0.000 C 
BRANCH  12  15
ATOM     15  C   UNL     1       1.631   5.774  19.220  0.00  0.00    +0.000 C 
ATOM     16  C   UNL     1       2.322   4.779  18.274  0.00  0.00    +0.000 C 
ATOM     17  C   UNL     1       1.694   3.436  18.619  0.00  0.00    +0.000 C 
ATOM     18  C   UNL     1       1.547   3.466  20.127  0.00  0.00    +0.000 C 
ATOM     19  C   UNL     1       1.433   4.936  20.506  0.00  0.00    +0.000 C 
ENDBRANCH  12  15
ENDBRANCH   1   9
BRANCH   1  20
ATOM     20  C   UNL     1       1.193  12.138  19.747  0.00  0.00    +0.000 A 
ATOM     21  N   UNL     1       1.322  11.943  21.053  0.00  0.00    +0.000 NA
ATOM     22  N   UNL     1       1.775  13.105  21.598  0.00  0.00    +0.000 NA
ATOM     23  N   UNL     1       1.915  14.032  20.672  0.00  0.00    +0.000 NA
ATOM     24  N   UNL     1       1.484  13.473  19.521  0.00  0.00    +0.000 N 
BRANCH  24  25
ATOM     25  C   UNL     1       1.602  14.248  18.302  0.00  0.00    +0.000 C 
BRANCH  25  26
ATOM     26  C   UNL     1       1.041  15.650  18.410  0.00  0.00    +0.000 A 
ATOM     27  C   UNL     1       1.835  16.789  18.200  0.00  0.00    +0.000 A 
ATOM     28  C   UNL     1       1.267  18.065  18.191  0.00  0.00    +0.000 A 
ATOM     29  C   UNL     1      -0.105  18.221  18.380  0.00  0.00    +0.000 A 
ATOM     30  C   UNL     1      -0.906  17.103  18.589  0.00  0.00    +0.000 A 
ATOM     31  C   UNL     1      -0.338  15.826  18.608  0.00  0.00    +0.000 A 
ENDBRANCH  25  26
ENDBRANCH  24  25
ENDBRANCH   1  20
TORSDOF 6
ENDMDL
