MODEL 1
REMARK VINA RESULT:      -7.4      0.000      0.000
REMARK  Name = 
REMARK  11 active torsions:
REMARK  status: ('A' for Active; 'I' for Inactive)
REMARK    1  A    between atoms: C_2  and  C_3
REMARK    2  A    between atoms: C_3  and  N_4
REMARK    3  A    between atoms: C_9  and  C_10
REMARK    4  A    between atoms: C_10  and  O_11
REMARK    5  A    between atoms: O_11  and  C_12
REMARK    6  A    between atoms: C_12  and  C_14
REMARK    7  A    between atoms: C_17  and  C_18
REMARK    8  A    between atoms: C_19  and  C_20
REMARK    9  A    between atoms: C_20  and  N_21
REMARK   10  A    between atoms: C_22  and  O_24
REMARK   11  A    between atoms: O_24  and  C_25
REMARK                            x       y       z     vdW  Elec       q    Type
REMARK                         _______ _______ _______ _____ _____    ______ ____
ROOT
ATOM      1  C   UNL     1       2.133   4.280  20.708  0.00  0.00    +0.000 C 
ATOM      2  O   UNL     1       1.988   3.673  21.764  0.00  0.00    +0.000 OA
ENDROOT
BRANCH   1   3
ATOM      3  C   UNL     1       3.216   3.994  19.786  0.00  0.00    +0.000 A 
ATOM      4  C   UNL     1       4.510   3.719  20.151  0.00  0.00    +0.000 A 
ATOM      5  O   UNL     1       5.253   3.595  19.024  0.00  0.00    +0.000 OA
ATOM      6  C   UNL     1       4.375   3.812  17.981  0.00  0.00    +0.000 A 
ATOM      7  N   UNL     1       3.141   4.043  18.405  0.00  0.00    +0.000 NA
BRANCH   6   8
ATOM      8  C   UNL     1       4.807   3.841  16.629  0.00  0.00    +0.000 C 
ATOM      9  C   UNL     1       5.148   4.993  16.023  0.00  0.00    +0.000 C 
BRANCH   9  10
ATOM     10  C   UNL     1       5.093   6.358  16.632  0.00  0.00    +0.000 C 
BRANCH  10  11
ATOM     11  N   UNL     1       6.006   6.439  17.739  0.00  0.00    +0.000 N 
ATOM     12  C   UNL     1       7.322   6.717  17.505  0.00  0.00    +0.000 C 
ATOM     13  O   UNL     1       7.805   6.907  16.400  0.00  0.00    +0.000 OA
ATOM     14  H   UNL     1       5.716   6.311  18.697  0.00  0.00    +0.000 HD
BRANCH  12  15
ATOM     15  O   UNL     1       8.010   6.753  18.673  0.00  0.00    +0.000 OA
ATOM     16  C   UNL     1       7.871   5.550  19.431  0.00  0.00    +0.000 C 
ENDBRANCH  12  15
ENDBRANCH  10  11
ENDBRANCH   9  10
ENDBRANCH   6   8
ENDBRANCH   1   3
BRANCH   1  17
ATOM     17  O   UNL     1       1.391   5.354  20.314  0.00  0.00    +0.000 OA
BRANCH  17  18
ATOM     18  C   UNL     1       1.850   6.606  20.837  0.00  0.00    +0.000 C 
BRANCH  18  24
ATOM     19  N   UNL     1       0.247  10.999  19.644  0.00  0.00    +0.000 N 
ATOM     20  C   UNL     1      -0.211  10.694  20.897  0.00  0.00    +0.000 A 
ATOM     21  C   UNL     1       0.260   9.448  21.226  0.00  0.00    +0.000 A 
ATOM     22 CL   UNL     1      -0.052   8.686  22.717  0.00  0.00    +0.000 Cl
ATOM     23  C   UNL     1       1.033   8.951  20.125  0.00  0.00    +0.000 A 
ATOM     24  C   UNL     1       1.754   7.750  19.853  0.00  0.00    +0.000 A 
ATOM     25  C   UNL     1       2.439   7.651  18.622  0.00  0.00    +0.000 A 
ATOM     26  C   UNL     1       2.394   8.664  17.674  0.00  0.00    +0.000 A 
ATOM     27  C   UNL     1       1.678   9.832  17.918  0.00  0.00    +0.000 A 
ATOM     28  C   UNL     1       1.008   9.958  19.146  0.00  0.00    +0.000 A 
BRANCH  19  29
ATOM     29  C   UNL     1      -0.050  12.253  18.960  0.00  0.00    +0.000 C 
BRANCH  29  31
ATOM     30  C   UNL     1      -2.000  11.020  17.956  0.00  0.00    +0.000 C 
ATOM     31  C   UNL     1      -1.309  12.151  18.147  0.00  0.00    +0.000 C 
ENDBRANCH  29  31
ENDBRANCH  19  29
ENDBRANCH  18  24
ENDBRANCH  17  18
ENDBRANCH   1  17
TORSDOF 10
ENDMDL
MODEL 2
REMARK VINA RESULT:      -7.2      1.631      2.450
REMARK  Name = 
REMARK  11 active torsions:
REMARK  status: ('A' for Active; 'I' for Inactive)
REMARK    1  A    between atoms: C_2  and  C_3
REMARK    2  A    between atoms: C_3  and  N_4
REMARK    3  A    between atoms: C_9  and  C_10
REMARK    4  A    between atoms: C_10  and  O_11
REMARK    5  A    between atoms: O_11  and  C_12
REMARK    6  A    between atoms: C_12  and  C_14
REMARK    7  A    between atoms: C_17  and  C_18
REMARK    8  A    between atoms: C_19  and  C_20
REMARK    9  A    between atoms: C_20  and  N_21
REMARK   10  A    between atoms: C_22  and  O_24
REMARK   11  A    between atoms: O_24  and  C_25
REMARK                            x       y       z     vdW  Elec       q    Type
REMARK                         _______ _______ _______ _____ _____    ______ ____
ROOT
ATOM      1  C   UNL     1       2.498   4.631  20.628  0.00  0.00    +0.000 C 
ATOM      2  O   UNL     1       2.282   4.048  21.684  0.00  0.00    +0.000 OA
ENDROOT
BRANCH   1   3
ATOM      3  C   UNL     1       3.756   4.518  19.916  0.00  0.00    +0.000 A 
ATOM      4  C   UNL     1       4.371   3.336  19.587  0.00  0.00    +0.000 A 
ATOM      5  O   UNL     1       5.565   3.622  19.010  0.00  0.00    +0.000 OA
ATOM      6  C   UNL     1       5.651   5.000  19.013  0.00  0.00    +0.000 A 
ATOM      7  N   UNL     1       4.576   5.568  19.540  0.00  0.00    +0.000 NA
BRANCH   6   8
ATOM      8  C   UNL     1       6.808   5.682  18.555  0.00  0.00    +0.000 C 
ATOM      9  C   UNL     1       6.862   6.236  17.331  0.00  0.00    +0.000 C 
BRANCH   9  10
ATOM     10  C   UNL     1       5.782   6.193  16.296  0.00  0.00    +0.000 C 
BRANCH  10  11
ATOM     11  N   UNL     1       6.301   5.655  15.068  0.00  0.00    +0.000 N 
ATOM     12  C   UNL     1       6.293   4.305  14.869  0.00  0.00    +0.000 C 
ATOM     13  O   UNL     1       5.872   3.489  15.674  0.00  0.00    +0.000 OA
ATOM     14  H   UNL     1       6.664   6.237  14.327  0.00  0.00    +0.000 HD
BRANCH  12  15
ATOM     15  O   UNL     1       6.817   4.005  13.655  0.00  0.00    +0.000 OA
ATOM     16  C   UNL     1       5.835   3.519  12.737  0.00  0.00    +0.000 C 
ENDBRANCH  12  15
ENDBRANCH  10  11
ENDBRANCH   9  10
ENDBRANCH   6   8
ENDBRANCH   1   3
BRANCH   1  17
ATOM     17  O   UNL     1       1.658   5.534  20.046  0.00  0.00    +0.000 OA
BRANCH  17  18
ATOM     18  C   UNL     1       1.592   6.794  20.725  0.00  0.00    +0.000 C 
BRANCH  18  24
ATOM     19  N   UNL     1       0.231  11.306  19.683  0.00  0.00    +0.000 N 
ATOM     20  C   UNL     1      -0.298  10.961  20.896  0.00  0.00    +0.000 A 
ATOM     21  C   UNL     1       0.105   9.681  21.184  0.00  0.00    +0.000 A 
ATOM     22 CL   UNL     1      -0.309   8.862  22.618  0.00  0.00    +0.000 Cl
ATOM     23  C   UNL     1       0.908   9.204  20.096  0.00  0.00    +0.000 A 
ATOM     24  C   UNL     1       1.590   7.987  19.797  0.00  0.00    +0.000 A 
ATOM     25  C   UNL     1       2.328   7.917  18.594  0.00  0.00    +0.000 A 
ATOM     26  C   UNL     1       2.371   8.976  17.698  0.00  0.00    +0.000 A 
ATOM     27  C   UNL     1       1.693  10.161  17.967  0.00  0.00    +0.000 A 
ATOM     28  C   UNL     1       0.971  10.258  19.168  0.00  0.00    +0.000 A 
BRANCH  19  29
ATOM     29  C   UNL     1       0.020  12.603  19.049  0.00  0.00    +0.000 C 
BRANCH  29  31
ATOM     30  C   UNL     1      -0.813  14.802  19.944  0.00  0.00    +0.000 C 
ATOM     31  C   UNL     1      -0.902  13.468  19.860  0.00  0.00    +0.000 C 
ENDBRANCH  29  31
ENDBRANCH  19  29
ENDBRANCH  18  24
ENDBRANCH  17  18
ENDBRANCH   1  17
TORSDOF 10
ENDMDL
MODEL 3
REMARK VINA RESULT:      -7.2      1.708      2.553
REMARK  Name = 
REMARK  11 active torsions:
REMARK  status: ('A' for Active; 'I' for Inactive)
REMARK    1  A    between atoms: C_2  and  C_3
REMARK    2  A    between atoms: C_3  and  N_4
REMARK    3  A    between atoms: C_9  and  C_10
REMARK    4  A    between atoms: C_10  and  O_11
REMARK    5  A    between atoms: O_11  and  C_12
REMARK    6  A    between atoms: C_12  and  C_14
REMARK    7  A    between atoms: C_17  and  C_18
REMARK    8  A    between atoms: C_19  and  C_20
REMARK    9  A    between atoms: C_20  and  N_21
REMARK   10  A    between atoms: C_22  and  O_24
REMARK   11  A    between atoms: O_24  and  C_25
REMARK                            x       y       z     vdW  Elec       q    Type
REMARK                         _______ _______ _______ _____ _____    ______ ____
ROOT
ATOM      1  C   UNL     1       1.909   4.474  20.717  0.00  0.00    +0.000 C 
ATOM      2  O   UNL     1       2.287   3.771  21.649  0.00  0.00    +0.000 OA
ENDROOT
BRANCH   1   3
ATOM      3  C   UNL     1       2.232   4.178  19.335  0.00  0.00    +0.000 A 
ATOM      4  C   UNL     1       1.316   3.869  18.361  0.00  0.00    +0.000 A 
ATOM      5  O   UNL     1       1.989   3.566  17.223  0.00  0.00    +0.000 OA
ATOM      6  C   UNL     1       3.326   3.693  17.544  0.00  0.00    +0.000 A 
ATOM      7  N   UNL     1       3.505   4.069  18.802  0.00  0.00    +0.000 NA
BRANCH   6   8
ATOM      8  C   UNL     1       4.354   3.377  16.619  0.00  0.00    +0.000 C 
ATOM      9  C   UNL     1       5.152   4.328  16.100  0.00  0.00    +0.000 C 
BRANCH   9  10
ATOM     10  C   UNL     1       5.063   5.797  16.371  0.00  0.00    +0.000 C 
BRANCH  10  11
ATOM     11  N   UNL     1       5.868   6.135  17.513  0.00  0.00    +0.000 N 
ATOM     12  C   UNL     1       7.163   6.526  17.330  0.00  0.00    +0.000 C 
ATOM     13  O   UNL     1       7.713   6.613  16.244  0.00  0.00    +0.000 OA
ATOM     14  H   UNL     1       5.513   6.110  18.458  0.00  0.00    +0.000 HD
BRANCH  12  15
ATOM     15  O   UNL     1       7.744   6.803  18.524  0.00  0.00    +0.000 OA
ATOM     16  C   UNL     1       7.785   5.668  19.392  0.00  0.00    +0.000 C 
ENDBRANCH  12  15
ENDBRANCH  10  11
ENDBRANCH   9  10
ENDBRANCH   6   8
ENDBRANCH   1   3
BRANCH   1  17
ATOM     17  O   UNL     1       1.250   5.660  20.849  0.00  0.00    +0.000 OA
BRANCH  17  18
ATOM     18  C   UNL     1       1.911   6.768  20.226  0.00  0.00    +0.000 C 
BRANCH  18  24
ATOM     19  N   UNL     1       0.977  11.363  19.080  0.00  0.00    +0.000 N 
ATOM     20  C   UNL     1       1.698  10.799  18.063  0.00  0.00    +0.000 A 
ATOM     21  C   UNL     1       1.947   9.491  18.398  0.00  0.00    +0.000 A 
ATOM     22 CL   UNL     1       2.800   8.409  17.398  0.00  0.00    +0.000 Cl
ATOM     23  C   UNL     1       1.369   9.235  19.685  0.00  0.00    +0.000 A 
ATOM     24  C   UNL     1       1.296   8.109  20.558  0.00  0.00    +0.000 A 
ATOM     25  C   UNL     1       0.579   8.251  21.767  0.00  0.00    +0.000 A 
ATOM     26  C   UNL     1      -0.012   9.453  22.132  0.00  0.00    +0.000 A 
ATOM     27  C   UNL     1       0.069  10.565  21.300  0.00  0.00    +0.000 A 
ATOM     28  C   UNL     1       0.759  10.437  20.084  0.00  0.00    +0.000 A 
BRANCH  19  29
ATOM     29  C   UNL     1       0.522  12.749  19.075  0.00  0.00    +0.000 C 
BRANCH  29  31
ATOM     30  C   UNL     1       2.401  13.485  20.578  0.00  0.00    +0.000 C 
ATOM     31  C   UNL     1       1.610  13.686  19.516  0.00  0.00    +0.000 C 
ENDBRANCH  29  31
ENDBRANCH  19  29
ENDBRANCH  18  24
ENDBRANCH  17  18
ENDBRANCH   1  17
TORSDOF 10
ENDMDL
MODEL 4
REMARK VINA RESULT:      -7.0      0.827      1.270
REMARK  Name = 
REMARK  11 active torsions:
REMARK  status: ('A' for Active; 'I' for Inactive)
REMARK    1  A    between atoms: C_2  and  C_3
REMARK    2  A    between atoms: C_3  and  N_4
REMARK    3  A    between atoms: C_9  and  C_10
REMARK    4  A    between atoms: C_10  and  O_11
REMARK    5  A    between atoms: O_11  and  C_12
REMARK    6  A    between atoms: C_12  and  C_14
REMARK    7  A    between atoms: C_17  and  C_18
REMARK    8  A    between atoms: C_19  and  C_20
REMARK    9  A    between atoms: C_20  and  N_21
REMARK   10  A    between atoms: C_22  and  O_24
REMARK   11  A    between atoms: O_24  and  C_25
REMARK                            x       y       z     vdW  Elec       q    Type
REMARK                         _______ _______ _______ _____ _____    ______ ____
ROOT
ATOM      1  C   UNL     1       2.265   4.657  20.483  0.00  0.00    +0.000 C 
ATOM      2  O   UNL     1       1.421   3.913  20.970  0.00  0.00    +0.000 OA
ENDROOT
BRANCH   1   3
ATOM      3  C   UNL     1       3.211   4.212  19.478  0.00  0.00    +0.000 A 
ATOM      4  C   UNL     1       4.335   3.466  19.729  0.00  0.00    +0.000 A 
ATOM      5  O   UNL     1       5.018   3.321  18.566  0.00  0.00    +0.000 OA
ATOM      6  C   UNL     1       4.281   4.004  17.620  0.00  0.00    +0.000 A 
ATOM      7  N   UNL     1       3.184   4.542  18.133  0.00  0.00    +0.000 NA
BRANCH   6   8
ATOM      8  C   UNL     1       4.724   4.145  16.279  0.00  0.00    +0.000 C 
ATOM      9  C   UNL     1       5.179   5.319  15.807  0.00  0.00    +0.000 C 
BRANCH   9  10
ATOM     10  C   UNL     1       5.250   6.607  16.567  0.00  0.00    +0.000 C 
BRANCH  10  11
ATOM     11  N   UNL     1       6.108   6.455  17.709  0.00  0.00    +0.000 N 
ATOM     12  C   UNL     1       7.401   6.888  17.640  0.00  0.00    +0.000 C 
ATOM     13  O   UNL     1       7.906   7.407  16.657  0.00  0.00    +0.000 OA
ATOM     14  H   UNL     1       5.794   6.050  18.579  0.00  0.00    +0.000 HD
BRANCH  12  15
ATOM     15  O   UNL     1       8.037   6.660  18.815  0.00  0.00    +0.000 OA
ATOM     16  C   UNL     1       7.540   5.505  19.495  0.00  0.00    +0.000 C 
ENDBRANCH  12  15
ENDBRANCH  10  11
ENDBRANCH   9  10
ENDBRANCH   6   8
ENDBRANCH   1   3
BRANCH   1  17
ATOM     17  O   UNL     1       2.505   5.938  20.885  0.00  0.00    +0.000 OA
BRANCH  17  18
ATOM     18  C   UNL     1       1.355   6.791  20.835  0.00  0.00    +0.000 C 
BRANCH  18  24
ATOM     19  N   UNL     1       0.433  11.360  19.581  0.00  0.00    +0.000 N 
ATOM     20  C   UNL     1      -0.173  11.107  20.782  0.00  0.00    +0.000 A 
ATOM     21  C   UNL     1       0.106   9.809  21.130  0.00  0.00    +0.000 A 
ATOM     22 CL   UNL     1      -0.435   9.083  22.572  0.00  0.00    +0.000 Cl
ATOM     23  C   UNL     1       0.908   9.225  20.095  0.00  0.00    +0.000 A 
ATOM     24  C   UNL     1       1.494   7.944  19.867  0.00  0.00    +0.000 A 
ATOM     25  C   UNL     1       2.271   7.767  18.701  0.00  0.00    +0.000 A 
ATOM     26  C   UNL     1       2.441   8.783  17.772  0.00  0.00    +0.000 A 
ATOM     27  C   UNL     1       1.858  10.031  17.971  0.00  0.00    +0.000 A 
ATOM     28  C   UNL     1       1.100  10.234  19.135  0.00  0.00    +0.000 A 
BRANCH  19  29
ATOM     29  C   UNL     1       0.360  12.645  18.895  0.00  0.00    +0.000 C 
BRANCH  29  31
ATOM     30  C   UNL     1       2.581  13.706  19.419  0.00  0.00    +0.000 C 
ATOM     31  C   UNL     1       1.248  13.667  19.546  0.00  0.00    +0.000 C 
ENDBRANCH  29  31
ENDBRANCH  19  29
ENDBRANCH  18  24
ENDBRANCH  17  18
ENDBRANCH   1  17
TORSDOF 10
ENDMDL
MODEL 5
REMARK VINA RESULT:      -7.0      1.068      1.567
REMARK  Name = 
REMARK  11 active torsions:
REMARK  status: ('A' for Active; 'I' for Inactive)
REMARK    1  A    between atoms: C_2  and  C_3
REMARK    2  A    between atoms: C_3  and  N_4
REMARK    3  A    between atoms: C_9  and  C_10
REMARK    4  A    between atoms: C_10  and  O_11
REMARK    5  A    between atoms: O_11  and  C_12
REMARK    6  A    between atoms: C_12  and  C_14
REMARK    7  A    between atoms: C_17  and  C_18
REMARK    8  A    between atoms: C_19  and  C_20
REMARK    9  A    between atoms: C_20  and  N_21
REMARK   10  A    between atoms: C_22  and  O_24
REMARK   11  A    between atoms: O_24  and  C_25
REMARK                            x       y       z     vdW  Elec       q    Type
REMARK                         _______ _______ _______ _____ _____    ______ ____
ROOT
ATOM      1  C   UNL     1       1.895   4.158  20.847  0.00  0.00    +0.000 C 
ATOM      2  O   UNL     1       2.131   3.699  21.959  0.00  0.00    +0.000 OA
ENDROOT
BRANCH   1   3
ATOM      3  C   UNL     1       2.493   3.623  19.639  0.00  0.00    +0.000 A 
ATOM      4  C   UNL     1       2.646   2.288  19.360  0.00  0.00    +0.000 A 
ATOM      5  O   UNL     1       3.322   2.173  18.189  0.00  0.00    +0.000 OA
ATOM      6  C   UNL     1       3.574   3.467  17.783  0.00  0.00    +0.000 A 
ATOM      7  N   UNL     1       3.080   4.362  18.626  0.00  0.00    +0.000 NA
BRANCH   6   8
ATOM      8  C   UNL     1       4.340   3.755  16.623  0.00  0.00    +0.000 C 
ATOM      9  C   UNL     1       5.277   4.720  16.619  0.00  0.00    +0.000 C 
BRANCH   9  10
ATOM     10  C   UNL     1       5.617   5.623  17.763  0.00  0.00    +0.000 C 
BRANCH  10  11
ATOM     11  N   UNL     1       6.243   6.821  17.274  0.00  0.00    +0.000 N 
ATOM     12  C   UNL     1       7.471   7.179  17.749  0.00  0.00    +0.000 C 
ATOM     13  O   UNL     1       8.102   6.549  18.583  0.00  0.00    +0.000 OA
ATOM     14  H   UNL     1       5.818   7.414  16.576  0.00  0.00    +0.000 HD
BRANCH  12  15
ATOM     15  O   UNL     1       7.886   8.329  17.162  0.00  0.00    +0.000 OA
ATOM     16  C   UNL     1       8.345   9.296  18.109  0.00  0.00    +0.000 C 
ENDBRANCH  12  15
ENDBRANCH  10  11
ENDBRANCH   9  10
ENDBRANCH   6   8
ENDBRANCH   1   3
BRANCH   1  17
ATOM     17  O   UNL     1       1.152   5.275  20.603  0.00  0.00    +0.000 OA
BRANCH  17  18
ATOM     18  C   UNL     1       1.779   6.496  21.014  0.00  0.00    +0.000 C 
BRANCH  18  24
ATOM     19  N   UNL     1       0.297  10.826  19.481  0.00  0.00    +0.000 N 
ATOM     20  C   UNL     1      -0.232  10.599  20.722  0.00  0.00    +0.000 A 
ATOM     21  C   UNL     1       0.205   9.370  21.149  0.00  0.00    +0.000 A 
ATOM     22 CL   UNL     1      -0.196   8.700  22.662  0.00  0.00    +0.000 Cl
ATOM     23  C   UNL     1       1.030   8.802  20.123  0.00  0.00    +0.000 A 
ATOM     24  C   UNL     1       1.750   7.581  19.961  0.00  0.00    +0.000 A 
ATOM     25  C   UNL     1       2.500   7.403  18.778  0.00  0.00    +0.000 A 
ATOM     26  C   UNL     1       2.519   8.359  17.771  0.00  0.00    +0.000 A 
ATOM     27  C   UNL     1       1.805   9.546  17.907  0.00  0.00    +0.000 A 
ATOM     28  C   UNL     1       1.071   9.750  19.087  0.00  0.00    +0.000 A 
BRANCH  19  29
ATOM     29  C   UNL     1       0.053  12.040  18.709  0.00  0.00    +0.000 C 
BRANCH  29  31
ATOM     30  C   UNL     1       1.038  14.248  19.406  0.00  0.00    +0.000 C 
ATOM     31  C   UNL     1       1.173  13.027  18.869  0.00  0.00    +0.000 C 
ENDBRANCH  29  31
ENDBRANCH  19  29
ENDBRANCH  18  24
ENDBRANCH  17  18
ENDBRANCH   1  17
TORSDOF 10
ENDMDL
MODEL 6
REMARK VINA RESULT:      -6.9      1.378      1.818
REMARK  Name = 
REMARK  11 active torsions:
REMARK  status: ('A' for Active; 'I' for Inactive)
REMARK    1  A    between atoms: C_2  and  C_3
REMARK    2  A    between atoms: C_3  and  N_4
REMARK    3  A    between atoms: C_9  and  C_10
REMARK    4  A    between atoms: C_10  and  O_11
REMARK    5  A    between atoms: O_11  and  C_12
REMARK    6  A    between atoms: C_12  and  C_14
REMARK    7  A    between atoms: C_17  and  C_18
REMARK    8  A    between atoms: C_19  and  C_20
REMARK    9  A    between atoms: C_20  and  N_21
REMARK   10  A    between atoms: C_22  and  O_24
REMARK   11  A    between atoms: O_24  and  C_25
REMARK                            x       y       z     vdW  Elec       q    Type
REMARK                         _______ _______ _______ _____ _____    ______ ____
ROOT
ATOM      1  C   UNL     1       2.239   4.809  20.248  0.00  0.00    +0.000 C 
ATOM      2  O   UNL     1       1.525   4.240  21.066  0.00  0.00    +0.000 OA
ENDROOT
BRANCH   1   3
ATOM      3  C   UNL     1       2.874   4.111  19.147  0.00  0.00    +0.000 A 
ATOM      4  C   UNL     1       3.061   2.753  19.078  0.00  0.00    +0.000 A 
ATOM      5  O   UNL     1       3.765   2.477  17.952  0.00  0.00    +0.000 OA
ATOM      6  C   UNL     1       4.001   3.700  17.358  0.00  0.00    +0.000 A 
ATOM      7  N   UNL     1       3.470   4.701  18.045  0.00  0.00    +0.000 NA
BRANCH   6   8
ATOM      8  C   UNL     1       4.788   3.827  16.183  0.00  0.00    +0.000 C 
ATOM      9  C   UNL     1       6.070   4.232  16.233  0.00  0.00    +0.000 C 
BRANCH   9  10
ATOM     10  C   UNL     1       6.820   4.630  17.465  0.00  0.00    +0.000 C 
BRANCH  10  11
ATOM     11  N   UNL     1       7.546   5.847  17.226  0.00  0.00    +0.000 N 
ATOM     12  C   UNL     1       6.875   7.036  17.211  0.00  0.00    +0.000 C 
ATOM     13  O   UNL     1       5.673   7.156  17.386  0.00  0.00    +0.000 OA
ATOM     14  H   UNL     1       8.544   5.869  17.080  0.00  0.00    +0.000 HD
BRANCH  12  15
ATOM     15  O   UNL     1       7.735   8.058  16.975  0.00  0.00    +0.000 OA
ATOM     16  C   UNL     1       8.282   8.605  18.177  0.00  0.00    +0.000 C 
ENDBRANCH  12  15
ENDBRANCH  10  11
ENDBRANCH   9  10
ENDBRANCH   6   8
ENDBRANCH   1   3
BRANCH   1  17
ATOM     17  O   UNL     1       2.621   6.116  20.317  0.00  0.00    +0.000 OA
BRANCH  17  18
ATOM     18  C   UNL     1       1.571   7.012  20.701  0.00  0.00    +0.000 C 
BRANCH  18  24
ATOM     19  N   UNL     1       0.333  11.649  20.187  0.00  0.00    +0.000 N 
ATOM     20  C   UNL     1      -0.055  11.231  21.430  0.00  0.00    +0.000 A 
ATOM     21  C   UNL     1       0.312   9.915  21.566  0.00  0.00    +0.000 A 
ATOM     22 CL   UNL     1       0.042   9.001  22.978  0.00  0.00    +0.000 Cl
ATOM     23  C   UNL     1       0.942   9.493  20.349  0.00  0.00    +0.000 A 
ATOM     24  C   UNL     1       1.514   8.276  19.873  0.00  0.00    +0.000 A 
ATOM     25  C   UNL     1       2.088   8.271  18.582  0.00  0.00    +0.000 A 
ATOM     26  C   UNL     1       2.072   9.396  17.769  0.00  0.00    +0.000 A 
ATOM     27  C   UNL     1       1.500  10.584  18.213  0.00  0.00    +0.000 A 
ATOM     28  C   UNL     1       0.944  10.614  19.502  0.00  0.00    +0.000 A 
BRANCH  19  29
ATOM     29  C   UNL     1       0.113  13.001  19.685  0.00  0.00    +0.000 C 
BRANCH  29  31
ATOM     30  C   UNL     1       2.467  13.808  20.054  0.00  0.00    +0.000 C 
ATOM     31  C   UNL     1       1.145  13.957  20.210  0.00  0.00    +0.000 C 
ENDBRANCH  29  31
ENDBRANCH  19  29
ENDBRANCH  18  24
ENDBRANCH  17  18
ENDBRANCH   1  17
TORSDOF 10
ENDMDL
MODEL 7
REMARK VINA RESULT:      -6.9      1.426      2.098
REMARK  Name = 
REMARK  11 active torsions:
REMARK  status: ('A' for Active; 'I' for Inactive)
REMARK    1  A    between atoms: C_2  and  C_3
REMARK    2  A    between atoms: C_3  and  N_4
REMARK    3  A    between atoms: C_9  and  C_10
REMARK    4  A    between atoms: C_10  and  O_11
REMARK    5  A    between atoms: O_11  and  C_12
REMARK    6  A    between atoms: C_12  and  C_14
REMARK    7  A    between atoms: C_17  and  C_18
REMARK    8  A    between atoms: C_19  and  C_20
REMARK    9  A    between atoms: C_20  and  N_21
REMARK   10  A    between atoms: C_22  and  O_24
REMARK   11  A    between atoms: O_24  and  C_25
REMARK                            x       y       z     vdW  Elec       q    Type
REMARK                         _______ _______ _______ _____ _____    ______ ____
ROOT
ATOM      1  C   UNL     1       2.056   4.209  19.797  0.00  0.00    +0.000 C 
ATOM      2  O   UNL     1       1.732   3.344  20.603  0.00  0.00    +0.000 OA
ENDROOT
BRANCH   1   3
ATOM      3  C   UNL     1       3.189   4.060  18.904  0.00  0.00    +0.000 A 
ATOM      4  C   UNL     1       4.494   3.921  19.305  0.00  0.00    +0.000 A 
ATOM      5  O   UNL     1       5.279   3.899  18.199  0.00  0.00    +0.000 OA
ATOM      6  C   UNL     1       4.413   4.037  17.133  0.00  0.00    +0.000 A 
ATOM      7  N   UNL     1       3.150   4.126  17.522  0.00  0.00    +0.000 NA
BRANCH   6   8
ATOM      8  C   UNL     1       4.878   4.138  15.796  0.00  0.00    +0.000 C 
ATOM      9  C   UNL     1       5.510   5.239  15.350  0.00  0.00    +0.000 C 
BRANCH   9  10
ATOM     10  C   UNL     1       5.776   6.482  16.139  0.00  0.00    +0.000 C 
BRANCH  10  11
ATOM     11  N   UNL     1       6.761   6.219  17.152  0.00  0.00    +0.000 N 
ATOM     12  C   UNL     1       7.474   7.256  17.680  0.00  0.00    +0.000 C 
ATOM     13  O   UNL     1       7.344   8.425  17.352  0.00  0.00    +0.000 OA
ATOM     14  H   UNL     1       6.944   5.293  17.508  0.00  0.00    +0.000 HD
BRANCH  12  15
ATOM     15  O   UNL     1       8.342   6.801  18.617  0.00  0.00    +0.000 OA
ATOM     16  C   UNL     1       7.757   5.824  19.481  0.00  0.00    +0.000 C 
ENDBRANCH  12  15
ENDBRANCH  10  11
ENDBRANCH   9  10
ENDBRANCH   6   8
ENDBRANCH   1   3
BRANCH   1  17
ATOM     17  O   UNL     1       1.487   5.445  19.704  0.00  0.00    +0.000 OA
BRANCH  17  18
ATOM     18  C   UNL     1       2.220   6.478  20.373  0.00  0.00    +0.000 C 
BRANCH  18  24
ATOM     19  N   UNL     1       0.758  10.823  18.864  0.00  0.00    +0.000 N 
ATOM     20  C   UNL     1       1.585  10.289  17.914  0.00  0.00    +0.000 A 
ATOM     21  C   UNL     1       1.985   9.050  18.352  0.00  0.00    +0.000 A 
ATOM     22 CL   UNL     1       3.007   8.020  17.461  0.00  0.00    +0.000 Cl
ATOM     23  C   UNL     1       1.392   8.811  19.635  0.00  0.00    +0.000 A 
ATOM     24  C   UNL     1       1.427   7.748  20.586  0.00  0.00    +0.000 A 
ATOM     25  C   UNL     1       0.651   7.879  21.759  0.00  0.00    +0.000 A 
ATOM     26  C   UNL     1      -0.101   9.017  22.017  0.00  0.00    +0.000 A 
ATOM     27  C   UNL     1      -0.129  10.070  21.108  0.00  0.00    +0.000 A 
ATOM     28  C   UNL     1       0.619   9.949  19.926  0.00  0.00    +0.000 A 
BRANCH  19  29
ATOM     29  C   UNL     1       0.133  12.136  18.743  0.00  0.00    +0.000 C 
BRANCH  29  31
ATOM     30  C   UNL     1      -2.377  12.103  18.920  0.00  0.00    +0.000 C 
ATOM     31  C   UNL     1      -1.258  12.033  18.186  0.00  0.00    +0.000 C 
ENDBRANCH  29  31
ENDBRANCH  19  29
ENDBRANCH  18  24
ENDBRANCH  17  18
ENDBRANCH   1  17
TORSDOF 10
ENDMDL
MODEL 8
REMARK VINA RESULT:      -6.8      2.750      4.257
REMARK  Name = 
REMARK  11 active torsions:
REMARK  status: ('A' for Active; 'I' for Inactive)
REMARK    1  A    between atoms: C_2  and  C_3
REMARK    2  A    between atoms: C_3  and  N_4
REMARK    3  A    between atoms: C_9  and  C_10
REMARK    4  A    between atoms: C_10  and  O_11
REMARK    5  A    between atoms: O_11  and  C_12
REMARK    6  A    between atoms: C_12  and  C_14
REMARK    7  A    between atoms: C_17  and  C_18
REMARK    8  A    between atoms: C_19  and  C_20
REMARK    9  A    between atoms: C_20  and  N_21
REMARK   10  A    between atoms: C_22  and  O_24
REMARK   11  A    between atoms: O_24  and  C_25
REMARK                            x       y       z     vdW  Elec       q    Type
REMARK                         _______ _______ _______ _____ _____    ______ ____
ROOT
ATOM      1  C   UNL     1       1.984   8.679  17.896  0.00  0.00    +0.000 C 
ATOM      2  O   UNL     1       2.890   9.330  17.387  0.00  0.00    +0.000 OA
ENDROOT
BRANCH   1   3
ATOM      3  C   UNL     1       2.208   7.397  18.536  0.00  0.00    +0.000 A 
ATOM      4  C   UNL     1       2.165   7.175  19.890  0.00  0.00    +0.000 A 
ATOM      5  O   UNL     1       2.512   5.884  20.121  0.00  0.00    +0.000 OA
ATOM      6  C   UNL     1       2.771   5.346  18.877  0.00  0.00    +0.000 A 
ATOM      7  N   UNL     1       2.587   6.226  17.903  0.00  0.00    +0.000 NA
BRANCH   6   8
ATOM      8  C   UNL     1       3.244   4.018  18.715  0.00  0.00    +0.000 C 
ATOM      9  C   UNL     1       4.558   3.745  18.615  0.00  0.00    +0.000 C 
BRANCH   9  10
ATOM     10  C   UNL     1       5.669   4.748  18.617  0.00  0.00    +0.000 C 
BRANCH  10  11
ATOM     11  N   UNL     1       6.141   4.960  17.277  0.00  0.00    +0.000 N 
ATOM     12  C   UNL     1       7.422   4.617  16.954  0.00  0.00    +0.000 C 
ATOM     13  O   UNL     1       8.227   4.132  17.734  0.00  0.00    +0.000 OA
ATOM     14  H   UNL     1       5.559   5.345  16.547  0.00  0.00    +0.000 HD
BRANCH  12  15
ATOM     15  O   UNL     1       7.668   4.891  15.649  0.00  0.00    +0.000 OA
ATOM     16  C   UNL     1       6.670   4.356  14.777  0.00  0.00    +0.000 C 
ENDBRANCH  12  15
ENDBRANCH  10  11
ENDBRANCH   9  10
ENDBRANCH   6   8
ENDBRANCH   1   3
BRANCH   1  17
ATOM     17  O   UNL     1       0.660   8.999  17.835  0.00  0.00    +0.000 OA
BRANCH  17  18
ATOM     18  C   UNL     1       0.288  10.109  18.661  0.00  0.00    +0.000 C 
BRANCH  18  24
ATOM     19  N   UNL     1      -3.487  12.792  20.018  0.00  0.00    +0.000 N 
ATOM     20  C   UNL     1      -2.441  13.056  20.860  0.00  0.00    +0.000 A 
ATOM     21  C   UNL     1      -1.373  12.294  20.456  0.00  0.00    +0.000 A 
ATOM     22 CL   UNL     1       0.151  12.330  21.216  0.00  0.00    +0.000 Cl
ATOM     23  C   UNL     1      -1.776  11.513  19.324  0.00  0.00    +0.000 A 
ATOM     24  C   UNL     1      -1.148  10.547  18.482  0.00  0.00    +0.000 A 
ATOM     25  C   UNL     1      -1.896  10.012  17.411  0.00  0.00    +0.000 A 
ATOM     26  C   UNL     1      -3.218  10.372  17.188  0.00  0.00    +0.000 A 
ATOM     27  C   UNL     1      -3.850  11.297  18.013  0.00  0.00    +0.000 A 
ATOM     28  C   UNL     1      -3.116  11.857  19.071  0.00  0.00    +0.000 A 
BRANCH  19  29
ATOM     29  C   UNL     1      -4.796  13.425  20.136  0.00  0.00    +0.000 C 
BRANCH  29  31
ATOM     30  C   UNL     1      -5.734  12.808  22.388  0.00  0.00    +0.000 C 
ATOM     31  C   UNL     1      -5.698  12.654  21.058  0.00  0.00    +0.000 C 
ENDBRANCH  29  31
ENDBRANCH  19  29
ENDBRANCH  18  24
ENDBRANCH  17  18
ENDBRANCH   1  17
TORSDOF 10
ENDMDL
MODEL 9
REMARK VINA RESULT:      -6.8      2.655      4.336
REMARK  Name = 
REMARK  11 active torsions:
REMARK  status: ('A' for Active; 'I' for Inactive)
REMARK    1  A    between atoms: C_2  and  C_3
REMARK    2  A    between atoms: C_3  and  N_4
REMARK    3  A    between atoms: C_9  and  C_10
REMARK    4  A    between atoms: C_10  and  O_11
REMARK    5  A    between atoms: O_11  and  C_12
REMARK    6  A    between atoms: C_12  and  C_14
REMARK    7  A    between atoms: C_17  and  C_18
REMARK    8  A    between atoms: C_19  and  C_20
REMARK    9  A    between atoms: C_20  and  N_21
REMARK   10  A    between atoms: C_22  and  O_24
REMARK   11  A    between atoms: O_24  and  C_25
REMARK                            x       y       z     vdW  Elec       q    Type
REMARK                         _______ _______ _______ _____ _____    ______ ____
ROOT
ATOM      1  C   UNL     1       2.380   7.981  18.352  0.00  0.00    +0.000 C 
ATOM      2  O   UNL     1       2.619   8.378  17.217  0.00  0.00    +0.000 OA
ENDROOT
BRANCH   1   3
ATOM      3  C   UNL     1       2.252   6.573  18.676  0.00  0.00    +0.000 A 
ATOM      4  C   UNL     1       1.672   5.628  17.868  0.00  0.00    +0.000 A 
ATOM      5  O   UNL     1       1.653   4.448  18.537  0.00  0.00    +0.000 OA
ATOM      6  C   UNL     1       2.224   4.715  19.765  0.00  0.00    +0.000 A 
ATOM      7  N   UNL     1       2.605   5.979  19.876  0.00  0.00    +0.000 NA
BRANCH   6   8
ATOM      8  C   UNL     1       2.309   3.731  20.784  0.00  0.00    +0.000 C 
ATOM      9  C   UNL     1       3.129   2.670  20.673  0.00  0.00    +0.000 C 
BRANCH   9  10
ATOM     10  C   UNL     1       4.008   2.354  19.504  0.00  0.00    +0.000 C 
BRANCH  10  11
ATOM     11  N   UNL     1       5.210   3.140  19.567  0.00  0.00    +0.000 N 
ATOM     12  C   UNL     1       5.511   3.990  18.542  0.00  0.00    +0.000 C 
ATOM     13  O   UNL     1       4.825   4.142  17.543  0.00  0.00    +0.000 OA
ATOM     14  H   UNL     1       5.846   3.104  20.350  0.00  0.00    +0.000 HD
BRANCH  12  15
ATOM     15  O   UNL     1       6.675   4.637  18.794  0.00  0.00    +0.000 OA
ATOM     16  C   UNL     1       7.564   4.628  17.675  0.00  0.00    +0.000 C 
ENDBRANCH  12  15
ENDBRANCH  10  11
ENDBRANCH   9  10
ENDBRANCH   6   8
ENDBRANCH   1   3
BRANCH   1  17
ATOM     17  O   UNL     1       2.096   8.782  19.418  0.00  0.00    +0.000 OA
BRANCH  17  18
ATOM     18  C   UNL     1       0.853   9.486  19.305  0.00  0.00    +0.000 C 
BRANCH  18  24
ATOM     19  N   UNL     1      -1.956  12.366  21.972  0.00  0.00    +0.000 N 
ATOM     20  C   UNL     1      -1.972  12.817  20.680  0.00  0.00    +0.000 A 
ATOM     21  C   UNL     1      -1.178  11.984  19.933  0.00  0.00    +0.000 A 
ATOM     22 CL   UNL     1      -0.934  12.167  18.257  0.00  0.00    +0.000 Cl
ATOM     23  C   UNL     1      -0.633  10.980  20.799  0.00  0.00    +0.000 A 
ATOM     24  C   UNL     1       0.246   9.868  20.636  0.00  0.00    +0.000 A 
ATOM     25  C   UNL     1       0.523   9.068  21.766  0.00  0.00    +0.000 A 
ATOM     26  C   UNL     1      -0.003   9.360  23.018  0.00  0.00    +0.000 A 
ATOM     27  C   UNL     1      -0.845  10.453  23.195  0.00  0.00    +0.000 A 
ATOM     28  C   UNL     1      -1.150  11.248  22.079  0.00  0.00    +0.000 A 
BRANCH  19  29
ATOM     29  C   UNL     1      -2.694  13.002  23.058  0.00  0.00    +0.000 C 
BRANCH  29  31
ATOM     30  C   UNL     1      -1.873  15.321  23.585  0.00  0.00    +0.000 C 
ATOM     31  C   UNL     1      -1.842  13.997  23.792  0.00  0.00    +0.000 C 
ENDBRANCH  29  31
ENDBRANCH  19  29
ENDBRANCH  18  24
ENDBRANCH  17  18
ENDBRANCH   1  17
TORSDOF 10
ENDMDL
