MODEL 1
REMARK VINA RESULT:      -8.0      0.000      0.000
REMARK  Name = 
REMARK  9 active torsions:
REMARK  status: ('A' for Active; 'I' for Inactive)
REMARK    1  A    between atoms: C_1  and  O_2
REMARK    2  A    between atoms: O_2  and  C_3
REMARK    3  A    between atoms: C_6  and  O_7
REMARK    4  A    between atoms: O_7  and  C_8
REMARK    5  A    between atoms: C_9  and  C_10
REMARK    6  A    between atoms: C_18  and  C_19
REMARK    7  A    between atoms: C_21  and  C_23
REMARK    8  A    between atoms: C_26  and  O_27
REMARK    9  A    between atoms: C_29  and  O_30
REMARK                            x       y       z     vdW  Elec       q    Type
REMARK                         _______ _______ _______ _____ _____    ______ ____
ROOT
ATOM      1  C   UNL     1       1.678   7.604  20.216  0.00  0.00    +0.000 A 
ATOM      2  C   UNL     1       0.708   7.376  21.115  0.00  0.00    +0.000 A 
ATOM      3  C   UNL     1      -0.410   8.371  21.231  0.00  0.00    +0.000 A 
ATOM      4  C   UNL     1      -0.438   9.806  20.870  0.00  0.00    +0.000 A 
ATOM      5  C   UNL     1       0.670   9.683  20.080  0.00  0.00    +0.000 A 
ATOM      6  C   UNL     1       1.647   8.803  19.694  0.00  0.00    +0.000 A 
ATOM      7  C   UNL     1       0.831  10.874  19.356  0.00  0.00    +0.000 C 
ATOM      8  C   UNL     1       1.791  11.394  18.655  0.00  0.00    +0.000 C 
ATOM      9  C   UNL     1       0.742  12.524  19.035  0.00  0.00    +0.000 C 
ATOM     10  C   UNL     1       2.273  13.047  17.902  0.00  0.00    +0.000 C 
ATOM     11  N   UNL     1      -0.421  11.620  20.394  0.00  0.00    +0.000 N 
ATOM     12  C   UNL     1      -1.407  11.945  21.265  0.00  0.00    +0.000 C 
ATOM     13  O   UNL     1      -1.141  13.094  20.713  0.00  0.00    +0.000 OA
ENDROOT
BRANCH   1  18
ATOM     14  C   UNL     1       4.096   6.497  17.721  0.00  0.00    +0.000 A 
ATOM     15  C   UNL     1       4.441   5.242  18.203  0.00  0.00    +0.000 A 
ATOM     16  C   UNL     1       3.740   4.681  19.291  0.00  0.00    +0.000 A 
ATOM     17  C   UNL     1       2.844   5.430  20.051  0.00  0.00    +0.000 A 
ATOM     18  C   UNL     1       2.573   6.715  19.586  0.00  0.00    +0.000 A 
ATOM     19  C   UNL     1       3.147   7.209  18.408  0.00  0.00    +0.000 A 
BRANCH  14  21
ATOM     20  C   UNL     1       5.281   5.941  15.757  0.00  0.00    +0.000 C 
ATOM     21  O   UNL     1       4.625   6.941  16.544  0.00  0.00    +0.000 OA
ENDBRANCH  14  21
BRANCH  17  22
ATOM     22  O   UNL     1       2.381   4.818  21.199  0.00  0.00    +0.000 OA
ATOM     23  C   UNL     1       1.680   3.584  21.080  0.00  0.00    +0.000 C 
ENDBRANCH  17  22
ENDBRANCH   1  18
BRANCH  12  24
ATOM     24  C   UNL     1      -2.544  12.513  21.937  0.00  0.00    +0.000 A 
ATOM     25  C   UNL     1      -2.470  12.412  23.332  0.00  0.00    +0.000 A 
ATOM     26  C   UNL     1      -3.605  12.479  24.101  0.00  0.00    +0.000 A 
ATOM     27  C   UNL     1      -4.757  12.993  23.552  0.00  0.00    +0.000 A 
ATOM     28  C   UNL     1      -4.832  13.226  22.171  0.00  0.00    +0.000 A 
ATOM     29  C   UNL     1      -3.721  12.997  21.345  0.00  0.00    +0.000 A 
BRANCH  27  30
ATOM     30  O   UNL     1      -5.817  13.327  24.350  0.00  0.00    +0.000 OA
ATOM     31  H   UNL     1      -6.668  13.278  23.873  0.00  0.00    +0.000 HD
ENDBRANCH  27  30
BRANCH  29  32
ATOM     32  O   UNL     1      -3.770  13.245  19.998  0.00  0.00    +0.000 OA
ATOM     33  H   UNL     1      -3.081  12.752  19.515  0.00  0.00    +0.000 HD
ENDBRANCH  29  32
ENDBRANCH  12  24
TORSDOF 6
ENDMDL
MODEL 2
REMARK VINA RESULT:      -8.0      1.073      1.433
REMARK  Name = 
REMARK  9 active torsions:
REMARK  status: ('A' for Active; 'I' for Inactive)
REMARK    1  A    between atoms: C_1  and  O_2
REMARK    2  A    between atoms: O_2  and  C_3
REMARK    3  A    between atoms: C_6  and  O_7
REMARK    4  A    between atoms: O_7  and  C_8
REMARK    5  A    between atoms: C_9  and  C_10
REMARK    6  A    between atoms: C_18  and  C_19
REMARK    7  A    between atoms: C_21  and  C_23
REMARK    8  A    between atoms: C_26  and  O_27
REMARK    9  A    between atoms: C_29  and  O_30
REMARK                            x       y       z     vdW  Elec       q    Type
REMARK                         _______ _______ _______ _____ _____    ______ ____
ROOT
ATOM      1  C   UNL     1       1.577   7.770  20.409  0.00  0.00    +0.000 A 
ATOM      2  C   UNL     1       0.770   7.610  21.468  0.00  0.00    +0.000 A 
ATOM      3  C   UNL     1      -0.233   8.684  21.773  0.00  0.00    +0.000 A 
ATOM      4  C   UNL     1      -0.218  10.119  21.412  0.00  0.00    +0.000 A 
ATOM      5  C   UNL     1       0.718   9.919  20.438  0.00  0.00    +0.000 A 
ATOM      6  C   UNL     1       1.543   8.971  19.890  0.00  0.00    +0.000 A 
ATOM      7  C   UNL     1       0.835  11.098  19.687  0.00  0.00    +0.000 C 
ATOM      8  C   UNL     1       1.690  11.550  18.822  0.00  0.00    +0.000 C 
ATOM      9  C   UNL     1       0.813  12.752  19.374  0.00  0.00    +0.000 C 
ATOM     10  C   UNL     1       2.151  13.166  17.982  0.00  0.00    +0.000 C 
ATOM     11  N   UNL     1      -0.153  11.929  20.926  0.00  0.00    +0.000 N 
ATOM     12  C   UNL     1      -0.940  12.322  21.957  0.00  0.00    +0.000 C 
ATOM     13  O   UNL     1      -0.693  13.451  21.357  0.00  0.00    +0.000 OA
ENDROOT
BRANCH   1  18
ATOM     14  C   UNL     1       3.780   6.579  17.756  0.00  0.00    +0.000 A 
ATOM     15  C   UNL     1       3.824   5.218  18.020  0.00  0.00    +0.000 A 
ATOM     16  C   UNL     1       2.980   4.655  19.001  0.00  0.00    +0.000 A 
ATOM     17  C   UNL     1       2.244   5.449  19.877  0.00  0.00    +0.000 A 
ATOM     18  C   UNL     1       2.278   6.820  19.636  0.00  0.00    +0.000 A 
ATOM     19  C   UNL     1       2.987   7.361  18.556  0.00  0.00    +0.000 A 
BRANCH  14  21
ATOM     20  C   UNL     1       5.234   6.138  15.951  0.00  0.00    +0.000 C 
ATOM     21  O   UNL     1       4.434   7.082  16.669  0.00  0.00    +0.000 OA
ENDBRANCH  14  21
BRANCH  17  22
ATOM     22  O   UNL     1       1.618   4.775  20.907  0.00  0.00    +0.000 OA
ATOM     23  C   UNL     1       2.208   3.574  21.397  0.00  0.00    +0.000 C 
ENDBRANCH  17  22
ENDBRANCH   1  18
BRANCH  12  24
ATOM     24  C   UNL     1      -1.894  12.970  22.817  0.00  0.00    +0.000 A 
ATOM     25  C   UNL     1      -3.176  12.412  22.739  0.00  0.00    +0.000 A 
ATOM     26  C   UNL     1      -4.279  13.136  23.117  0.00  0.00    +0.000 A 
ATOM     27  C   UNL     1      -4.110  14.260  23.894  0.00  0.00    +0.000 A 
ATOM     28  C   UNL     1      -2.825  14.783  24.099  0.00  0.00    +0.000 A 
ATOM     29  C   UNL     1      -1.696  14.138  23.569  0.00  0.00    +0.000 A 
BRANCH  27  30
ATOM     30  O   UNL     1      -5.182  14.845  24.511  0.00  0.00    +0.000 OA
ATOM     31  H   UNL     1      -5.438  15.687  24.086  0.00  0.00    +0.000 HD
ENDBRANCH  27  30
BRANCH  29  32
ATOM     32  O   UNL     1      -0.431  14.621  23.784  0.00  0.00    +0.000 OA
ATOM     33  H   UNL     1       0.235  14.127  23.272  0.00  0.00    +0.000 HD
ENDBRANCH  29  32
ENDBRANCH  12  24
TORSDOF 6
ENDMDL
MODEL 3
REMARK VINA RESULT:      -7.9      1.709      1.927
REMARK  Name = 
REMARK  9 active torsions:
REMARK  status: ('A' for Active; 'I' for Inactive)
REMARK    1  A    between atoms: C_1  and  O_2
REMARK    2  A    between atoms: O_2  and  C_3
REMARK    3  A    between atoms: C_6  and  O_7
REMARK    4  A    between atoms: O_7  and  C_8
REMARK    5  A    between atoms: C_9  and  C_10
REMARK    6  A    between atoms: C_18  and  C_19
REMARK    7  A    between atoms: C_21  and  C_23
REMARK    8  A    between atoms: C_26  and  O_27
REMARK    9  A    between atoms: C_29  and  O_30
REMARK                            x       y       z     vdW  Elec       q    Type
REMARK                         _______ _______ _______ _____ _____    ______ ____
ROOT
ATOM      1  C   UNL     1       1.677   8.319  19.987  0.00  0.00    +0.000 A 
ATOM      2  C   UNL     1       1.766   8.714  21.266  0.00  0.00    +0.000 A 
ATOM      3  C   UNL     1       0.643   9.523  21.846  0.00  0.00    +0.000 A 
ATOM      4  C   UNL     1      -0.357  10.375  21.165  0.00  0.00    +0.000 A 
ATOM      5  C   UNL     1      -0.112   9.787  19.956  0.00  0.00    +0.000 A 
ATOM      6  C   UNL     1       0.704   8.887  19.322  0.00  0.00    +0.000 A 
ATOM      7  C   UNL     1      -1.089  10.221  19.048  0.00  0.00    +0.000 C 
ATOM      8  C   UNL     1      -1.220  10.177  17.757  0.00  0.00    +0.000 C 
ATOM      9  C   UNL     1      -2.215  11.262  18.354  0.00  0.00    +0.000 C 
ATOM     10  C   UNL     1      -2.271  10.948  16.404  0.00  0.00    +0.000 C 
ATOM     11  N   UNL     1      -1.601  11.440  20.253  0.00  0.00    +0.000 N 
ATOM     12  C   UNL     1      -1.833  12.236  21.325  0.00  0.00    +0.000 C 
ATOM     13  O   UNL     1      -2.622  12.752  20.427  0.00  0.00    +0.000 OA
ENDROOT
BRANCH   1  18
ATOM     14  C   UNL     1       3.797   6.724  17.484  0.00  0.00    +0.000 A 
ATOM     15  C   UNL     1       3.723   5.391  17.863  0.00  0.00    +0.000 A 
ATOM     16  C   UNL     1       2.823   4.988  18.872  0.00  0.00    +0.000 A 
ATOM     17  C   UNL     1       2.149   5.913  19.665  0.00  0.00    +0.000 A 
ATOM     18  C   UNL     1       2.301   7.251  19.309  0.00  0.00    +0.000 A 
ATOM     19  C   UNL     1       3.065   7.636  18.200  0.00  0.00    +0.000 A 
BRANCH  14  21
ATOM     20  C   UNL     1       5.334   6.044  15.827  0.00  0.00    +0.000 C 
ATOM     21  O   UNL     1       4.503   7.075  16.370  0.00  0.00    +0.000 OA
ENDBRANCH  14  21
BRANCH  17  22
ATOM     22  O   UNL     1       1.457   5.385  20.738  0.00  0.00    +0.000 OA
ATOM     23  C   UNL     1       1.691   4.027  21.100  0.00  0.00    +0.000 C 
ENDBRANCH  17  22
ENDBRANCH   1  18
BRANCH  12  24
ATOM     24  C   UNL     1      -2.404  13.084  22.336  0.00  0.00    +0.000 A 
ATOM     25  C   UNL     1      -1.474  13.950  22.922  0.00  0.00    +0.000 A 
ATOM     26  C   UNL     1      -1.704  14.493  24.162  0.00  0.00    +0.000 A 
ATOM     27  C   UNL     1      -2.982  14.478  24.673  0.00  0.00    +0.000 A 
ATOM     28  C   UNL     1      -3.979  13.718  24.045  0.00  0.00    +0.000 A 
ATOM     29  C   UNL     1      -3.705  13.016  22.860  0.00  0.00    +0.000 A 
BRANCH  27  30
ATOM     30  O   UNL     1      -3.302  15.239  25.764  0.00  0.00    +0.000 OA
ATOM     31  H   UNL     1      -2.633  15.169  26.472  0.00  0.00    +0.000 HD
ENDBRANCH  27  30
BRANCH  29  32
ATOM     32  O   UNL     1      -4.676  12.291  22.219  0.00  0.00    +0.000 OA
ATOM     33  H   UNL     1      -4.908  11.483  22.714  0.00  0.00    +0.000 HD
ENDBRANCH  29  32
ENDBRANCH  12  24
TORSDOF 6
ENDMDL
MODEL 4
REMARK VINA RESULT:      -7.9      2.660      4.831
REMARK  Name = 
REMARK  9 active torsions:
REMARK  status: ('A' for Active; 'I' for Inactive)
REMARK    1  A    between atoms: C_1  and  O_2
REMARK    2  A    between atoms: O_2  and  C_3
REMARK    3  A    between atoms: C_6  and  O_7
REMARK    4  A    between atoms: O_7  and  C_8
REMARK    5  A    between atoms: C_9  and  C_10
REMARK    6  A    between atoms: C_18  and  C_19
REMARK    7  A    between atoms: C_21  and  C_23
REMARK    8  A    between atoms: C_26  and  O_27
REMARK    9  A    between atoms: C_29  and  O_30
REMARK                            x       y       z     vdW  Elec       q    Type
REMARK                         _______ _______ _______ _____ _____    ______ ____
ROOT
ATOM      1  C   UNL     1       2.316   7.153  18.522  0.00  0.00    +0.000 A 
ATOM      2  C   UNL     1       2.517   7.982  17.486  0.00  0.00    +0.000 A 
ATOM      3  C   UNL     1       2.449   9.461  17.728  0.00  0.00    +0.000 A 
ATOM      4  C   UNL     1       1.752  10.212  18.796  0.00  0.00    +0.000 A 
ATOM      5  C   UNL     1       1.638   9.098  19.578  0.00  0.00    +0.000 A 
ATOM      6  C   UNL     1       1.857   7.745  19.595  0.00  0.00    +0.000 A 
ATOM      7  C   UNL     1       1.185   9.492  20.845  0.00  0.00    +0.000 C 
ATOM      8  C   UNL     1       0.698   8.871  21.876  0.00  0.00    +0.000 C 
ATOM      9  C   UNL     1       0.364  10.419  21.985  0.00  0.00    +0.000 C 
ATOM     10  C   UNL     1      -0.210   9.256  23.475  0.00  0.00    +0.000 C 
ATOM     11  N   UNL     1       0.853  11.115  20.171  0.00  0.00    +0.000 N 
ATOM     12  C   UNL     1       0.728  12.259  19.453  0.00  0.00    +0.000 C 
ATOM     13  O   UNL     1       0.151  12.577  20.577  0.00  0.00    +0.000 OA
ENDROOT
BRANCH   1  18
ATOM     14  C   UNL     1       1.993   3.685  19.605  0.00  0.00    +0.000 A 
ATOM     15  C   UNL     1       3.185   3.139  19.151  0.00  0.00    +0.000 A 
ATOM     16  C   UNL     1       4.191   3.970  18.615  0.00  0.00    +0.000 A 
ATOM     17  C   UNL     1       3.953   5.311  18.321  0.00  0.00    +0.000 A 
ATOM     18  C   UNL     1       2.718   5.816  18.720  0.00  0.00    +0.000 A 
ATOM     19  C   UNL     1       1.785   5.025  19.403  0.00  0.00    +0.000 A 
BRANCH  14  21
ATOM     20  C   UNL     1       1.526   2.607  21.652  0.00  0.00    +0.000 C 
ATOM     21  O   UNL     1       1.119   2.914  20.315  0.00  0.00    +0.000 OA
ENDBRANCH  14  21
BRANCH  17  22
ATOM     22  O   UNL     1       4.956   5.953  17.622  0.00  0.00    +0.000 OA
ATOM     23  C   UNL     1       5.146   5.630  16.247  0.00  0.00    +0.000 C 
ENDBRANCH  17  22
ENDBRANCH   1  18
BRANCH  12  24
ATOM     24  C   UNL     1       0.641  13.622  19.004  0.00  0.00    +0.000 A 
ATOM     25  C   UNL     1       1.873  14.151  18.601  0.00  0.00    +0.000 A 
ATOM     26  C   UNL     1       2.078  15.508  18.571  0.00  0.00    +0.000 A 
ATOM     27  C   UNL     1       0.990  16.350  18.590  0.00  0.00    +0.000 A 
ATOM     28  C   UNL     1      -0.287  15.840  18.870  0.00  0.00    +0.000 A 
ATOM     29  C   UNL     1      -0.480  14.464  19.072  0.00  0.00    +0.000 A 
BRANCH  27  30
ATOM     30  O   UNL     1       1.134  17.677  18.291  0.00  0.00    +0.000 OA
ATOM     31  H   UNL     1       0.910  18.253  19.048  0.00  0.00    +0.000 HD
ENDBRANCH  27  30
BRANCH  29  32
ATOM     32  O   UNL     1      -1.725  13.947  19.319  0.00  0.00    +0.000 OA
ATOM     33  H   UNL     1      -1.735  12.975  19.234  0.00  0.00    +0.000 HD
ENDBRANCH  29  32
ENDBRANCH  12  24
TORSDOF 6
ENDMDL
MODEL 5
REMARK VINA RESULT:      -7.9      1.642      2.020
REMARK  Name = 
REMARK  9 active torsions:
REMARK  status: ('A' for Active; 'I' for Inactive)
REMARK    1  A    between atoms: C_1  and  O_2
REMARK    2  A    between atoms: O_2  and  C_3
REMARK    3  A    between atoms: C_6  and  O_7
REMARK    4  A    between atoms: O_7  and  C_8
REMARK    5  A    between atoms: C_9  and  C_10
REMARK    6  A    between atoms: C_18  and  C_19
REMARK    7  A    between atoms: C_21  and  C_23
REMARK    8  A    between atoms: C_26  and  O_27
REMARK    9  A    between atoms: C_29  and  O_30
REMARK                            x       y       z     vdW  Elec       q    Type
REMARK                         _______ _______ _______ _____ _____    ______ ____
ROOT
ATOM      1  C   UNL     1       1.851   7.781  20.035  0.00  0.00    +0.000 A 
ATOM      2  C   UNL     1       2.019   8.079  21.332  0.00  0.00    +0.000 A 
ATOM      3  C   UNL     1       1.002   8.954  22.004  0.00  0.00    +0.000 A 
ATOM      4  C   UNL     1       0.074   9.945  21.416  0.00  0.00    +0.000 A 
ATOM      5  C   UNL     1       0.221   9.419  20.164  0.00  0.00    +0.000 A 
ATOM      6  C   UNL     1       0.920   8.486  19.444  0.00  0.00    +0.000 A 
ATOM      7  C   UNL     1      -0.734  10.007  19.322  0.00  0.00    +0.000 C 
ATOM      8  C   UNL     1      -0.909  10.063  18.037  0.00  0.00    +0.000 C 
ATOM      9  C   UNL     1      -1.770  11.199  18.737  0.00  0.00    +0.000 C 
ATOM     10  C   UNL     1      -1.917  11.023  16.775  0.00  0.00    +0.000 C 
ATOM     11  N   UNL     1      -1.083  11.188  20.620  0.00  0.00    +0.000 N 
ATOM     12  C   UNL     1      -1.200  11.930  21.748  0.00  0.00    +0.000 C 
ATOM     13  O   UNL     1      -1.959  12.580  20.914  0.00  0.00    +0.000 OA
ENDROOT
BRANCH   1  18
ATOM     14  C   UNL     1       3.837   6.140  17.453  0.00  0.00    +0.000 A 
ATOM     15  C   UNL     1       3.542   4.803  17.681  0.00  0.00    +0.000 A 
ATOM     16  C   UNL     1       2.540   4.443  18.606  0.00  0.00    +0.000 A 
ATOM     17  C   UNL     1       1.971   5.376  19.470  0.00  0.00    +0.000 A 
ATOM     18  C   UNL     1       2.342   6.703  19.269  0.00  0.00    +0.000 A 
ATOM     19  C   UNL     1       3.214   7.076  18.237  0.00  0.00    +0.000 A 
BRANCH  14  21
ATOM     20  C   UNL     1       5.289   5.395  15.748  0.00  0.00    +0.000 C 
ATOM     21  O   UNL     1       4.646   6.488  16.411  0.00  0.00    +0.000 OA
ENDBRANCH  14  21
BRANCH  17  22
ATOM     22  O   UNL     1       1.151   4.855  20.452  0.00  0.00    +0.000 OA
ATOM     23  C   UNL     1       1.083   3.441  20.606  0.00  0.00    +0.000 C 
ENDBRANCH  17  22
ENDBRANCH   1  18
BRANCH  12  24
ATOM     24  C   UNL     1      -1.651  12.760  22.832  0.00  0.00    +0.000 A 
ATOM     25  C   UNL     1      -2.819  12.287  23.443  0.00  0.00    +0.000 A 
ATOM     26  C   UNL     1      -3.627  13.133  24.161  0.00  0.00    +0.000 A 
ATOM     27  C   UNL     1      -3.124  14.344  24.581  0.00  0.00    +0.000 A 
ATOM     28  C   UNL     1      -1.894  14.802  24.086  0.00  0.00    +0.000 A 
ATOM     29  C   UNL     1      -1.135  14.010  23.210  0.00  0.00    +0.000 A 
BRANCH  27  30
ATOM     30  O   UNL     1      -3.792  15.086  25.516  0.00  0.00    +0.000 OA
ATOM     31  H   UNL     1      -3.657  14.746  26.423  0.00  0.00    +0.000 HD
ENDBRANCH  27  30
BRANCH  29  32
ATOM     32  O   UNL     1       0.081  14.432  22.739  0.00  0.00    +0.000 OA
ATOM     33  H   UNL     1       0.709  13.691  22.647  0.00  0.00    +0.000 HD
ENDBRANCH  29  32
ENDBRANCH  12  24
TORSDOF 6
ENDMDL
MODEL 6
REMARK VINA RESULT:      -7.7      1.650      1.861
REMARK  Name = 
REMARK  9 active torsions:
REMARK  status: ('A' for Active; 'I' for Inactive)
REMARK    1  A    between atoms: C_1  and  O_2
REMARK    2  A    between atoms: O_2  and  C_3
REMARK    3  A    between atoms: C_6  and  O_7
REMARK    4  A    between atoms: O_7  and  C_8
REMARK    5  A    between atoms: C_9  and  C_10
REMARK    6  A    between atoms: C_18  and  C_19
REMARK    7  A    between atoms: C_21  and  C_23
REMARK    8  A    between atoms: C_26  and  O_27
REMARK    9  A    between atoms: C_29  and  O_30
REMARK                            x       y       z     vdW  Elec       q    Type
REMARK                         _______ _______ _______ _____ _____    ______ ____
ROOT
ATOM      1  C   UNL     1       1.678   8.445  19.828  0.00  0.00    +0.000 A 
ATOM      2  C   UNL     1       1.758   8.921  21.080  0.00  0.00    +0.000 A 
ATOM      3  C   UNL     1       0.604   9.715  21.619  0.00  0.00    +0.000 A 
ATOM      4  C   UNL     1      -0.435  10.481  20.895  0.00  0.00    +0.000 A 
ATOM      5  C   UNL     1      -0.172   9.831  19.723  0.00  0.00    +0.000 A 
ATOM      6  C   UNL     1       0.677   8.928  19.138  0.00  0.00    +0.000 A 
ATOM      7  C   UNL     1      -1.172  10.166  18.797  0.00  0.00    +0.000 C 
ATOM      8  C   UNL     1      -1.309  10.037  17.513  0.00  0.00    +0.000 C 
ATOM      9  C   UNL     1      -2.346  11.113  18.050  0.00  0.00    +0.000 C 
ATOM     10  C   UNL     1      -2.399  10.678  16.124  0.00  0.00    +0.000 C 
ATOM     11  N   UNL     1      -1.730  11.434  19.930  0.00  0.00    +0.000 N 
ATOM     12  C   UNL     1      -1.989  12.284  20.953  0.00  0.00    +0.000 C 
ATOM     13  O   UNL     1      -2.804  12.710  20.031  0.00  0.00    +0.000 OA
ENDROOT
BRANCH   1  18
ATOM     14  C   UNL     1       3.906   6.798  17.455  0.00  0.00    +0.000 A 
ATOM     15  C   UNL     1       3.845   5.480  17.884  0.00  0.00    +0.000 A 
ATOM     16  C   UNL     1       2.922   5.097  18.880  0.00  0.00    +0.000 A 
ATOM     17  C   UNL     1       2.206   6.038  19.615  0.00  0.00    +0.000 A 
ATOM     18  C   UNL     1       2.344   7.364  19.212  0.00  0.00    +0.000 A 
ATOM     19  C   UNL     1       3.134   7.721  18.113  0.00  0.00    +0.000 A 
BRANCH  14  21
ATOM     20  C   UNL     1       5.275   6.016  15.699  0.00  0.00    +0.000 C 
ATOM     21  O   UNL     1       4.639   7.120  16.351  0.00  0.00    +0.000 OA
ENDBRANCH  14  21
BRANCH  17  22
ATOM     22  O   UNL     1       1.491   5.537  20.686  0.00  0.00    +0.000 OA
ATOM     23  C   UNL     1       1.205   4.143  20.724  0.00  0.00    +0.000 C 
ENDBRANCH  17  22
ENDBRANCH   1  18
BRANCH  12  24
ATOM     24  C   UNL     1      -2.590  13.167  21.915  0.00  0.00    +0.000 A 
ATOM     25  C   UNL     1      -3.180  12.494  22.992  0.00  0.00    +0.000 A 
ATOM     26  C   UNL     1      -4.155  13.096  23.748  0.00  0.00    +0.000 A 
ATOM     27  C   UNL     1      -4.304  14.463  23.682  0.00  0.00    +0.000 A 
ATOM     28  C   UNL     1      -3.633  15.195  22.691  0.00  0.00    +0.000 A 
ATOM     29  C   UNL     1      -2.758  14.556  21.798  0.00  0.00    +0.000 A 
BRANCH  27  30
ATOM     30  O   UNL     1      -5.066  15.123  24.607  0.00  0.00    +0.000 OA
ATOM     31  H   UNL     1      -5.132  14.631  25.449  0.00  0.00    +0.000 HD
ENDBRANCH  27  30
BRANCH  29  32
ATOM     32  O   UNL     1      -2.074  15.261  20.843  0.00  0.00    +0.000 OA
ATOM     33  H   UNL     1      -1.124  15.327  21.054  0.00  0.00    +0.000 HD
ENDBRANCH  29  32
ENDBRANCH  12  24
TORSDOF 6
ENDMDL
MODEL 7
REMARK VINA RESULT:      -7.6      1.970      9.278
REMARK  Name = 
REMARK  9 active torsions:
REMARK  status: ('A' for Active; 'I' for Inactive)
REMARK    1  A    between atoms: C_1  and  O_2
REMARK    2  A    between atoms: O_2  and  C_3
REMARK    3  A    between atoms: C_6  and  O_7
REMARK    4  A    between atoms: O_7  and  C_8
REMARK    5  A    between atoms: C_9  and  C_10
REMARK    6  A    between atoms: C_18  and  C_19
REMARK    7  A    between atoms: C_21  and  C_23
REMARK    8  A    between atoms: C_26  and  O_27
REMARK    9  A    between atoms: C_29  and  O_30
REMARK                            x       y       z     vdW  Elec       q    Type
REMARK                         _______ _______ _______ _____ _____    ______ ____
ROOT
ATOM      1  C   UNL     1      -1.253  11.236  22.734  0.00  0.00    +0.000 A 
ATOM      2  C   UNL     1      -0.331  10.436  23.292  0.00  0.00    +0.000 A 
ATOM      3  C   UNL     1       0.730   9.844  22.412  0.00  0.00    +0.000 A 
ATOM      4  C   UNL     1       0.714   9.589  20.954  0.00  0.00    +0.000 A 
ATOM      5  C   UNL     1      -0.335  10.442  20.763  0.00  0.00    +0.000 A 
ATOM      6  C   UNL     1      -1.245  11.224  21.426  0.00  0.00    +0.000 A 
ATOM      7  C   UNL     1      -0.506  10.631  19.384  0.00  0.00    +0.000 C 
ATOM      8  C   UNL     1      -1.444  11.130  18.639  0.00  0.00    +0.000 C 
ATOM      9  C   UNL     1      -0.474  10.247  17.745  0.00  0.00    +0.000 C 
ATOM     10  C   UNL     1      -1.954  11.183  16.832  0.00  0.00    +0.000 C 
ATOM     11  N   UNL     1       0.644   9.288  19.105  0.00  0.00    +0.000 N 
ATOM     12  C   UNL     1       1.558   8.289  19.146  0.00  0.00    +0.000 C 
ATOM     13  O   UNL     1       1.274   8.346  17.877  0.00  0.00    +0.000 OA
ENDROOT
BRANCH   1  18
ATOM     14  C   UNL     1      -4.231  12.640  24.303  0.00  0.00    +0.000 A 
ATOM     15  C   UNL     1      -3.832  13.948  24.540  0.00  0.00    +0.000 A 
ATOM     16  C   UNL     1      -2.607  14.422  24.025  0.00  0.00    +0.000 A 
ATOM     17  C   UNL     1      -1.667  13.563  23.461  0.00  0.00    +0.000 A 
ATOM     18  C   UNL     1      -2.066  12.237  23.304  0.00  0.00    +0.000 A 
ATOM     19  C   UNL     1      -3.349  11.806  23.666  0.00  0.00    +0.000 A 
BRANCH  14  21
ATOM     20  C   UNL     1      -6.540  12.973  23.944  0.00  0.00    +0.000 C 
ATOM     21  O   UNL     1      -5.502  12.251  24.614  0.00  0.00    +0.000 OA
ENDBRANCH  14  21
BRANCH  17  22
ATOM     22  O   UNL     1      -0.439  14.127  23.179  0.00  0.00    +0.000 OA
ATOM     23  C   UNL     1      -0.373  15.179  22.221  0.00  0.00    +0.000 C 
ENDBRANCH  17  22
ENDBRANCH   1  18
BRANCH  12  24
ATOM     24  C   UNL     1       2.624   7.361  18.882  0.00  0.00    +0.000 A 
ATOM     25  C   UNL     1       3.358   7.675  17.732  0.00  0.00    +0.000 A 
ATOM     26  C   UNL     1       4.090   6.712  17.083  0.00  0.00    +0.000 A 
ATOM     27  C   UNL     1       4.393   5.542  17.742  0.00  0.00    +0.000 A 
ATOM     28  C   UNL     1       3.770   5.245  18.963  0.00  0.00    +0.000 A 
ATOM     29  C   UNL     1       2.882   6.156  19.555  0.00  0.00    +0.000 A 
BRANCH  27  30
ATOM     30  O   UNL     1       5.335   4.687  17.241  0.00  0.00    +0.000 OA
ATOM     31  H   UNL     1       5.774   5.046  16.445  0.00  0.00    +0.000 HD
ENDBRANCH  27  30
BRANCH  29  32
ATOM     32  O   UNL     1       2.286   5.892  20.761  0.00  0.00    +0.000 OA
ATOM     33  H   UNL     1       2.904   6.020  21.504  0.00  0.00    +0.000 HD
ENDBRANCH  29  32
ENDBRANCH  12  24
TORSDOF 6
ENDMDL
MODEL 8
REMARK VINA RESULT:      -7.5      2.523      5.305
REMARK  Name = 
REMARK  9 active torsions:
REMARK  status: ('A' for Active; 'I' for Inactive)
REMARK    1  A    between atoms: C_1  and  O_2
REMARK    2  A    between atoms: O_2  and  C_3
REMARK    3  A    between atoms: C_6  and  O_7
REMARK    4  A    between atoms: O_7  and  C_8
REMARK    5  A    between atoms: C_9  and  C_10
REMARK    6  A    between atoms: C_18  and  C_19
REMARK    7  A    between atoms: C_21  and  C_23
REMARK    8  A    between atoms: C_26  and  O_27
REMARK    9  A    between atoms: C_29  and  O_30
REMARK                            x       y       z     vdW  Elec       q    Type
REMARK                         _______ _______ _______ _____ _____    ______ ____
ROOT
ATOM      1  C   UNL     1       4.410   6.346  16.829  0.00  0.00    +0.000 A 
ATOM      2  C   UNL     1       4.103   7.643  16.675  0.00  0.00    +0.000 A 
ATOM      3  C   UNL     1       3.477   8.373  17.827  0.00  0.00    +0.000 A 
ATOM      4  C   UNL     1       2.700   7.844  18.970  0.00  0.00    +0.000 A 
ATOM      5  C   UNL     1       3.164   6.576  18.766  0.00  0.00    +0.000 A 
ATOM      6  C   UNL     1       3.913   5.808  17.913  0.00  0.00    +0.000 A 
ATOM      7  C   UNL     1       2.782   5.784  19.859  0.00  0.00    +0.000 C 
ATOM      8  C   UNL     1       2.746   4.508  20.095  0.00  0.00    +0.000 C 
ATOM      9  C   UNL     1       1.832   5.267  21.149  0.00  0.00    +0.000 C 
ATOM     10  C   UNL     1       2.006   3.308  21.336  0.00  0.00    +0.000 C 
ATOM     11  N   UNL     1       1.724   7.122  20.399  0.00  0.00    +0.000 N 
ATOM     12  C   UNL     1       1.042   8.271  20.625  0.00  0.00    +0.000 C 
ATOM     13  O   UNL     1       0.557   7.481  21.540  0.00  0.00    +0.000 OA
ENDROOT
BRANCH   1  18
ATOM     14  C   UNL     1       5.683   4.241  14.137  0.00  0.00    +0.000 A 
ATOM     15  C   UNL     1       6.984   4.006  14.558  0.00  0.00    +0.000 A 
ATOM     16  C   UNL     1       7.403   4.419  15.840  0.00  0.00    +0.000 A 
ATOM     17  C   UNL     1       6.620   5.254  16.632  0.00  0.00    +0.000 A 
ATOM     18  C   UNL     1       5.344   5.537  16.150  0.00  0.00    +0.000 A 
ATOM     19  C   UNL     1       4.872   4.986  14.952  0.00  0.00    +0.000 A 
BRANCH  14  21
ATOM     20  C   UNL     1       6.235   3.254  12.065  0.00  0.00    +0.000 C 
ATOM     21  O   UNL     1       5.223   3.654  12.994  0.00  0.00    +0.000 OA
ENDBRANCH  14  21
BRANCH  17  22
ATOM     22  O   UNL     1       7.232   5.739  17.772  0.00  0.00    +0.000 OA
ATOM     23  C   UNL     1       7.713   7.079  17.772  0.00  0.00    +0.000 C 
ENDBRANCH  17  22
ENDBRANCH   1  18
BRANCH  12  24
ATOM     24  C   UNL     1       0.345   9.390  21.198  0.00  0.00    +0.000 A 
ATOM     25  C   UNL     1       0.216   9.308  22.590  0.00  0.00    +0.000 A 
ATOM     26  C   UNL     1      -0.764  10.010  23.247  0.00  0.00    +0.000 A 
ATOM     27  C   UNL     1      -1.386  11.055  22.602  0.00  0.00    +0.000 A 
ATOM     28  C   UNL     1      -1.187  11.248  21.227  0.00  0.00    +0.000 A 
ATOM     29  C   UNL     1      -0.310  10.422  20.507  0.00  0.00    +0.000 A 
BRANCH  27  30
ATOM     30  O   UNL     1      -2.161  11.939  23.302  0.00  0.00    +0.000 OA
ATOM     31  H   UNL     1      -1.631  12.652  23.709  0.00  0.00    +0.000 HD
ENDBRANCH  27  30
BRANCH  29  32
ATOM     32  O   UNL     1      -0.084  10.615  19.169  0.00  0.00    +0.000 OA
ATOM     33  H   UNL     1       0.396   9.865  18.773  0.00  0.00    +0.000 HD
ENDBRANCH  29  32
ENDBRANCH  12  24
TORSDOF 6
ENDMDL
MODEL 9
REMARK VINA RESULT:      -7.5      2.477      5.288
REMARK  Name = 
REMARK  9 active torsions:
REMARK  status: ('A' for Active; 'I' for Inactive)
REMARK    1  A    between atoms: C_1  and  O_2
REMARK    2  A    between atoms: O_2  and  C_3
REMARK    3  A    between atoms: C_6  and  O_7
REMARK    4  A    between atoms: O_7  and  C_8
REMARK    5  A    between atoms: C_9  and  C_10
REMARK    6  A    between atoms: C_18  and  C_19
REMARK    7  A    between atoms: C_21  and  C_23
REMARK    8  A    between atoms: C_26  and  O_27
REMARK    9  A    between atoms: C_29  and  O_30
REMARK                            x       y       z     vdW  Elec       q    Type
REMARK                         _______ _______ _______ _____ _____    ______ ____
ROOT
ATOM      1  C   UNL     1       4.326   6.482  16.931  0.00  0.00    +0.000 A 
ATOM      2  C   UNL     1       3.984   7.758  16.696  0.00  0.00    +0.000 A 
ATOM      3  C   UNL     1       3.276   8.520  17.777  0.00  0.00    +0.000 A 
ATOM      4  C   UNL     1       2.460   8.020  18.906  0.00  0.00    +0.000 A 
ATOM      5  C   UNL     1       2.976   6.760  18.790  0.00  0.00    +0.000 A 
ATOM      6  C   UNL     1       3.793   5.979  18.015  0.00  0.00    +0.000 A 
ATOM      7  C   UNL     1       2.565   6.010  19.901  0.00  0.00    +0.000 C 
ATOM      8  C   UNL     1       2.560   4.747  20.200  0.00  0.00    +0.000 C 
ATOM      9  C   UNL     1       1.569   5.523  21.168  0.00  0.00    +0.000 C 
ATOM     10  C   UNL     1       1.798   3.583  21.463  0.00  0.00    +0.000 C 
ATOM     11  N   UNL     1       1.437   7.334  20.320  0.00  0.00    +0.000 N 
ATOM     12  C   UNL     1       0.706   8.468  20.453  0.00  0.00    +0.000 C 
ATOM     13  O   UNL     1       0.202   7.707  21.382  0.00  0.00    +0.000 OA
ENDROOT
BRANCH   1  18
ATOM     14  C   UNL     1       5.812   4.307  14.408  0.00  0.00    +0.000 A 
ATOM     15  C   UNL     1       7.093   4.129  14.911  0.00  0.00    +0.000 A 
ATOM     16  C   UNL     1       7.425   4.608  16.195  0.00  0.00    +0.000 A 
ATOM     17  C   UNL     1       6.574   5.451  16.906  0.00  0.00    +0.000 A 
ATOM     18  C   UNL     1       5.321   5.674  16.341  0.00  0.00    +0.000 A 
ATOM     19  C   UNL     1       4.933   5.060  15.143  0.00  0.00    +0.000 A 
BRANCH  14  21
ATOM     20  C   UNL     1       6.436   3.589  12.248  0.00  0.00    +0.000 C 
ATOM     21  O   UNL     1       5.434   3.659  13.267  0.00  0.00    +0.000 OA
ENDBRANCH  14  21
BRANCH  17  22
ATOM     22  O   UNL     1       7.106   6.001  18.056  0.00  0.00    +0.000 OA
ATOM     23  C   UNL     1       7.794   7.245  17.964  0.00  0.00    +0.000 C 
ENDBRANCH  17  22
ENDBRANCH   1  18
BRANCH  12  24
ATOM     24  C   UNL     1      -0.057   9.588  20.934  0.00  0.00    +0.000 A 
ATOM     25  C   UNL     1      -0.882  10.155  19.955  0.00  0.00    +0.000 A 
ATOM     26  C   UNL     1      -1.326  11.449  20.076  0.00  0.00    +0.000 A 
ATOM     27  C   UNL     1      -1.263  12.067  21.305  0.00  0.00    +0.000 A 
ATOM     28  C   UNL     1      -0.546  11.471  22.353  0.00  0.00    +0.000 A 
ATOM     29  C   UNL     1       0.060  10.216  22.184  0.00  0.00    +0.000 A 
BRANCH  27  30
ATOM     30  O   UNL     1      -1.934  13.237  21.528  0.00  0.00    +0.000 OA
ATOM     31  H   UNL     1      -1.495  13.792  22.202  0.00  0.00    +0.000 HD
ENDBRANCH  27  30
BRANCH  29  32
ATOM     32  O   UNL     1       0.740   9.608  23.207  0.00  0.00    +0.000 OA
ATOM     33  H   UNL     1       0.236   8.863  23.583  0.00  0.00    +0.000 HD
ENDBRANCH  29  32
ENDBRANCH  12  24
TORSDOF 6
ENDMDL
