MODEL 1
REMARK VINA RESULT:      -6.9      0.000      0.000
REMARK  Name = 
REMARK  7 active torsions:
REMARK  status: ('A' for Active; 'I' for Inactive)
REMARK    1  A    between atoms: C_1  and  O_2
REMARK    2  A    between atoms: O_2  and  C_3
REMARK    3  A    between atoms: C_12  and  N_13
REMARK    4  A    between atoms: C_14  and  O_15
REMARK    5  A    between atoms: O_15  and  C_16
REMARK    6  A    between atoms: C_17  and  O_18
REMARK    7  A    between atoms: O_18  and  C_19
REMARK                            x       y       z     vdW  Elec       q    Type
REMARK                         _______ _______ _______ _____ _____    ______ ____
ROOT
ATOM      1  C   UNL     1       0.644  10.257  20.024  0.00  0.00    +0.000 A 
ATOM      2  C   UNL     1       0.268   9.440  21.085  0.00  0.00    +0.000 A 
ATOM      3  C   UNL     1       0.721   8.115  21.152  0.00  0.00    +0.000 A 
ATOM      4  C   UNL     1       1.561   7.576  20.161  0.00  0.00    +0.000 A 
ATOM      5  C   UNL     1       1.916   8.414  19.098  0.00  0.00    +0.000 A 
ATOM      6  C   UNL     1       1.457   9.736  19.022  0.00  0.00    +0.000 A 
ATOM      7  C   UNL     1       2.782   7.896  18.021  0.00  0.00    +0.000 C 
ATOM      8  O   UNL     1       3.010   8.613  17.047  0.00  0.00    +0.000 OA
ATOM      9  C   UNL     1       3.336   6.509  18.108  0.00  0.00    +0.000 A 
ATOM     10  C   UNL     1       4.215   6.021  17.098  0.00  0.00    +0.000 A 
ATOM     11  C   UNL     1       4.664   4.680  17.176  0.00  0.00    +0.000 A 
ATOM     12  C   UNL     1       4.226   3.863  18.257  0.00  0.00    +0.000 A 
ATOM     13  C   UNL     1       3.359   4.379  19.266  0.00  0.00    +0.000 A 
ATOM     14  C   UNL     1       2.922   3.611  20.366  0.00  0.00    +0.000 A 
ATOM     15  C   UNL     1       2.086   4.173  21.311  0.00  0.00    +0.000 A 
ATOM     16  N   UNL     1       1.644   5.439  21.248  0.00  0.00    +0.000 NA
ATOM     17  C   UNL     1       2.054   6.193  20.196  0.00  0.00    +0.000 A 
ATOM     18  C   UNL     1       2.911   5.708  19.186  0.00  0.00    +0.000 A 
ENDROOT
BRANCH  10  19
ATOM     19  N   UNL     1       4.733   6.945  16.152  0.00  0.00    +0.000 N 
ATOM     20  H   UNL     1       5.735   7.122  16.311  0.00  0.00    +0.000 HD
ATOM     21  H   UNL     1       4.262   7.838  16.144  0.00  0.00    +0.000 HD
ENDBRANCH  10  19
BRANCH   1  23
ATOM     22  C   UNL     1       1.157  12.373  19.110  0.00  0.00    +0.000 C 
ATOM     23  O   UNL     1       0.251  11.552  19.835  0.00  0.00    +0.000 OA
ENDBRANCH   1  23
BRANCH  11  24
ATOM     24  O   UNL     1       5.513   4.058  16.301  0.00  0.00    +0.000 OA
ATOM     25  C   UNL     1       6.906   4.290  16.254  0.00  0.00    +0.000 C 
ENDBRANCH  11  24
BRANCH  12  26
ATOM     26  O   UNL     1       4.564   2.542  18.483  0.00  0.00    +0.000 OA
ATOM     27  C   UNL     1       3.725   1.483  18.053  0.00  0.00    +0.000 C 
ENDBRANCH  12  26
TORSDOF 4
ENDMDL
MODEL 2
REMARK VINA RESULT:      -6.5      2.657      7.658
REMARK  Name = 
REMARK  7 active torsions:
REMARK  status: ('A' for Active; 'I' for Inactive)
REMARK    1  A    between atoms: C_1  and  O_2
REMARK    2  A    between atoms: O_2  and  C_3
REMARK    3  A    between atoms: C_12  and  N_13
REMARK    4  A    between atoms: C_14  and  O_15
REMARK    5  A    between atoms: O_15  and  C_16
REMARK    6  A    between atoms: C_17  and  O_18
REMARK    7  A    between atoms: O_18  and  C_19
REMARK                            x       y       z     vdW  Elec       q    Type
REMARK                         _______ _______ _______ _____ _____    ______ ____
ROOT
ATOM      1  C   UNL     1       2.872   6.634  18.484  0.00  0.00    +0.000 A 
ATOM      2  C   UNL     1       2.436   6.135  19.708  0.00  0.00    +0.000 A 
ATOM      3  C   UNL     1       1.709   6.953  20.584  0.00  0.00    +0.000 A 
ATOM      4  C   UNL     1       1.400   8.285  20.259  0.00  0.00    +0.000 A 
ATOM      5  C   UNL     1       1.859   8.766  19.027  0.00  0.00    +0.000 A 
ATOM      6  C   UNL     1       2.595   7.955  18.153  0.00  0.00    +0.000 A 
ATOM      7  C   UNL     1       1.577  10.162  18.641  0.00  0.00    +0.000 C 
ATOM      8  O   UNL     1       2.066  10.599  17.598  0.00  0.00    +0.000 OA
ATOM      9  C   UNL     1       0.741  11.030  19.527  0.00  0.00    +0.000 A 
ATOM     10  C   UNL     1       0.422  12.362  19.135  0.00  0.00    +0.000 A 
ATOM     11  C   UNL     1      -0.312  13.178  20.030  0.00  0.00    +0.000 A 
ATOM     12  C   UNL     1      -0.708  12.644  21.290  0.00  0.00    +0.000 A 
ATOM     13  C   UNL     1      -0.391  11.302  21.654  0.00  0.00    +0.000 A 
ATOM     14  C   UNL     1      -0.785  10.728  22.881  0.00  0.00    +0.000 A 
ATOM     15  C   UNL     1      -0.449   9.419  23.170  0.00  0.00    +0.000 A 
ATOM     16  N   UNL     1       0.253   8.634  22.337  0.00  0.00    +0.000 NA
ATOM     17  C   UNL     1       0.641   9.171  21.152  0.00  0.00    +0.000 A 
ATOM     18  C   UNL     1       0.341  10.495  20.767  0.00  0.00    +0.000 A 
ENDROOT
BRANCH  10  19
ATOM     19  N   UNL     1       0.708  12.759  17.802  0.00  0.00    +0.000 N 
ATOM     20  H   UNL     1       0.105  13.540  17.506  0.00  0.00    +0.000 HD
ATOM     21  H   UNL     1       0.610  12.021  17.119  0.00  0.00    +0.000 HD
ENDBRANCH  10  19
BRANCH   1  23
ATOM     22  C   UNL     1       4.695   6.657  16.982  0.00  0.00    +0.000 C 
ATOM     23  O   UNL     1       3.606   5.946  17.559  0.00  0.00    +0.000 OA
ENDBRANCH   1  23
BRANCH  11  24
ATOM     24  O   UNL     1      -0.709  14.469  19.810  0.00  0.00    +0.000 OA
ATOM     25  C   UNL     1       0.164  15.579  19.840  0.00  0.00    +0.000 C 
ENDBRANCH  11  24
BRANCH  12  26
ATOM     26  O   UNL     1      -1.422  13.299  22.276  0.00  0.00    +0.000 OA
ATOM     27  C   UNL     1      -0.803  14.251  23.126  0.00  0.00    +0.000 C 
ENDBRANCH  12  26
TORSDOF 4
ENDMDL
MODEL 3
REMARK VINA RESULT:      -6.2      2.458      6.224
REMARK  Name = 
REMARK  7 active torsions:
REMARK  status: ('A' for Active; 'I' for Inactive)
REMARK    1  A    between atoms: C_1  and  O_2
REMARK    2  A    between atoms: O_2  and  C_3
REMARK    3  A    between atoms: C_12  and  N_13
REMARK    4  A    between atoms: C_14  and  O_15
REMARK    5  A    between atoms: O_15  and  C_16
REMARK    6  A    between atoms: C_17  and  O_18
REMARK    7  A    between atoms: O_18  and  C_19
REMARK                            x       y       z     vdW  Elec       q    Type
REMARK                         _______ _______ _______ _____ _____    ______ ____
ROOT
ATOM      1  C   UNL     1       6.622   5.022  14.419  0.00  0.00    +0.000 A 
ATOM      2  C   UNL     1       6.476   3.643  14.532  0.00  0.00    +0.000 A 
ATOM      3  C   UNL     1       5.632   3.100  15.512  0.00  0.00    +0.000 A 
ATOM      4  C   UNL     1       4.915   3.921  16.399  0.00  0.00    +0.000 A 
ATOM      5  C   UNL     1       5.086   5.304  16.272  0.00  0.00    +0.000 A 
ATOM      6  C   UNL     1       5.937   5.851  15.301  0.00  0.00    +0.000 A 
ATOM      7  C   UNL     1       4.370   6.213  17.187  0.00  0.00    +0.000 C 
ATOM      8  O   UNL     1       4.601   7.421  17.125  0.00  0.00    +0.000 OA
ATOM      9  C   UNL     1       3.409   5.660  18.192  0.00  0.00    +0.000 A 
ATOM     10  C   UNL     1       2.674   6.535  19.043  0.00  0.00    +0.000 A 
ATOM     11  C   UNL     1       1.827   5.974  20.029  0.00  0.00    +0.000 A 
ATOM     12  C   UNL     1       1.734   4.557  20.139  0.00  0.00    +0.000 A 
ATOM     13  C   UNL     1       2.466   3.700  19.264  0.00  0.00    +0.000 A 
ATOM     14  C   UNL     1       2.383   2.293  19.325  0.00  0.00    +0.000 A 
ATOM     15  C   UNL     1       3.116   1.521  18.444  0.00  0.00    +0.000 A 
ATOM     16  N   UNL     1       3.931   2.036  17.509  0.00  0.00    +0.000 NA
ATOM     17  C   UNL     1       4.023   3.388  17.438  0.00  0.00    +0.000 A 
ATOM     18  C   UNL     1       3.310   4.258  18.289  0.00  0.00    +0.000 A 
ENDROOT
BRANCH  10  19
ATOM     19  N   UNL     1       2.696   7.926  18.758  0.00  0.00    +0.000 N 
ATOM     20  H   UNL     1       2.956   8.104  17.777  0.00  0.00    +0.000 HD
ATOM     21  H   UNL     1       3.323   8.459  19.343  0.00  0.00    +0.000 HD
ENDBRANCH  10  19
BRANCH   1  23
ATOM     22  C   UNL     1       7.639   5.000  12.288  0.00  0.00    +0.000 C 
ATOM     23  O   UNL     1       7.429   5.668  13.526  0.00  0.00    +0.000 OA
ENDBRANCH   1  23
BRANCH  11  24
ATOM     24  O   UNL     1       1.048   6.665  20.916  0.00  0.00    +0.000 OA
ATOM     25  C   UNL     1       1.244   8.025  21.245  0.00  0.00    +0.000 C 
ENDBRANCH  11  24
BRANCH  12  26
ATOM     26  O   UNL     1       0.961   3.848  21.040  0.00  0.00    +0.000 OA
ATOM     27  C   UNL     1       1.549   2.953  21.970  0.00  0.00    +0.000 C 
ENDBRANCH  12  26
TORSDOF 4
ENDMDL
MODEL 4
REMARK VINA RESULT:      -6.2      8.061     11.234
REMARK  Name = 
REMARK  7 active torsions:
REMARK  status: ('A' for Active; 'I' for Inactive)
REMARK    1  A    between atoms: C_1  and  O_2
REMARK    2  A    between atoms: O_2  and  C_3
REMARK    3  A    between atoms: C_12  and  N_13
REMARK    4  A    between atoms: C_14  and  O_15
REMARK    5  A    between atoms: O_15  and  C_16
REMARK    6  A    between atoms: C_17  and  O_18
REMARK    7  A    between atoms: O_18  and  C_19
REMARK                            x       y       z     vdW  Elec       q    Type
REMARK                         _______ _______ _______ _____ _____    ______ ____
ROOT
ATOM      1  C   UNL     1      -3.621  10.819  16.145  0.00  0.00    +0.000 A 
ATOM      2  C   UNL     1      -2.291  10.958  16.529  0.00  0.00    +0.000 A 
ATOM      3  C   UNL     1      -1.972  11.442  17.806  0.00  0.00    +0.000 A 
ATOM      4  C   UNL     1      -2.974  11.797  18.727  0.00  0.00    +0.000 A 
ATOM      5  C   UNL     1      -4.303  11.658  18.312  0.00  0.00    +0.000 A 
ATOM      6  C   UNL     1      -4.626  11.185  17.033  0.00  0.00    +0.000 A 
ATOM      7  C   UNL     1      -5.394  12.032  19.233  0.00  0.00    +0.000 C 
ATOM      8  O   UNL     1      -6.555  11.993  18.823  0.00  0.00    +0.000 OA
ATOM      9  C   UNL     1      -5.079  12.482  20.624  0.00  0.00    +0.000 A 
ATOM     10  C   UNL     1      -6.130  12.793  21.535  0.00  0.00    +0.000 A 
ATOM     11  C   UNL     1      -5.794  13.283  22.821  0.00  0.00    +0.000 A 
ATOM     12  C   UNL     1      -4.422  13.448  23.164  0.00  0.00    +0.000 A 
ATOM     13  C   UNL     1      -3.386  13.113  22.241  0.00  0.00    +0.000 A 
ATOM     14  C   UNL     1      -2.016  13.239  22.551  0.00  0.00    +0.000 A 
ATOM     15  C   UNL     1      -1.062  12.893  21.612  0.00  0.00    +0.000 A 
ATOM     16  N   UNL     1      -1.363  12.435  20.386  0.00  0.00    +0.000 NA
ATOM     17  C   UNL     1      -2.677  12.309  20.071  0.00  0.00    +0.000 A 
ATOM     18  C   UNL     1      -3.720  12.632  20.965  0.00  0.00    +0.000 A 
ENDROOT
BRANCH  10  19
ATOM     19  N   UNL     1      -7.459  12.443  21.175  0.00  0.00    +0.000 N 
ATOM     20  H   UNL     1      -8.100  12.531  21.977  0.00  0.00    +0.000 HD
ATOM     21  H   UNL     1      -7.556  11.509  20.806  0.00  0.00    +0.000 HD
ENDBRANCH  10  19
BRANCH   1  23
ATOM     22  C   UNL     1      -3.041  10.006  14.004  0.00  0.00    +0.000 C 
ATOM     23  O   UNL     1      -4.058  10.383  14.925  0.00  0.00    +0.000 OA
ENDBRANCH   1  23
BRANCH  11  24
ATOM     24  O   UNL     1      -6.673  13.619  23.814  0.00  0.00    +0.000 OA
ATOM     25  C   UNL     1      -7.436  14.808  23.824  0.00  0.00    +0.000 C 
ENDBRANCH  11  24
BRANCH  12  26
ATOM     26  O   UNL     1      -3.922  13.912  24.366  0.00  0.00    +0.000 OA
ATOM     27  C   UNL     1      -3.792  15.301  24.623  0.00  0.00    +0.000 C 
ENDBRANCH  12  26
TORSDOF 4
ENDMDL
MODEL 5
REMARK VINA RESULT:      -6.1      5.735     10.234
REMARK  Name = 
REMARK  7 active torsions:
REMARK  status: ('A' for Active; 'I' for Inactive)
REMARK    1  A    between atoms: C_1  and  O_2
REMARK    2  A    between atoms: O_2  and  C_3
REMARK    3  A    between atoms: C_12  and  N_13
REMARK    4  A    between atoms: C_14  and  O_15
REMARK    5  A    between atoms: O_15  and  C_16
REMARK    6  A    between atoms: C_17  and  O_18
REMARK    7  A    between atoms: O_18  and  C_19
REMARK                            x       y       z     vdW  Elec       q    Type
REMARK                         _______ _______ _______ _____ _____    ______ ____
ROOT
ATOM      1  C   UNL     1       0.685   9.931  18.332  0.00  0.00    +0.000 A 
ATOM      2  C   UNL     1       0.983  10.444  19.590  0.00  0.00    +0.000 A 
ATOM      3  C   UNL     1       0.020  11.177  20.300  0.00  0.00    +0.000 A 
ATOM      4  C   UNL     1      -1.261  11.412  19.769  0.00  0.00    +0.000 A 
ATOM      5  C   UNL     1      -1.532  10.894  18.498  0.00  0.00    +0.000 A 
ATOM      6  C   UNL     1      -0.569  10.170  17.781  0.00  0.00    +0.000 A 
ATOM      7  C   UNL     1      -2.855  11.124  17.886  0.00  0.00    +0.000 C 
ATOM      8  O   UNL     1      -3.048  10.744  16.730  0.00  0.00    +0.000 OA
ATOM      9  C   UNL     1      -3.921  11.840  18.653  0.00  0.00    +0.000 A 
ATOM     10  C   UNL     1      -5.217  12.019  18.089  0.00  0.00    +0.000 A 
ATOM     11  C   UNL     1      -6.179  12.763  18.815  0.00  0.00    +0.000 A 
ATOM     12  C   UNL     1      -5.825  13.305  20.083  0.00  0.00    +0.000 A 
ATOM     13  C   UNL     1      -4.526  13.098  20.636  0.00  0.00    +0.000 A 
ATOM     14  C   UNL     1      -4.143  13.598  21.898  0.00  0.00    +0.000 A 
ATOM     15  C   UNL     1      -2.870  13.358  22.378  0.00  0.00    +0.000 A 
ATOM     16  N   UNL     1      -1.942  12.663  21.699  0.00  0.00    +0.000 NA
ATOM     17  C   UNL     1      -2.294  12.175  20.482  0.00  0.00    +0.000 A 
ATOM     18  C   UNL     1      -3.570  12.365  19.913  0.00  0.00    +0.000 A 
ENDROOT
BRANCH  10  19
ATOM     19  N   UNL     1      -5.539  11.308  16.902  0.00  0.00    +0.000 N 
ATOM     20  H   UNL     1      -5.242  10.323  16.963  0.00  0.00    +0.000 HD
ATOM     21  H   UNL     1      -5.136  11.698  16.063  0.00  0.00    +0.000 HD
ENDBRANCH  10  19
BRANCH   1  23
ATOM     22  C   UNL     1       2.293   8.207  18.187  0.00  0.00    +0.000 C 
ATOM     23  O   UNL     1       1.542   9.225  17.536  0.00  0.00    +0.000 OA
ENDBRANCH   1  23
BRANCH  11  24
ATOM     24  O   UNL     1      -7.466  13.020  18.426  0.00  0.00    +0.000 OA
ATOM     25  C   UNL     1      -7.836  14.090  17.581  0.00  0.00    +0.000 C 
ENDBRANCH  11  24
BRANCH  12  26
ATOM     26  O   UNL     1      -6.636  14.052  20.917  0.00  0.00    +0.000 OA
ATOM     27  C   UNL     1      -7.655  13.442  21.692  0.00  0.00    +0.000 C 
ENDBRANCH  12  26
TORSDOF 4
ENDMDL
MODEL 6
REMARK VINA RESULT:      -6.1      7.321     10.550
REMARK  Name = 
REMARK  7 active torsions:
REMARK  status: ('A' for Active; 'I' for Inactive)
REMARK    1  A    between atoms: C_1  and  O_2
REMARK    2  A    between atoms: O_2  and  C_3
REMARK    3  A    between atoms: C_12  and  N_13
REMARK    4  A    between atoms: C_14  and  O_15
REMARK    5  A    between atoms: O_15  and  C_16
REMARK    6  A    between atoms: C_17  and  O_18
REMARK    7  A    between atoms: O_18  and  C_19
REMARK                            x       y       z     vdW  Elec       q    Type
REMARK                         _______ _______ _______ _____ _____    ______ ____
ROOT
ATOM      1  C   UNL     1      -3.434  10.517  16.208  0.00  0.00    +0.000 A 
ATOM      2  C   UNL     1      -2.131  10.172  16.553  0.00  0.00    +0.000 A 
ATOM      3  C   UNL     1      -1.600  10.566  17.789  0.00  0.00    +0.000 A 
ATOM      4  C   UNL     1      -2.358  11.313  18.709  0.00  0.00    +0.000 A 
ATOM      5  C   UNL     1      -3.661  11.656  18.334  0.00  0.00    +0.000 A 
ATOM      6  C   UNL     1      -4.193  11.273  17.095  0.00  0.00    +0.000 A 
ATOM      7  C   UNL     1      -4.496  12.453  19.253  0.00  0.00    +0.000 C 
ATOM      8  O   UNL     1      -5.606  12.827  18.873  0.00  0.00    +0.000 OA
ATOM      9  C   UNL     1      -3.976  12.823  20.607  0.00  0.00    +0.000 A 
ATOM     10  C   UNL     1      -4.797  13.546  21.519  0.00  0.00    +0.000 A 
ATOM     11  C   UNL     1      -4.248  13.940  22.764  0.00  0.00    +0.000 A 
ATOM     12  C   UNL     1      -2.897  13.601  23.065  0.00  0.00    +0.000 A 
ATOM     13  C   UNL     1      -2.100  12.861  22.142  0.00  0.00    +0.000 A 
ATOM     14  C   UNL     1      -0.768  12.485  22.412  0.00  0.00    +0.000 A 
ATOM     15  C   UNL     1      -0.052  11.764  21.476  0.00  0.00    +0.000 A 
ATOM     16  N   UNL     1      -0.554  11.389  20.288  0.00  0.00    +0.000 NA
ATOM     17  C   UNL     1      -1.835  11.744  20.012  0.00  0.00    +0.000 A 
ATOM     18  C   UNL     1      -2.644  12.475  20.906  0.00  0.00    +0.000 A 
ENDROOT
BRANCH  10  19
ATOM     19  N   UNL     1      -6.175  13.697  21.212  0.00  0.00    +0.000 N 
ATOM     20  H   UNL     1      -6.308  14.099  20.273  0.00  0.00    +0.000 HD
ATOM     21  H   UNL     1      -6.685  14.273  21.866  0.00  0.00    +0.000 HD
ENDBRANCH  10  19
BRANCH   1  23
ATOM     22  C   UNL     1      -3.199  10.068  13.901  0.00  0.00    +0.000 C 
ATOM     23  O   UNL     1      -4.054  10.214  15.028  0.00  0.00    +0.000 OA
ENDBRANCH   1  23
BRANCH  11  24
ATOM     24  O   UNL     1      -4.896  14.628  23.754  0.00  0.00    +0.000 OA
ATOM     25  C   UNL     1      -5.123  16.021  23.729  0.00  0.00    +0.000 C 
ENDBRANCH  11  24
BRANCH  12  26
ATOM     26  O   UNL     1      -2.209  13.907  24.224  0.00  0.00    +0.000 OA
ATOM     27  C   UNL     1      -1.574  15.163  24.395  0.00  0.00    +0.000 C 
ENDBRANCH  12  26
TORSDOF 4
ENDMDL
MODEL 7
REMARK VINA RESULT:      -6.0      3.007      8.667
REMARK  Name = 
REMARK  7 active torsions:
REMARK  status: ('A' for Active; 'I' for Inactive)
REMARK    1  A    between atoms: C_1  and  O_2
REMARK    2  A    between atoms: O_2  and  C_3
REMARK    3  A    between atoms: C_12  and  N_13
REMARK    4  A    between atoms: C_14  and  O_15
REMARK    5  A    between atoms: O_15  and  C_16
REMARK    6  A    between atoms: C_17  and  O_18
REMARK    7  A    between atoms: O_18  and  C_19
REMARK                            x       y       z     vdW  Elec       q    Type
REMARK                         _______ _______ _______ _____ _____    ______ ____
ROOT
ATOM      1  C   UNL     1       2.624   7.084  18.595  0.00  0.00    +0.000 A 
ATOM      2  C   UNL     1       2.936   8.074  17.669  0.00  0.00    +0.000 A 
ATOM      3  C   UNL     1       2.459   9.381  17.845  0.00  0.00    +0.000 A 
ATOM      4  C   UNL     1       1.660   9.728  18.949  0.00  0.00    +0.000 A 
ATOM      5  C   UNL     1       1.351   8.712  19.859  0.00  0.00    +0.000 A 
ATOM      6  C   UNL     1       1.817   7.402  19.682  0.00  0.00    +0.000 A 
ATOM      7  C   UNL     1       0.503   9.016  21.028  0.00  0.00    +0.000 C 
ATOM      8  O   UNL     1       0.163   8.094  21.770  0.00  0.00    +0.000 OA
ATOM      9  C   UNL     1       0.043  10.418  21.275  0.00  0.00    +0.000 A 
ATOM     10  C   UNL     1      -0.732  10.728  22.430  0.00  0.00    +0.000 A 
ATOM     11  C   UNL     1      -1.210  12.051  22.595  0.00  0.00    +0.000 A 
ATOM     12  C   UNL     1      -0.901  13.028  21.606  0.00  0.00    +0.000 A 
ATOM     13  C   UNL     1      -0.109  12.698  20.466  0.00  0.00    +0.000 A 
ATOM     14  C   UNL     1       0.239  13.642  19.477  0.00  0.00    +0.000 A 
ATOM     15  C   UNL     1       1.014  13.258  18.399  0.00  0.00    +0.000 A 
ATOM     16  N   UNL     1       1.468  12.006  18.223  0.00  0.00    +0.000 NA
ATOM     17  C   UNL     1       1.141  11.085  19.165  0.00  0.00    +0.000 A 
ATOM     18  C   UNL     1       0.360  11.385  20.301  0.00  0.00    +0.000 A 
ENDROOT
BRANCH  10  19
ATOM     19  N   UNL     1      -0.853   9.741  23.445  0.00  0.00    +0.000 N 
ATOM     20  H   UNL     1      -0.977  10.172  24.373  0.00  0.00    +0.000 HD
ATOM     21  H   UNL     1      -0.068   9.108  23.503  0.00  0.00    +0.000 HD
ENDBRANCH  10  19
BRANCH   1  23
ATOM     22  C   UNL     1       3.501   5.207  19.728  0.00  0.00    +0.000 C 
ATOM     23  O   UNL     1       3.007   5.775  18.521  0.00  0.00    +0.000 OA
ENDBRANCH   1  23
BRANCH  11  24
ATOM     24  O   UNL     1      -1.955  12.518  23.643  0.00  0.00    +0.000 OA
ATOM     25  C   UNL     1      -3.363  12.433  23.710  0.00  0.00    +0.000 C 
ENDBRANCH  11  24
BRANCH  12  26
ATOM     26  O   UNL     1      -1.286  14.356  21.610  0.00  0.00    +0.000 OA
ATOM     27  C   UNL     1      -0.653  15.304  22.453  0.00  0.00    +0.000 C 
ENDBRANCH  12  26
TORSDOF 4
ENDMDL
MODEL 8
REMARK VINA RESULT:      -5.9      2.178      7.289
REMARK  Name = 
REMARK  7 active torsions:
REMARK  status: ('A' for Active; 'I' for Inactive)
REMARK    1  A    between atoms: C_1  and  O_2
REMARK    2  A    between atoms: O_2  and  C_3
REMARK    3  A    between atoms: C_12  and  N_13
REMARK    4  A    between atoms: C_14  and  O_15
REMARK    5  A    between atoms: O_15  and  C_16
REMARK    6  A    between atoms: C_17  and  O_18
REMARK    7  A    between atoms: O_18  and  C_19
REMARK                            x       y       z     vdW  Elec       q    Type
REMARK                         _______ _______ _______ _____ _____    ______ ____
ROOT
ATOM      1  C   UNL     1       2.535   5.681  18.837  0.00  0.00    +0.000 A 
ATOM      2  C   UNL     1       1.903   5.414  20.047  0.00  0.00    +0.000 A 
ATOM      3  C   UNL     1       1.317   6.454  20.783  0.00  0.00    +0.000 A 
ATOM      4  C   UNL     1       1.350   7.784  20.326  0.00  0.00    +0.000 A 
ATOM      5  C   UNL     1       2.001   8.028  19.112  0.00  0.00    +0.000 A 
ATOM      6  C   UNL     1       2.597   6.993  18.379  0.00  0.00    +0.000 A 
ATOM      7  C   UNL     1       2.080   9.407  18.593  0.00  0.00    +0.000 C 
ATOM      8  O   UNL     1       2.735   9.621  17.573  0.00  0.00    +0.000 OA
ATOM      9  C   UNL     1       1.400  10.522  19.324  0.00  0.00    +0.000 A 
ATOM     10  C   UNL     1       1.427  11.847  18.801  0.00  0.00    +0.000 A 
ATOM     11  C   UNL     1       0.834  12.889  19.555  0.00  0.00    +0.000 A 
ATOM     12  C   UNL     1       0.230  12.582  20.807  0.00  0.00    +0.000 A 
ATOM     13  C   UNL     1       0.200  11.245  21.303  0.00  0.00    +0.000 A 
ATOM     14  C   UNL     1      -0.410  10.896  22.526  0.00  0.00    +0.000 A 
ATOM     15  C   UNL     1      -0.408   9.580  22.947  0.00  0.00    +0.000 A 
ATOM     16  N   UNL     1       0.157   8.581  22.249  0.00  0.00    +0.000 NA
ATOM     17  C   UNL     1       0.749   8.900  21.070  0.00  0.00    +0.000 A 
ATOM     18  C   UNL     1       0.793  10.213  20.557  0.00  0.00    +0.000 A 
ENDROOT
BRANCH  10  19
ATOM     19  N   UNL     1       1.900  12.038  17.475  0.00  0.00    +0.000 N 
ATOM     20  H   UNL     1       1.270  12.652  16.938  0.00  0.00    +0.000 HD
ATOM     21  H   UNL     1       2.018  11.184  16.950  0.00  0.00    +0.000 HD
ENDBRANCH  10  19
BRANCH   1  23
ATOM     22  C   UNL     1       4.154   5.276  17.166  0.00  0.00    +0.000 C 
ATOM     23  O   UNL     1       3.161   4.761  18.044  0.00  0.00    +0.000 OA
ENDBRANCH   1  23
BRANCH  11  24
ATOM     24  O   UNL     1       0.764  14.208  19.197  0.00  0.00    +0.000 OA
ATOM     25  C   UNL     1       1.802  15.141  19.413  0.00  0.00    +0.000 C 
ENDBRANCH  11  24
BRANCH  12  26
ATOM     26  O   UNL     1      -0.388  13.473  21.665  0.00  0.00    +0.000 OA
ATOM     27  C   UNL     1      -1.679  13.989  21.386  0.00  0.00    +0.000 C 
ENDBRANCH  12  26
TORSDOF 4
ENDMDL
MODEL 9
REMARK VINA RESULT:      -5.9      1.810      6.266
REMARK  Name = 
REMARK  7 active torsions:
REMARK  status: ('A' for Active; 'I' for Inactive)
REMARK    1  A    between atoms: C_1  and  O_2
REMARK    2  A    between atoms: O_2  and  C_3
REMARK    3  A    between atoms: C_12  and  N_13
REMARK    4  A    between atoms: C_14  and  O_15
REMARK    5  A    between atoms: O_15  and  C_16
REMARK    6  A    between atoms: C_17  and  O_18
REMARK    7  A    between atoms: O_18  and  C_19
REMARK                            x       y       z     vdW  Elec       q    Type
REMARK                         _______ _______ _______ _____ _____    ______ ____
ROOT
ATOM      1  C   UNL     1       5.767   4.685  15.759  0.00  0.00    +0.000 A 
ATOM      2  C   UNL     1       5.553   3.664  16.678  0.00  0.00    +0.000 A 
ATOM      3  C   UNL     1       4.709   3.870  17.779  0.00  0.00    +0.000 A 
ATOM      4  C   UNL     1       4.060   5.101  17.986  0.00  0.00    +0.000 A 
ATOM      5  C   UNL     1       4.301   6.115  17.052  0.00  0.00    +0.000 A 
ATOM      6  C   UNL     1       5.151   5.916  15.956  0.00  0.00    +0.000 A 
ATOM      7  C   UNL     1       3.659   7.432  17.228  0.00  0.00    +0.000 C 
ATOM      8  O   UNL     1       3.952   8.343  16.453  0.00  0.00    +0.000 OA
ATOM      9  C   UNL     1       2.699   7.653  18.354  0.00  0.00    +0.000 A 
ATOM     10  C   UNL     1       2.036   8.906  18.499  0.00  0.00    +0.000 A 
ATOM     11  C   UNL     1       1.188   9.103  19.616  0.00  0.00    +0.000 A 
ATOM     12  C   UNL     1       1.024   8.046  20.557  0.00  0.00    +0.000 A 
ATOM     13  C   UNL     1       1.685   6.794  20.382  0.00  0.00    +0.000 A 
ATOM     14  C   UNL     1       1.529   5.715  21.278  0.00  0.00    +0.000 A 
ATOM     15  C   UNL     1       2.196   4.527  21.047  0.00  0.00    +0.000 A 
ATOM     16  N   UNL     1       3.010   4.326  19.998  0.00  0.00    +0.000 NA
ATOM     17  C   UNL     1       3.171   5.355  19.127  0.00  0.00    +0.000 A 
ATOM     18  C   UNL     1       2.529   6.602  19.276  0.00  0.00    +0.000 A 
ENDROOT
BRANCH  10  19
ATOM     19  N   UNL     1       2.123   9.841  17.434  0.00  0.00    +0.000 N 
ATOM     20  H   UNL     1       2.700   9.477  16.662  0.00  0.00    +0.000 HD
ATOM     21  H   UNL     1       2.499  10.739  17.700  0.00  0.00    +0.000 HD
ENDBRANCH  10  19
BRANCH   1  23
ATOM     22  C   UNL     1       6.096   3.827  13.583  0.00  0.00    +0.000 C 
ATOM     23  O   UNL     1       6.581   4.614  14.664  0.00  0.00    +0.000 OA
ENDBRANCH   1  23
BRANCH  11  24
ATOM     24  O   UNL     1       0.472  10.234  19.900  0.00  0.00    +0.000 OA
ATOM     25  C   UNL     1      -0.821  10.497  19.394  0.00  0.00    +0.000 C 
ENDBRANCH  11  24
BRANCH  12  26
ATOM     26  O   UNL     1       0.240   8.070  21.696  0.00  0.00    +0.000 OA
ATOM     27  C   UNL     1       0.412   9.069  22.688  0.00  0.00    +0.000 C 
ENDBRANCH  12  26
TORSDOF 4
ENDMDL
