MODEL 1
REMARK VINA RESULT:      -8.6      0.000      0.000
REMARK  Name = 
REMARK  11 active torsions:
REMARK  status: ('A' for Active; 'I' for Inactive)
REMARK    1  A    between atoms: C_1  and  C_2
REMARK    2  A    between atoms: C_2  and  C_3
REMARK    3  A    between atoms: C_3  and  C_4
REMARK    4  A    between atoms: C_8  and  O_9
REMARK    5  A    between atoms: O_9  and  C_10
REMARK    6  A    between atoms: C_12  and  C_13
REMARK    7  A    between atoms: C_13  and  N_14
REMARK    8  A    between atoms: C_13  and  C_15
REMARK    9  A    between atoms: N_19  and  C_20
REMARK   10  A    between atoms: C_23  and  C_24
REMARK   11  A    between atoms: N_31  and  C_32
REMARK                            x       y       z     vdW  Elec       q    Type
REMARK                         _______ _______ _______ _____ _____    ______ ____
ROOT
ATOM      1  O   UNL     1       3.432   7.846  17.661  0.00  0.00    +0.000 OA
ENDROOT
BRANCH   1   6
ATOM      2  C   UNL     1       0.669   9.680  19.283  0.00  0.00    +0.000 A 
ATOM      3  C   UNL     1       0.649   9.022  20.527  0.00  0.00    +0.000 A 
ATOM      4  C   UNL     1       1.466   7.925  20.779  0.00  0.00    +0.000 A 
ATOM      5  C   UNL     1       2.302   7.446  19.781  0.00  0.00    +0.000 A 
ATOM      6  C   UNL     1       2.436   8.149  18.578  0.00  0.00    +0.000 A 
ATOM      7  C   UNL     1       1.589   9.226  18.308  0.00  0.00    +0.000 A 
BRANCH   2   8
ATOM      8  C   UNL     1      -0.347  10.803  18.982  0.00  0.00    +0.000 C 
ATOM      9  C   UNL     1      -1.405  11.069  20.109  0.00  0.00    +0.000 C 
ATOM     10  C   UNL     1      -0.918  11.232  21.550  0.00  0.00    +0.000 C 
ATOM     11  C   UNL     1       0.004  12.413  21.794  0.00  0.00    +0.000 C 
ATOM     12  C   UNL     1       1.295  12.358  20.992  0.00  0.00    +0.000 C 
ATOM     13  N   UNL     1       1.129  12.779  19.603  0.00  0.00    +0.000 N 
ATOM     14  C   UNL     1       1.950  13.883  19.126  0.00  0.00    +0.000 C 
ATOM     15  C   UNL     1       0.316  12.167  18.654  0.00  0.00    +0.000 C 
ATOM     16  O   UNL     1       0.132  12.716  17.562  0.00  0.00    +0.000 OA
BRANCH   8  18
ATOM     17  C   UNL     1      -2.679   9.999  17.956  0.00  0.00    +0.000 C 
ATOM     18  C   UNL     1      -1.194  10.309  17.742  0.00  0.00    +0.000 C 
ENDBRANCH   8  18
ENDBRANCH   2   8
ENDBRANCH   1   6
BRANCH   1  19
ATOM     19  C   UNL     1       3.809   6.511  17.586  0.00  0.00    +0.000 A 
ATOM     20  C   UNL     1       2.899   5.492  17.914  0.00  0.00    +0.000 A 
ATOM     21  C   UNL     1       3.174   4.141  17.671  0.00  0.00    +0.000 A 
ATOM     22  C   UNL     1       4.414   3.815  17.112  0.00  0.00    +0.000 A 
ATOM     23  C   UNL     1       5.378   4.813  16.898  0.00  0.00    +0.000 A 
ATOM     24  C   UNL     1       5.092   6.164  17.163  0.00  0.00    +0.000 A 
BRANCH  24  25
ATOM     25  C   UNL     1       6.139   7.143  17.045  0.00  0.00    +0.000 C 
ATOM     26  N   UNL     1       7.027   7.876  16.956  0.00  0.00    +0.000 NA
ENDBRANCH  24  25
BRANCH  21  27
ATOM     27  C   UNL     1       2.174   3.068  18.093  0.00  0.00    +0.000 C 
BRANCH  27  28
ATOM     28  C   UNL     1       1.948   2.943  19.567  0.00  0.00    +0.000 A 
ATOM     29  C   UNL     1       0.816   3.079  20.352  0.00  0.00    +0.000 A 
ATOM     30  N   UNL     1       1.060   2.791  21.671  0.00  0.00    +0.000 NA
ATOM     31  C   UNL     1       2.331   2.461  21.714  0.00  0.00    +0.000 A 
ATOM     32  N   UNL     1       2.916   2.559  20.482  0.00  0.00    +0.000 N 
ATOM     33  C   UNL     1       4.310   2.297  20.222  0.00  0.00    +0.000 C 
ENDBRANCH  27  28
BRANCH  27  34
ATOM     34  N   UNL     1       2.614   1.783  17.538  0.00  0.00    +0.000 NA
ATOM     35  H   UNL     1       3.467   1.943  17.004  0.00  0.00    +0.000 HD
ATOM     36  H   UNL     1       1.922   1.489  16.848  0.00  0.00    +0.000 HD
ENDBRANCH  27  34
ENDBRANCH  21  27
ENDBRANCH   1  19
TORSDOF 8
ENDMDL
MODEL 2
REMARK VINA RESULT:      -8.4      0.759      1.116
REMARK  Name = 
REMARK  11 active torsions:
REMARK  status: ('A' for Active; 'I' for Inactive)
REMARK    1  A    between atoms: C_1  and  C_2
REMARK    2  A    between atoms: C_2  and  C_3
REMARK    3  A    between atoms: C_3  and  C_4
REMARK    4  A    between atoms: C_8  and  O_9
REMARK    5  A    between atoms: O_9  and  C_10
REMARK    6  A    between atoms: C_12  and  C_13
REMARK    7  A    between atoms: C_13  and  N_14
REMARK    8  A    between atoms: C_13  and  C_15
REMARK    9  A    between atoms: N_19  and  C_20
REMARK   10  A    between atoms: C_23  and  C_24
REMARK   11  A    between atoms: N_31  and  C_32
REMARK                            x       y       z     vdW  Elec       q    Type
REMARK                         _______ _______ _______ _____ _____    ______ ____
ROOT
ATOM      1  O   UNL     1       3.643   7.631  17.473  0.00  0.00    +0.000 OA
ENDROOT
BRANCH   1   6
ATOM      2  C   UNL     1       0.887   9.396  19.183  0.00  0.00    +0.000 A 
ATOM      3  C   UNL     1       0.893   8.707  20.410  0.00  0.00    +0.000 A 
ATOM      4  C   UNL     1       1.724   7.613  20.622  0.00  0.00    +0.000 A 
ATOM      5  C   UNL     1       2.550   7.168  19.600  0.00  0.00    +0.000 A 
ATOM      6  C   UNL     1       2.658   7.901  18.413  0.00  0.00    +0.000 A 
ATOM      7  C   UNL     1       1.797   8.976  18.183  0.00  0.00    +0.000 A 
BRANCH   2   8
ATOM      8  C   UNL     1      -0.144  10.516  18.925  0.00  0.00    +0.000 C 
ATOM      9  C   UNL     1      -1.218  10.708  20.052  0.00  0.00    +0.000 C 
ATOM     10  C   UNL     1      -0.750  10.808  21.505  0.00  0.00    +0.000 C 
ATOM     11  C   UNL     1       0.149  11.991  21.817  0.00  0.00    +0.000 C 
ATOM     12  C   UNL     1       1.449  11.997  21.027  0.00  0.00    +0.000 C 
ATOM     13  N   UNL     1       1.291  12.483  19.659  0.00  0.00    +0.000 N 
ATOM     14  C   UNL     1       2.098  13.622  19.246  0.00  0.00    +0.000 C 
ATOM     15  C   UNL     1       0.498  11.905  18.672  0.00  0.00    +0.000 C 
ATOM     16  O   UNL     1       0.317  12.503  17.606  0.00  0.00    +0.000 OA
BRANCH   8  18
ATOM     17  C   UNL     1      -2.495   9.985  17.771  0.00  0.00    +0.000 C 
ATOM     18  C   UNL     1      -0.970  10.070  17.653  0.00  0.00    +0.000 C 
ENDBRANCH   8  18
ENDBRANCH   2   8
ENDBRANCH   1   6
BRANCH   1  19
ATOM     19  C   UNL     1       4.268   6.396  17.581  0.00  0.00    +0.000 A 
ATOM     20  C   UNL     1       3.523   5.241  17.871  0.00  0.00    +0.000 A 
ATOM     21  C   UNL     1       4.080   3.957  17.800  0.00  0.00    +0.000 A 
ATOM     22  C   UNL     1       5.432   3.848  17.457  0.00  0.00    +0.000 A 
ATOM     23  C   UNL     1       6.215   5.002  17.290  0.00  0.00    +0.000 A 
ATOM     24  C   UNL     1       5.645   6.284  17.381  0.00  0.00    +0.000 A 
BRANCH  24  25
ATOM     25  C   UNL     1       6.497   7.440  17.321  0.00  0.00    +0.000 C 
ATOM     26  N   UNL     1       7.228   8.334  17.311  0.00  0.00    +0.000 NA
ENDBRANCH  24  25
BRANCH  21  27
ATOM     27  C   UNL     1       3.243   2.738  18.175  0.00  0.00    +0.000 C 
BRANCH  27  28
ATOM     28  C   UNL     1       2.774   2.691  19.595  0.00  0.00    +0.000 A 
ATOM     29  C   UNL     1       3.451   2.618  20.800  0.00  0.00    +0.000 A 
ATOM     30  N   UNL     1       2.604   2.681  21.877  0.00  0.00    +0.000 NA
ATOM     31  C   UNL     1       1.405   2.809  21.357  0.00  0.00    +0.000 A 
ATOM     32  N   UNL     1       1.449   2.796  19.990  0.00  0.00    +0.000 N 
ATOM     33  C   UNL     1       0.287   2.881  19.139  0.00  0.00    +0.000 C 
ENDBRANCH  27  28
BRANCH  27  34
ATOM     34  N   UNL     1       4.016   1.532  17.857  0.00  0.00    +0.000 NA
ATOM     35  H   UNL     1       3.563   1.062  17.074  0.00  0.00    +0.000 HD
ATOM     36  H   UNL     1       3.924   0.887  18.642  0.00  0.00    +0.000 HD
ENDBRANCH  27  34
ENDBRANCH  21  27
ENDBRANCH   1  19
TORSDOF 8
ENDMDL
MODEL 3
REMARK VINA RESULT:      -8.1      5.081      9.865
REMARK  Name = 
REMARK  11 active torsions:
REMARK  status: ('A' for Active; 'I' for Inactive)
REMARK    1  A    between atoms: C_1  and  C_2
REMARK    2  A    between atoms: C_2  and  C_3
REMARK    3  A    between atoms: C_3  and  C_4
REMARK    4  A    between atoms: C_8  and  O_9
REMARK    5  A    between atoms: O_9  and  C_10
REMARK    6  A    between atoms: C_12  and  C_13
REMARK    7  A    between atoms: C_13  and  N_14
REMARK    8  A    between atoms: C_13  and  C_15
REMARK    9  A    between atoms: N_19  and  C_20
REMARK   10  A    between atoms: C_23  and  C_24
REMARK   11  A    between atoms: N_31  and  C_32
REMARK                            x       y       z     vdW  Elec       q    Type
REMARK                         _______ _______ _______ _____ _____    ______ ____
ROOT
ATOM      1  O   UNL     1      -3.969  12.918  19.128  0.00  0.00    +0.000 OA
ENDROOT
BRANCH   1   6
ATOM      2  C   UNL     1      -1.061  10.643  19.081  0.00  0.00    +0.000 A 
ATOM      3  C   UNL     1      -1.323   9.952  17.884  0.00  0.00    +0.000 A 
ATOM      4  C   UNL     1      -2.494  10.166  17.166  0.00  0.00    +0.000 A 
ATOM      5  C   UNL     1      -3.441  11.058  17.645  0.00  0.00    +0.000 A 
ATOM      6  C   UNL     1      -3.159  11.850  18.764  0.00  0.00    +0.000 A 
ATOM      7  C   UNL     1      -2.002  11.609  19.508  0.00  0.00    +0.000 A 
BRANCH   2   8
ATOM      8  C   UNL     1       0.178  10.285  19.931  0.00  0.00    +0.000 C 
ATOM      9  C   UNL     1       1.383   9.675  19.132  0.00  0.00    +0.000 C 
ATOM     10  C   UNL     1       1.857  10.384  17.862  0.00  0.00    +0.000 C 
ATOM     11  C   UNL     1       2.383  11.794  18.063  0.00  0.00    +0.000 C 
ATOM     12  C   UNL     1       1.354  12.755  18.639  0.00  0.00    +0.000 C 
ATOM     13  N   UNL     1       1.180  12.618  20.082  0.00  0.00    +0.000 N 
ATOM     14  C   UNL     1       1.400  13.796  20.908  0.00  0.00    +0.000 C 
ATOM     15  C   UNL     1       0.737  11.479  20.749  0.00  0.00    +0.000 C 
ATOM     16  O   UNL     1       0.791  11.433  21.982  0.00  0.00    +0.000 OA
BRANCH   8  18
ATOM     17  C   UNL     1       0.745   8.062  21.301  0.00  0.00    +0.000 C 
ATOM     18  C   UNL     1      -0.279   9.133  20.911  0.00  0.00    +0.000 C 
ENDBRANCH   8  18
ENDBRANCH   2   8
ENDBRANCH   1   6
BRANCH   1  19
ATOM     19  C   UNL     1      -4.753  12.733  20.258  0.00  0.00    +0.000 A 
ATOM     20  C   UNL     1      -4.220  12.948  21.541  0.00  0.00    +0.000 A 
ATOM     21  C   UNL     1      -5.023  12.958  22.689  0.00  0.00    +0.000 A 
ATOM     22  C   UNL     1      -6.392  12.712  22.534  0.00  0.00    +0.000 A 
ATOM     23  C   UNL     1      -6.911  12.371  21.274  0.00  0.00    +0.000 A 
ATOM     24  C   UNL     1      -6.089  12.349  20.134  0.00  0.00    +0.000 A 
BRANCH  24  25
ATOM     25  C   UNL     1      -6.628  11.882  18.886  0.00  0.00    +0.000 C 
ATOM     26  N   UNL     1      -7.120  11.493  17.916  0.00  0.00    +0.000 NA
ENDBRANCH  24  25
BRANCH  21  27
ATOM     27  C   UNL     1      -4.390  13.145  24.064  0.00  0.00    +0.000 C 
BRANCH  27  28
ATOM     28  C   UNL     1      -3.071  13.854  24.075  0.00  0.00    +0.000 A 
ATOM     29  C   UNL     1      -1.787  13.440  23.769  0.00  0.00    +0.000 A 
ATOM     30  N   UNL     1      -0.879  14.466  23.843  0.00  0.00    +0.000 NA
ATOM     31  C   UNL     1      -1.587  15.520  24.179  0.00  0.00    +0.000 A 
ATOM     32  N   UNL     1      -2.905  15.202  24.354  0.00  0.00    +0.000 N 
ATOM     33  C   UNL     1      -3.920  16.142  24.761  0.00  0.00    +0.000 C 
ENDBRANCH  27  28
BRANCH  27  34
ATOM     34  N   UNL     1      -4.261  11.828  24.696  0.00  0.00    +0.000 NA
ATOM     35  H   UNL     1      -4.940  11.201  24.265  0.00  0.00    +0.000 HD
ATOM     36  H   UNL     1      -4.563  11.917  25.666  0.00  0.00    +0.000 HD
ENDBRANCH  27  34
ENDBRANCH  21  27
ENDBRANCH   1  19
TORSDOF 8
ENDMDL
MODEL 4
REMARK VINA RESULT:      -8.0      4.946      9.492
REMARK  Name = 
REMARK  11 active torsions:
REMARK  status: ('A' for Active; 'I' for Inactive)
REMARK    1  A    between atoms: C_1  and  C_2
REMARK    2  A    between atoms: C_2  and  C_3
REMARK    3  A    between atoms: C_3  and  C_4
REMARK    4  A    between atoms: C_8  and  O_9
REMARK    5  A    between atoms: O_9  and  C_10
REMARK    6  A    between atoms: C_12  and  C_13
REMARK    7  A    between atoms: C_13  and  N_14
REMARK    8  A    between atoms: C_13  and  C_15
REMARK    9  A    between atoms: N_19  and  C_20
REMARK   10  A    between atoms: C_23  and  C_24
REMARK   11  A    between atoms: N_31  and  C_32
REMARK                            x       y       z     vdW  Elec       q    Type
REMARK                         _______ _______ _______ _____ _____    ______ ____
ROOT
ATOM      1  O   UNL     1      -0.908  12.134  23.496  0.00  0.00    +0.000 OA
ENDROOT
BRANCH   1   6
ATOM      2  C   UNL     1       0.050  10.185  20.509  0.00  0.00    +0.000 A 
ATOM      3  C   UNL     1      -0.146   8.884  21.006  0.00  0.00    +0.000 A 
ATOM      4  C   UNL     1      -0.486   8.660  22.336  0.00  0.00    +0.000 A 
ATOM      5  C   UNL     1      -0.613   9.734  23.204  0.00  0.00    +0.000 A 
ATOM      6  C   UNL     1      -0.546  11.044  22.716  0.00  0.00    +0.000 A 
ATOM      7  C   UNL     1      -0.166  11.270  21.392  0.00  0.00    +0.000 A 
BRANCH   2   8
ATOM      8  C   UNL     1       0.564  10.398  19.069  0.00  0.00    +0.000 C 
ATOM      9  C   UNL     1      -0.370   9.844  17.937  0.00  0.00    +0.000 C 
ATOM     10  C   UNL     1      -1.858  10.194  17.974  0.00  0.00    +0.000 C 
ATOM     11  C   UNL     1      -2.181  11.673  17.858  0.00  0.00    +0.000 C 
ATOM     12  C   UNL     1      -1.593  12.518  18.978  0.00  0.00    +0.000 C 
ATOM     13  N   UNL     1      -0.175  12.816  18.792  0.00  0.00    +0.000 N 
ATOM     14  C   UNL     1       0.226  14.215  18.760  0.00  0.00    +0.000 C 
ATOM     15  C   UNL     1       0.856  11.883  18.727  0.00  0.00    +0.000 C 
ATOM     16  O   UNL     1       1.990  12.248  18.400  0.00  0.00    +0.000 OA
BRANCH   8  18
ATOM     17  C   UNL     1       2.127   8.752  17.661  0.00  0.00    +0.000 C 
ATOM     18  C   UNL     1       1.893   9.551  18.946  0.00  0.00    +0.000 C 
ENDBRANCH   8  18
ENDBRANCH   2   8
ENDBRANCH   1   6
BRANCH   1  19
ATOM     19  C   UNL     1      -1.932  12.928  22.999  0.00  0.00    +0.000 A 
ATOM     20  C   UNL     1      -3.217  12.395  22.798  0.00  0.00    +0.000 A 
ATOM     21  C   UNL     1      -4.317  13.202  22.482  0.00  0.00    +0.000 A 
ATOM     22  C   UNL     1      -4.101  14.577  22.335  0.00  0.00    +0.000 A 
ATOM     23  C   UNL     1      -2.801  15.100  22.408  0.00  0.00    +0.000 A 
ATOM     24  C   UNL     1      -1.703  14.274  22.710  0.00  0.00    +0.000 A 
BRANCH  24  25
ATOM     25  C   UNL     1      -0.375  14.821  22.661  0.00  0.00    +0.000 C 
ATOM     26  N   UNL     1       0.689  15.258  22.552  0.00  0.00    +0.000 NA
ENDBRANCH  24  25
BRANCH  21  27
ATOM     27  C   UNL     1      -5.681  12.569  22.223  0.00  0.00    +0.000 C 
BRANCH  27  28
ATOM     28  C   UNL     1      -6.500  13.218  21.152  0.00  0.00    +0.000 A 
ATOM     29  C   UNL     1      -7.482  14.193  21.191  0.00  0.00    +0.000 A 
ATOM     30  N   UNL     1      -7.911  14.548  19.936  0.00  0.00    +0.000 NA
ATOM     31  C   UNL     1      -7.194  13.816  19.115  0.00  0.00    +0.000 A 
ATOM     32  N   UNL     1      -6.349  12.983  19.795  0.00  0.00    +0.000 N 
ATOM     33  C   UNL     1      -5.465  12.034  19.165  0.00  0.00    +0.000 C 
ENDBRANCH  27  28
BRANCH  27  34
ATOM     34  N   UNL     1      -6.427  12.546  23.486  0.00  0.00    +0.000 NA
ATOM     35  H   UNL     1      -5.806  12.194  24.215  0.00  0.00    +0.000 HD
ATOM     36  H   UNL     1      -7.160  11.843  23.402  0.00  0.00    +0.000 HD
ENDBRANCH  27  34
ENDBRANCH  21  27
ENDBRANCH   1  19
TORSDOF 8
ENDMDL
MODEL 5
REMARK VINA RESULT:      -7.9      4.279     10.137
REMARK  Name = 
REMARK  11 active torsions:
REMARK  status: ('A' for Active; 'I' for Inactive)
REMARK    1  A    between atoms: C_1  and  C_2
REMARK    2  A    between atoms: C_2  and  C_3
REMARK    3  A    between atoms: C_3  and  C_4
REMARK    4  A    between atoms: C_8  and  O_9
REMARK    5  A    between atoms: O_9  and  C_10
REMARK    6  A    between atoms: C_12  and  C_13
REMARK    7  A    between atoms: C_13  and  N_14
REMARK    8  A    between atoms: C_13  and  C_15
REMARK    9  A    between atoms: N_19  and  C_20
REMARK   10  A    between atoms: C_23  and  C_24
REMARK   11  A    between atoms: N_31  and  C_32
REMARK                            x       y       z     vdW  Elec       q    Type
REMARK                         _______ _______ _______ _____ _____    ______ ____
ROOT
ATOM      1  O   UNL     1      -5.034  12.487  18.758  0.00  0.00    +0.000 OA
ENDROOT
BRANCH   1   6
ATOM      2  C   UNL     1      -1.483  11.479  18.656  0.00  0.00    +0.000 A 
ATOM      3  C   UNL     1      -1.592  10.317  17.872  0.00  0.00    +0.000 A 
ATOM      4  C   UNL     1      -2.830   9.823  17.477  0.00  0.00    +0.000 A 
ATOM      5  C   UNL     1      -3.989  10.469  17.880  0.00  0.00    +0.000 A 
ATOM      6  C   UNL     1      -3.913  11.693  18.554  0.00  0.00    +0.000 A 
ATOM      7  C   UNL     1      -2.674  12.169  18.986  0.00  0.00    +0.000 A 
BRANCH   2   8
ATOM      8  C   UNL     1      -0.108  11.926  19.198  0.00  0.00    +0.000 C 
ATOM      9  C   UNL     1      -0.099  12.391  20.696  0.00  0.00    +0.000 C 
ATOM     10  C   UNL     1      -0.766  11.502  21.746  0.00  0.00    +0.000 C 
ATOM     11  C   UNL     1      -0.154  10.122  21.913  0.00  0.00    +0.000 C 
ATOM     12  C   UNL     1      -0.203   9.274  20.651  0.00  0.00    +0.000 C 
ATOM     13  N   UNL     1       0.838   9.615  19.686  0.00  0.00    +0.000 N 
ATOM     14  C   UNL     1       1.747   8.559  19.266  0.00  0.00    +0.000 C 
ATOM     15  C   UNL     1       0.997  10.846  19.054  0.00  0.00    +0.000 C 
ATOM     16  O   UNL     1       2.013  11.063  18.386  0.00  0.00    +0.000 OA
BRANCH   8  18
ATOM     17  C   UNL     1       0.057  14.586  19.012  0.00  0.00    +0.000 C 
ATOM     18  C   UNL     1       0.293  13.213  18.374  0.00  0.00    +0.000 C 
ENDBRANCH   8  18
ENDBRANCH   2   8
ENDBRANCH   1   6
BRANCH   1  19
ATOM     19  C   UNL     1      -5.415  12.678  20.079  0.00  0.00    +0.000 A 
ATOM     20  C   UNL     1      -4.849  13.713  20.844  0.00  0.00    +0.000 A 
ATOM     21  C   UNL     1      -5.340  14.058  22.109  0.00  0.00    +0.000 A 
ATOM     22  C   UNL     1      -6.409  13.315  22.622  0.00  0.00    +0.000 A 
ATOM     23  C   UNL     1      -6.897  12.201  21.921  0.00  0.00    +0.000 A 
ATOM     24  C   UNL     1      -6.382  11.857  20.659  0.00  0.00    +0.000 A 
BRANCH  24  25
ATOM     25  C   UNL     1      -6.823  10.644  20.025  0.00  0.00    +0.000 C 
ATOM     26  N   UNL     1      -7.148   9.634  19.568  0.00  0.00    +0.000 NA
ENDBRANCH  24  25
BRANCH  21  27
ATOM     27  C   UNL     1      -4.658  15.155  22.922  0.00  0.00    +0.000 C 
BRANCH  27  28
ATOM     28  C   UNL     1      -3.192  14.967  23.155  0.00  0.00    +0.000 A 
ATOM     29  C   UNL     1      -2.482  14.139  24.006  0.00  0.00    +0.000 A 
ATOM     30  N   UNL     1      -1.126  14.245  23.822  0.00  0.00    +0.000 NA
ATOM     31  C   UNL     1      -0.984  15.120  22.853  0.00  0.00    +0.000 A 
ATOM     32  N   UNL     1      -2.193  15.602  22.434  0.00  0.00    +0.000 N 
ATOM     33  C   UNL     1      -2.356  16.603  21.408  0.00  0.00    +0.000 C 
ENDBRANCH  27  28
BRANCH  27  34
ATOM     34  N   UNL     1      -5.362  15.286  24.202  0.00  0.00    +0.000 NA
ATOM     35  H   UNL     1      -4.664  15.379  24.940  0.00  0.00    +0.000 HD
ATOM     36  H   UNL     1      -5.830  14.400  24.393  0.00  0.00    +0.000 HD
ENDBRANCH  27  34
ENDBRANCH  21  27
ENDBRANCH   1  19
TORSDOF 8
ENDMDL
MODEL 6
REMARK VINA RESULT:      -7.8      2.271      8.001
REMARK  Name = 
REMARK  11 active torsions:
REMARK  status: ('A' for Active; 'I' for Inactive)
REMARK    1  A    between atoms: C_1  and  C_2
REMARK    2  A    between atoms: C_2  and  C_3
REMARK    3  A    between atoms: C_3  and  C_4
REMARK    4  A    between atoms: C_8  and  O_9
REMARK    5  A    between atoms: O_9  and  C_10
REMARK    6  A    between atoms: C_12  and  C_13
REMARK    7  A    between atoms: C_13  and  N_14
REMARK    8  A    between atoms: C_13  and  C_15
REMARK    9  A    between atoms: N_19  and  C_20
REMARK   10  A    between atoms: C_23  and  C_24
REMARK   11  A    between atoms: N_31  and  C_32
REMARK                            x       y       z     vdW  Elec       q    Type
REMARK                         _______ _______ _______ _____ _____    ______ ____
ROOT
ATOM      1  O   UNL     1       1.384   4.516  18.441  0.00  0.00    +0.000 OA
ENDROOT
BRANCH   1   6
ATOM      2  C   UNL     1       4.635   3.731  16.877  0.00  0.00    +0.000 A 
ATOM      3  C   UNL     1       4.665   2.340  17.082  0.00  0.00    +0.000 A 
ATOM      4  C   UNL     1       3.676   1.696  17.817  0.00  0.00    +0.000 A 
ATOM      5  C   UNL     1       2.649   2.434  18.384  0.00  0.00    +0.000 A 
ATOM      6  C   UNL     1       2.522   3.798  18.098  0.00  0.00    +0.000 A 
ATOM      7  C   UNL     1       3.534   4.454  17.394  0.00  0.00    +0.000 A 
BRANCH   2   8
ATOM      8  C   UNL     1       5.817   4.440  16.179  0.00  0.00    +0.000 C 
ATOM      9  C   UNL     1       5.466   5.803  15.488  0.00  0.00    +0.000 C 
ATOM     10  C   UNL     1       4.678   6.847  16.281  0.00  0.00    +0.000 C 
ATOM     11  C   UNL     1       5.367   7.372  17.528  0.00  0.00    +0.000 C 
ATOM     12  C   UNL     1       5.664   6.298  18.562  0.00  0.00    +0.000 C 
ATOM     13  N   UNL     1       6.850   5.505  18.245  0.00  0.00    +0.000 N 
ATOM     14  C   UNL     1       7.921   5.464  19.229  0.00  0.00    +0.000 C 
ATOM     15  C   UNL     1       7.023   4.706  17.118  0.00  0.00    +0.000 C 
ATOM     16  O   UNL     1       8.133   4.218  16.881  0.00  0.00    +0.000 OA
BRANCH   8  18
ATOM     17  C   UNL     1       5.901   3.899  13.564  0.00  0.00    +0.000 C 
ATOM     18  C   UNL     1       6.262   3.491  14.996  0.00  0.00    +0.000 C 
ENDBRANCH   8  18
ENDBRANCH   2   8
ENDBRANCH   1   6
BRANCH   1  19
ATOM     19  C   UNL     1       1.590   5.671  19.183  0.00  0.00    +0.000 A 
ATOM     20  C   UNL     1       1.621   6.928  18.555  0.00  0.00    +0.000 A 
ATOM     21  C   UNL     1       1.635   8.124  19.283  0.00  0.00    +0.000 A 
ATOM     22  C   UNL     1       1.651   8.041  20.680  0.00  0.00    +0.000 A 
ATOM     23  C   UNL     1       1.749   6.792  21.313  0.00  0.00    +0.000 A 
ATOM     24  C   UNL     1       1.751   5.600  20.567  0.00  0.00    +0.000 A 
BRANCH  24  25
ATOM     25  C   UNL     1       1.970   4.348  21.239  0.00  0.00    +0.000 C 
ATOM     26  N   UNL     1       2.199   3.373  21.815  0.00  0.00    +0.000 NA
ENDBRANCH  24  25
BRANCH  21  27
ATOM     27  C   UNL     1       1.720   9.462  18.555  0.00  0.00    +0.000 C 
BRANCH  27  28
ATOM     28  C   UNL     1       0.480  10.300  18.598  0.00  0.00    +0.000 A 
ATOM     29  C   UNL     1      -0.741  10.192  17.956  0.00  0.00    +0.000 A 
ATOM     30  N   UNL     1      -1.630  11.154  18.364  0.00  0.00    +0.000 NA
ATOM     31  C   UNL     1      -0.979  11.853  19.267  0.00  0.00    +0.000 A 
ATOM     32  N   UNL     1       0.300  11.396  19.427  0.00  0.00    +0.000 N 
ATOM     33  C   UNL     1       1.266  11.985  20.321  0.00  0.00    +0.000 C 
ENDBRANCH  27  28
BRANCH  27  34
ATOM     34  N   UNL     1       2.110   9.207  17.164  0.00  0.00    +0.000 NA
ATOM     35  H   UNL     1       1.686   8.327  16.871  0.00  0.00    +0.000 HD
ATOM     36  H   UNL     1       3.114   9.034  17.148  0.00  0.00    +0.000 HD
ENDBRANCH  27  34
ENDBRANCH  21  27
ENDBRANCH   1  19
TORSDOF 8
ENDMDL
MODEL 7
REMARK VINA RESULT:      -7.8      4.416     10.117
REMARK  Name = 
REMARK  11 active torsions:
REMARK  status: ('A' for Active; 'I' for Inactive)
REMARK    1  A    between atoms: C_1  and  C_2
REMARK    2  A    between atoms: C_2  and  C_3
REMARK    3  A    between atoms: C_3  and  C_4
REMARK    4  A    between atoms: C_8  and  O_9
REMARK    5  A    between atoms: O_9  and  C_10
REMARK    6  A    between atoms: C_12  and  C_13
REMARK    7  A    between atoms: C_13  and  N_14
REMARK    8  A    between atoms: C_13  and  C_15
REMARK    9  A    between atoms: N_19  and  C_20
REMARK   10  A    between atoms: C_23  and  C_24
REMARK   11  A    between atoms: N_31  and  C_32
REMARK                            x       y       z     vdW  Elec       q    Type
REMARK                         _______ _______ _______ _____ _____    ______ ____
ROOT
ATOM      1  O   UNL     1      -5.273  12.309  18.631  0.00  0.00    +0.000 OA
ENDROOT
BRANCH   1   6
ATOM      2  C   UNL     1      -1.670  11.501  18.641  0.00  0.00    +0.000 A 
ATOM      3  C   UNL     1      -1.691  10.328  17.864  0.00  0.00    +0.000 A 
ATOM      4  C   UNL     1      -2.888   9.763  17.438  0.00  0.00    +0.000 A 
ATOM      5  C   UNL     1      -4.092  10.347  17.802  0.00  0.00    +0.000 A 
ATOM      6  C   UNL     1      -4.105  11.578  18.467  0.00  0.00    +0.000 A 
ATOM      7  C   UNL     1      -2.907  12.126  18.930  0.00  0.00    +0.000 A 
BRANCH   2   8
ATOM      8  C   UNL     1      -0.339  12.027  19.219  0.00  0.00    +0.000 C 
ATOM      9  C   UNL     1      -0.398  12.496  20.715  0.00  0.00    +0.000 C 
ATOM     10  C   UNL     1      -1.042  11.572  21.750  0.00  0.00    +0.000 C 
ATOM     11  C   UNL     1      -0.356  10.230  21.938  0.00  0.00    +0.000 C 
ATOM     12  C   UNL     1      -0.321   9.378  20.679  0.00  0.00    +0.000 C 
ATOM     13  N   UNL     1       0.725   9.777  19.742  0.00  0.00    +0.000 N 
ATOM     14  C   UNL     1       1.705   8.774  19.351  0.00  0.00    +0.000 C 
ATOM     15  C   UNL     1       0.830  11.013  19.110  0.00  0.00    +0.000 C 
ATOM     16  O   UNL     1       1.850  11.286  18.468  0.00  0.00    +0.000 OA
BRANCH   8  18
ATOM     17  C   UNL     1      -0.221  14.692  19.071  0.00  0.00    +0.000 C 
ATOM     18  C   UNL     1       0.010  13.334  18.401  0.00  0.00    +0.000 C 
ENDBRANCH   8  18
ENDBRANCH   2   8
ENDBRANCH   1   6
BRANCH   1  19
ATOM     19  C   UNL     1      -5.715  12.471  19.937  0.00  0.00    +0.000 A 
ATOM     20  C   UNL     1      -5.247  13.538  20.724  0.00  0.00    +0.000 A 
ATOM     21  C   UNL     1      -5.806  13.846  21.970  0.00  0.00    +0.000 A 
ATOM     22  C   UNL     1      -6.842  13.033  22.443  0.00  0.00    +0.000 A 
ATOM     23  C   UNL     1      -7.229  11.891  21.723  0.00  0.00    +0.000 A 
ATOM     24  C   UNL     1      -6.646  11.586  20.481  0.00  0.00    +0.000 A 
BRANCH  24  25
ATOM     25  C   UNL     1      -6.983  10.349  19.829  0.00  0.00    +0.000 C 
ATOM     26  N   UNL     1      -7.185   9.342  19.301  0.00  0.00    +0.000 NA
ENDBRANCH  24  25
BRANCH  21  27
ATOM     27  C   UNL     1      -5.228  14.982  22.808  0.00  0.00    +0.000 C 
BRANCH  27  28
ATOM     28  C   UNL     1      -3.752  14.917  23.053  0.00  0.00    +0.000 A 
ATOM     29  C   UNL     1      -2.718  15.787  22.754  0.00  0.00    +0.000 A 
ATOM     30  N   UNL     1      -1.514  15.350  23.246  0.00  0.00    +0.000 NA
ATOM     31  C   UNL     1      -1.790  14.223  23.862  0.00  0.00    +0.000 A 
ATOM     32  N   UNL     1      -3.116  13.905  23.754  0.00  0.00    +0.000 N 
ATOM     33  C   UNL     1      -3.710  12.709  24.297  0.00  0.00    +0.000 C 
ENDBRANCH  27  28
BRANCH  27  34
ATOM     34  N   UNL     1      -5.950  15.029  24.084  0.00  0.00    +0.000 NA
ATOM     35  H   UNL     1      -6.523  15.872  24.094  0.00  0.00    +0.000 HD
ATOM     36  H   UNL     1      -5.264  15.167  24.826  0.00  0.00    +0.000 HD
ENDBRANCH  27  34
ENDBRANCH  21  27
ENDBRANCH   1  19
TORSDOF 8
ENDMDL
MODEL 8
REMARK VINA RESULT:      -7.5      6.241     10.448
REMARK  Name = 
REMARK  11 active torsions:
REMARK  status: ('A' for Active; 'I' for Inactive)
REMARK    1  A    between atoms: C_1  and  C_2
REMARK    2  A    between atoms: C_2  and  C_3
REMARK    3  A    between atoms: C_3  and  C_4
REMARK    4  A    between atoms: C_8  and  O_9
REMARK    5  A    between atoms: O_9  and  C_10
REMARK    6  A    between atoms: C_12  and  C_13
REMARK    7  A    between atoms: C_13  and  N_14
REMARK    8  A    between atoms: C_13  and  C_15
REMARK    9  A    between atoms: N_19  and  C_20
REMARK   10  A    between atoms: C_23  and  C_24
REMARK   11  A    between atoms: N_31  and  C_32
REMARK                            x       y       z     vdW  Elec       q    Type
REMARK                         _______ _______ _______ _____ _____    ______ ____
ROOT
ATOM      1  O   UNL     1      -5.020  12.198  18.329  0.00  0.00    +0.000 OA
ENDROOT
BRANCH   1   6
ATOM      2  C   UNL     1      -1.569  11.390  19.366  0.00  0.00    +0.000 A 
ATOM      3  C   UNL     1      -1.254  10.420  18.396  0.00  0.00    +0.000 A 
ATOM      4  C   UNL     1      -2.205   9.971  17.486  0.00  0.00    +0.000 A 
ATOM      5  C   UNL     1      -3.499  10.464  17.543  0.00  0.00    +0.000 A 
ATOM      6  C   UNL     1      -3.814  11.516  18.412  0.00  0.00    +0.000 A 
ATOM      7  C   UNL     1      -2.873  11.940  19.353  0.00  0.00    +0.000 A 
BRANCH   2   8
ATOM      8  C   UNL     1      -0.538  11.766  20.452  0.00  0.00    +0.000 C 
ATOM      9  C   UNL     1       0.964  11.580  20.042  0.00  0.00    +0.000 C 
ATOM     10  C   UNL     1       1.438  12.155  18.706  0.00  0.00    +0.000 C 
ATOM     11  C   UNL     1       1.332  13.664  18.575  0.00  0.00    +0.000 C 
ATOM     12  C   UNL     1      -0.089  14.191  18.700  0.00  0.00    +0.000 C 
ATOM     13  N   UNL     1      -0.550  14.283  20.082  0.00  0.00    +0.000 N 
ATOM     14  C   UNL     1      -0.998  15.581  20.564  0.00  0.00    +0.000 C 
ATOM     15  C   UNL     1      -0.687  13.221  20.972  0.00  0.00    +0.000 C 
ATOM     16  O   UNL     1      -0.927  13.448  22.162  0.00  0.00    +0.000 OA
BRANCH   8  18
ATOM     17  C   UNL     1       0.063   9.458  21.655  0.00  0.00    +0.000 C 
ATOM     18  C   UNL     1      -0.761  10.749  21.641  0.00  0.00    +0.000 C 
ENDBRANCH   8  18
ENDBRANCH   2   8
ENDBRANCH   1   6
BRANCH   1  19
ATOM     19  C   UNL     1      -5.620  12.527  19.537  0.00  0.00    +0.000 A 
ATOM     20  C   UNL     1      -5.269  13.708  20.211  0.00  0.00    +0.000 A 
ATOM     21  C   UNL     1      -5.981  14.170  21.325  0.00  0.00    +0.000 A 
ATOM     22  C   UNL     1      -7.054  13.397  21.784  0.00  0.00    +0.000 A 
ATOM     23  C   UNL     1      -7.332  12.154  21.195  0.00  0.00    +0.000 A 
ATOM     24  C   UNL     1      -6.597  11.696  20.087  0.00  0.00    +0.000 A 
BRANCH  24  25
ATOM     25  C   UNL     1      -6.831  10.369  19.585  0.00  0.00    +0.000 C 
ATOM     26  N   UNL     1      -6.954   9.287  19.200  0.00  0.00    +0.000 NA
ENDBRANCH  24  25
BRANCH  21  27
ATOM     27  C   UNL     1      -5.528  15.432  22.054  0.00  0.00    +0.000 C 
BRANCH  27  28
ATOM     28  C   UNL     1      -4.491  15.227  23.114  0.00  0.00    +0.000 A 
ATOM     29  C   UNL     1      -4.209  14.160  23.949  0.00  0.00    +0.000 A 
ATOM     30  N   UNL     1      -3.097  14.385  24.721  0.00  0.00    +0.000 NA
ATOM     31  C   UNL     1      -2.674  15.576  24.365  0.00  0.00    +0.000 A 
ATOM     32  N   UNL     1      -3.489  16.134  23.420  0.00  0.00    +0.000 N 
ATOM     33  C   UNL     1      -3.301  17.451  22.861  0.00  0.00    +0.000 C 
ENDBRANCH  27  28
BRANCH  27  34
ATOM     34  N   UNL     1      -6.711  16.086  22.624  0.00  0.00    +0.000 NA
ATOM     35  H   UNL     1      -6.420  16.978  23.022  0.00  0.00    +0.000 HD
ATOM     36  H   UNL     1      -7.021  15.530  23.421  0.00  0.00    +0.000 HD
ENDBRANCH  27  34
ENDBRANCH  21  27
ENDBRANCH   1  19
TORSDOF 8
ENDMDL
MODEL 9
REMARK VINA RESULT:      -7.5      1.320      2.432
REMARK  Name = 
REMARK  11 active torsions:
REMARK  status: ('A' for Active; 'I' for Inactive)
REMARK    1  A    between atoms: C_1  and  C_2
REMARK    2  A    between atoms: C_2  and  C_3
REMARK    3  A    between atoms: C_3  and  C_4
REMARK    4  A    between atoms: C_8  and  O_9
REMARK    5  A    between atoms: O_9  and  C_10
REMARK    6  A    between atoms: C_12  and  C_13
REMARK    7  A    between atoms: C_13  and  N_14
REMARK    8  A    between atoms: C_13  and  C_15
REMARK    9  A    between atoms: N_19  and  C_20
REMARK   10  A    between atoms: C_23  and  C_24
REMARK   11  A    between atoms: N_31  and  C_32
REMARK                            x       y       z     vdW  Elec       q    Type
REMARK                         _______ _______ _______ _____ _____    ______ ____
ROOT
ATOM      1  O   UNL     1       3.623   7.339  17.204  0.00  0.00    +0.000 OA
ENDROOT
BRANCH   1   6
ATOM      2  C   UNL     1       1.687   9.711  19.268  0.00  0.00    +0.000 A 
ATOM      3  C   UNL     1       1.432   8.895  20.385  0.00  0.00    +0.000 A 
ATOM      4  C   UNL     1       1.804   7.555  20.404  0.00  0.00    +0.000 A 
ATOM      5  C   UNL     1       2.418   6.996  19.293  0.00  0.00    +0.000 A 
ATOM      6  C   UNL     1       2.796   7.806  18.217  0.00  0.00    +0.000 A 
ATOM      7  C   UNL     1       2.389   9.142  18.179  0.00  0.00    +0.000 A 
BRANCH   2   8
ATOM      8  C   UNL     1       1.139  11.153  19.217  0.00  0.00    +0.000 C 
ATOM      9  C   UNL     1       0.092  11.431  18.082  0.00  0.00    +0.000 C 
ATOM     10  C   UNL     1      -1.079  10.463  17.909  0.00  0.00    +0.000 C 
ATOM     11  C   UNL     1      -2.022  10.366  19.096  0.00  0.00    +0.000 C 
ATOM     12  C   UNL     1      -1.352   9.883  20.372  0.00  0.00    +0.000 C 
ATOM     13  N   UNL     1      -0.599  10.928  21.061  0.00  0.00    +0.000 N 
ATOM     14  C   UNL     1      -0.955  11.223  22.441  0.00  0.00    +0.000 C 
ATOM     15  C   UNL     1       0.495  11.620  20.549  0.00  0.00    +0.000 C 
ATOM     16  O   UNL     1       0.941  12.596  21.162  0.00  0.00    +0.000 OA
BRANCH   8  18
ATOM     17  C   UNL     1       2.139  13.268  17.926  0.00  0.00    +0.000 C 
ATOM     18  C   UNL     1       2.370  12.080  18.866  0.00  0.00    +0.000 C 
ENDBRANCH   8  18
ENDBRANCH   2   8
ENDBRANCH   1   6
BRANCH   1  19
ATOM     19  C   UNL     1       4.279   6.141  17.454  0.00  0.00    +0.000 A 
ATOM     20  C   UNL     1       3.553   4.983  17.780  0.00  0.00    +0.000 A 
ATOM     21  C   UNL     1       4.156   3.721  17.852  0.00  0.00    +0.000 A 
ATOM     22  C   UNL     1       5.533   3.639  17.619  0.00  0.00    +0.000 A 
ATOM     23  C   UNL     1       6.287   4.806  17.418  0.00  0.00    +0.000 A 
ATOM     24  C   UNL     1       5.669   6.068  17.365  0.00  0.00    +0.000 A 
BRANCH  24  25
ATOM     25  C   UNL     1       6.484   7.249  17.276  0.00  0.00    +0.000 C 
ATOM     26  N   UNL     1       7.195   8.156  17.200  0.00  0.00    +0.000 NA
ENDBRANCH  24  25
BRANCH  21  27
ATOM     27  C   UNL     1       3.335   2.502  18.260  0.00  0.00    +0.000 C 
BRANCH  27  28
ATOM     28  C   UNL     1       2.817   2.515  19.664  0.00  0.00    +0.000 A 
ATOM     29  C   UNL     1       3.450   2.430  20.892  0.00  0.00    +0.000 A 
ATOM     30  N   UNL     1       2.574   2.567  21.939  0.00  0.00    +0.000 NA
ATOM     31  C   UNL     1       1.401   2.751  21.376  0.00  0.00    +0.000 A 
ATOM     32  N   UNL     1       1.489   2.704  20.012  0.00  0.00    +0.000 N 
ATOM     33  C   UNL     1       0.362   2.836  19.121  0.00  0.00    +0.000 C 
ENDBRANCH  27  28
BRANCH  27  34
ATOM     34  N   UNL     1       4.145   1.301  18.030  0.00  0.00    +0.000 NA
ATOM     35  H   UNL     1       4.763   1.481  17.239  0.00  0.00    +0.000 HD
ATOM     36  H   UNL     1       3.520   0.560  17.713  0.00  0.00    +0.000 HD
ENDBRANCH  27  34
ENDBRANCH  21  27
ENDBRANCH   1  19
TORSDOF 8
ENDMDL
