MODEL 1
REMARK VINA RESULT:      -7.4      0.000      0.000
REMARK  Name = 
REMARK  12 active torsions:
REMARK  status: ('A' for Active; 'I' for Inactive)
REMARK    1  A    between atoms: C_1  and  O_2
REMARK    2  A    between atoms: O_2  and  C_3
REMARK    3  A    between atoms: C_3  and  O_4
REMARK    4  A    between atoms: O_4  and  C_5
REMARK    5  A    between atoms: C_8  and  C_9
REMARK    6  A    between atoms: C_13  and  C_14
REMARK    7  A    between atoms: C_16  and  O_17
REMARK    8  A    between atoms: O_17  and  C_18
REMARK    9  A    between atoms: C_19  and  O_20
REMARK   10  A    between atoms: O_20  and  C_21
REMARK   11  A    between atoms: C_22  and  O_23
REMARK   12  A    between atoms: O_23  and  C_24
REMARK                            x       y       z     vdW  Elec       q    Type
REMARK                         _______ _______ _______ _____ _____    ______ ____
ROOT
ATOM      1  C   UNL     1       2.822   4.387  18.516  0.00  0.00    +0.000 A 
ATOM      2  C   UNL     1       2.117   3.413  19.197  0.00  0.00    +0.000 A 
ATOM      3  N   UNL     1       2.576   2.186  18.801  0.00  0.00    +0.000 N 
ATOM      4  C   UNL     1       3.584   2.353  17.889  0.00  0.00    +0.000 A 
ATOM      5  C   UNL     1       3.792   3.708  17.698  0.00  0.00    +0.000 A 
ATOM      6  H   UNL     1       2.228   1.299  19.133  0.00  0.00    +0.000 HD
ENDROOT
BRANCH   1  10
ATOM      7  C   UNL     1       1.871   8.519  19.013  0.00  0.00    +0.000 A 
ATOM      8  C   UNL     1       2.201   8.018  17.755  0.00  0.00    +0.000 A 
ATOM      9  C   UNL     1       2.520   6.666  17.602  0.00  0.00    +0.000 A 
ATOM     10  C   UNL     1       2.549   5.808  18.706  0.00  0.00    +0.000 A 
ATOM     11  C   UNL     1       2.277   6.334  19.975  0.00  0.00    +0.000 A 
ATOM     12  C   UNL     1       1.928   7.680  20.124  0.00  0.00    +0.000 A 
BRANCH   7  13
ATOM     13  O   UNL     1       1.492   9.808  19.264  0.00  0.00    +0.000 OA
BRANCH  13  14
ATOM     14  C   UNL     1       0.099  10.072  19.106  0.00  0.00    +0.000 C 
BRANCH  14  16
ATOM     15  C   UNL     1       0.261  11.141  21.193  0.00  0.00    +0.000 C 
ATOM     16  O   UNL     1      -0.533  10.301  20.366  0.00  0.00    +0.000 OA
ENDBRANCH  14  16
ENDBRANCH  13  14
ENDBRANCH   7  13
ENDBRANCH   1  10
BRANCH   5  17
ATOM     17  C   UNL     1       4.827   4.240  16.813  0.00  0.00    +0.000 A 
ATOM     18  C   UNL     1       5.679   5.264  17.231  0.00  0.00    +0.000 A 
ATOM     19  C   UNL     1       6.736   5.695  16.417  0.00  0.00    +0.000 A 
ATOM     20  C   UNL     1       6.956   5.089  15.160  0.00  0.00    +0.000 A 
ATOM     21  C   UNL     1       6.075   4.086  14.712  0.00  0.00    +0.000 A 
ATOM     22  C   UNL     1       5.010   3.698  15.536  0.00  0.00    +0.000 A 
BRANCH  19  23
ATOM     23  O   UNL     1       7.599   6.704  16.780  0.00  0.00    +0.000 OA
ATOM     24  C   UNL     1       7.827   6.873  18.174  0.00  0.00    +0.000 C 
ENDBRANCH  19  23
BRANCH  20  25
ATOM     25  O   UNL     1       8.005   5.605  14.433  0.00  0.00    +0.000 OA
ATOM     26  C   UNL     1       7.888   5.578  13.016  0.00  0.00    +0.000 C 
ENDBRANCH  20  25
BRANCH  21  27
ATOM     27  O   UNL     1       6.308   3.497  13.498  0.00  0.00    +0.000 OA
ATOM     28  C   UNL     1       5.223   3.425  12.581  0.00  0.00    +0.000 C 
ENDBRANCH  21  27
ENDBRANCH   5  17
TORSDOF 8
ENDMDL
MODEL 2
REMARK VINA RESULT:      -7.3      2.934      6.925
REMARK  Name = 
REMARK  12 active torsions:
REMARK  status: ('A' for Active; 'I' for Inactive)
REMARK    1  A    between atoms: C_1  and  O_2
REMARK    2  A    between atoms: O_2  and  C_3
REMARK    3  A    between atoms: C_3  and  O_4
REMARK    4  A    between atoms: O_4  and  C_5
REMARK    5  A    between atoms: C_8  and  C_9
REMARK    6  A    between atoms: C_13  and  C_14
REMARK    7  A    between atoms: C_16  and  O_17
REMARK    8  A    between atoms: O_17  and  C_18
REMARK    9  A    between atoms: C_19  and  O_20
REMARK   10  A    between atoms: O_20  and  C_21
REMARK   11  A    between atoms: C_22  and  O_23
REMARK   12  A    between atoms: O_23  and  C_24
REMARK                            x       y       z     vdW  Elec       q    Type
REMARK                         _______ _______ _______ _____ _____    ______ ____
ROOT
ATOM      1  C   UNL     1       6.202   5.280  17.122  0.00  0.00    +0.000 A 
ATOM      2  C   UNL     1       6.719   4.456  16.140  0.00  0.00    +0.000 A 
ATOM      3  N   UNL     1       5.791   3.495  15.845  0.00  0.00    +0.000 N 
ATOM      4  C   UNL     1       4.670   3.700  16.606  0.00  0.00    +0.000 A 
ATOM      5  C   UNL     1       4.869   4.817  17.399  0.00  0.00    +0.000 A 
ATOM      6  H   UNL     1       5.911   2.756  15.169  0.00  0.00    +0.000 HD
ENDROOT
BRANCH   1  10
ATOM      7  C   UNL     1       8.574   8.482  18.655  0.00  0.00    +0.000 A 
ATOM      8  C   UNL     1       8.571   7.240  19.288  0.00  0.00    +0.000 A 
ATOM      9  C   UNL     1       7.785   6.200  18.786  0.00  0.00    +0.000 A 
ATOM     10  C   UNL     1       6.967   6.396  17.669  0.00  0.00    +0.000 A 
ATOM     11  C   UNL     1       6.929   7.664  17.076  0.00  0.00    +0.000 A 
ATOM     12  C   UNL     1       7.739   8.697  17.560  0.00  0.00    +0.000 A 
BRANCH   7  13
ATOM     13  O   UNL     1       9.344   9.547  19.029  0.00  0.00    +0.000 OA
BRANCH  13  14
ATOM     14  C   UNL     1       9.076  10.763  18.332  0.00  0.00    +0.000 C 
BRANCH  14  16
ATOM     15  C   UNL     1      10.081  12.744  17.565  0.00  0.00    +0.000 C 
ATOM     16  O   UNL     1      10.281  11.369  17.863  0.00  0.00    +0.000 OA
ENDBRANCH  14  16
ENDBRANCH  13  14
ENDBRANCH   7  13
ENDBRANCH   1  10
BRANCH   5  17
ATOM     17  C   UNL     1       3.851   5.340  18.309  0.00  0.00    +0.000 A 
ATOM     18  C   UNL     1       3.427   4.607  19.418  0.00  0.00    +0.000 A 
ATOM     19  C   UNL     1       2.530   5.159  20.343  0.00  0.00    +0.000 A 
ATOM     20  C   UNL     1       2.046   6.475  20.163  0.00  0.00    +0.000 A 
ATOM     21  C   UNL     1       2.434   7.204  19.024  0.00  0.00    +0.000 A 
ATOM     22  C   UNL     1       3.309   6.614  18.103  0.00  0.00    +0.000 A 
BRANCH  19  23
ATOM     23  O   UNL     1       2.076   4.476  21.448  0.00  0.00    +0.000 OA
ATOM     24  C   UNL     1       2.190   3.058  21.408  0.00  0.00    +0.000 C 
ENDBRANCH  19  23
BRANCH  20  25
ATOM     25  O   UNL     1       1.152   6.909  21.116  0.00  0.00    +0.000 OA
ATOM     26  C   UNL     1       1.252   8.265  21.531  0.00  0.00    +0.000 C 
ENDBRANCH  20  25
BRANCH  21  27
ATOM     27  O   UNL     1       1.970   8.484  18.869  0.00  0.00    +0.000 OA
ATOM     28  C   UNL     1       1.913   9.010  17.549  0.00  0.00    +0.000 C 
ENDBRANCH  21  27
ENDBRANCH   5  17
TORSDOF 8
ENDMDL
MODEL 3
REMARK VINA RESULT:      -7.2      2.918      6.865
REMARK  Name = 
REMARK  12 active torsions:
REMARK  status: ('A' for Active; 'I' for Inactive)
REMARK    1  A    between atoms: C_1  and  O_2
REMARK    2  A    between atoms: O_2  and  C_3
REMARK    3  A    between atoms: C_3  and  O_4
REMARK    4  A    between atoms: O_4  and  C_5
REMARK    5  A    between atoms: C_8  and  C_9
REMARK    6  A    between atoms: C_13  and  C_14
REMARK    7  A    between atoms: C_16  and  O_17
REMARK    8  A    between atoms: O_17  and  C_18
REMARK    9  A    between atoms: C_19  and  O_20
REMARK   10  A    between atoms: O_20  and  C_21
REMARK   11  A    between atoms: C_22  and  O_23
REMARK   12  A    between atoms: O_23  and  C_24
REMARK                            x       y       z     vdW  Elec       q    Type
REMARK                         _______ _______ _______ _____ _____    ______ ____
ROOT
ATOM      1  C   UNL     1       6.243   5.205  17.053  0.00  0.00    +0.000 A 
ATOM      2  C   UNL     1       6.749   4.305  16.133  0.00  0.00    +0.000 A 
ATOM      3  N   UNL     1       5.789   3.369  15.867  0.00  0.00    +0.000 N 
ATOM      4  C   UNL     1       4.659   3.662  16.583  0.00  0.00    +0.000 A 
ATOM      5  C   UNL     1       4.884   4.813  17.318  0.00  0.00    +0.000 A 
ATOM      6  H   UNL     1       5.895   2.587  15.237  0.00  0.00    +0.000 HD
ENDROOT
BRANCH   1  10
ATOM      7  C   UNL     1       8.436   8.530  18.592  0.00  0.00    +0.000 A 
ATOM      8  C   UNL     1       7.711   8.650  17.407  0.00  0.00    +0.000 A 
ATOM      9  C   UNL     1       7.004   7.555  16.904  0.00  0.00    +0.000 A 
ATOM     10  C   UNL     1       7.040   6.318  17.558  0.00  0.00    +0.000 A 
ATOM     11  C   UNL     1       7.820   6.190  18.713  0.00  0.00    +0.000 A 
ATOM     12  C   UNL     1       8.504   7.294  19.233  0.00  0.00    +0.000 A 
BRANCH   7  13
ATOM     13  O   UNL     1       9.116   9.548  19.197  0.00  0.00    +0.000 OA
BRANCH  13  14
ATOM     14  C   UNL     1       9.273  10.726  18.406  0.00  0.00    +0.000 C 
BRANCH  14  16
ATOM     15  C   UNL     1      11.369  11.678  18.879  0.00  0.00    +0.000 C 
ATOM     16  O   UNL     1       9.971  11.745  19.124  0.00  0.00    +0.000 OA
ENDBRANCH  14  16
ENDBRANCH  13  14
ENDBRANCH   7  13
ENDBRANCH   1  10
BRANCH   5  17
ATOM     17  C   UNL     1       3.866   5.430  18.168  0.00  0.00    +0.000 A 
ATOM     18  C   UNL     1       3.273   4.722  19.215  0.00  0.00    +0.000 A 
ATOM     19  C   UNL     1       2.377   5.351  20.089  0.00  0.00    +0.000 A 
ATOM     20  C   UNL     1       2.068   6.719  19.924  0.00  0.00    +0.000 A 
ATOM     21  C   UNL     1       2.627   7.429  18.845  0.00  0.00    +0.000 A 
ATOM     22  C   UNL     1       3.496   6.764  17.970  0.00  0.00    +0.000 A 
BRANCH  19  23
ATOM     23  O   UNL     1       1.761   4.696  21.131  0.00  0.00    +0.000 OA
ATOM     24  C   UNL     1       2.316   3.440  21.508  0.00  0.00    +0.000 C 
ENDBRANCH  19  23
BRANCH  20  25
ATOM     25  O   UNL     1       1.158   7.230  20.823  0.00  0.00    +0.000 OA
ATOM     26  C   UNL     1       1.552   8.379  21.563  0.00  0.00    +0.000 C 
ENDBRANCH  20  25
BRANCH  21  27
ATOM     27  O   UNL     1       2.330   8.759  18.704  0.00  0.00    +0.000 OA
ATOM     28  C   UNL     1       1.449   9.131  17.650  0.00  0.00    +0.000 C 
ENDBRANCH  21  27
ENDBRANCH   5  17
TORSDOF 8
ENDMDL
MODEL 4
REMARK VINA RESULT:      -7.2      1.567      7.007
REMARK  Name = 
REMARK  12 active torsions:
REMARK  status: ('A' for Active; 'I' for Inactive)
REMARK    1  A    between atoms: C_1  and  O_2
REMARK    2  A    between atoms: O_2  and  C_3
REMARK    3  A    between atoms: C_3  and  O_4
REMARK    4  A    between atoms: O_4  and  C_5
REMARK    5  A    between atoms: C_8  and  C_9
REMARK    6  A    between atoms: C_13  and  C_14
REMARK    7  A    between atoms: C_16  and  O_17
REMARK    8  A    between atoms: O_17  and  C_18
REMARK    9  A    between atoms: C_19  and  O_20
REMARK   10  A    between atoms: O_20  and  C_21
REMARK   11  A    between atoms: C_22  and  O_23
REMARK   12  A    between atoms: O_23  and  C_24
REMARK                            x       y       z     vdW  Elec       q    Type
REMARK                         _______ _______ _______ _____ _____    ______ ____
ROOT
ATOM      1  C   UNL     1       3.628   3.678  19.860  0.00  0.00    +0.000 A 
ATOM      2  C   UNL     1       3.525   2.477  20.537  0.00  0.00    +0.000 A 
ATOM      3  N   UNL     1       2.562   2.600  21.500  0.00  0.00    +0.000 N 
ATOM      4  C   UNL     1       2.022   3.857  21.442  0.00  0.00    +0.000 A 
ATOM      5  C   UNL     1       2.636   4.558  20.418  0.00  0.00    +0.000 A 
ATOM      6  H   UNL     1       2.289   1.876  22.148  0.00  0.00    +0.000 HD
ENDROOT
BRANCH   1  10
ATOM      7  C   UNL     1       6.350   4.374  16.647  0.00  0.00    +0.000 A 
ATOM      8  C   UNL     1       5.153   3.697  16.422  0.00  0.00    +0.000 A 
ATOM      9  C   UNL     1       4.271   3.464  17.481  0.00  0.00    +0.000 A 
ATOM     10  C   UNL     1       4.589   3.873  18.781  0.00  0.00    +0.000 A 
ATOM     11  C   UNL     1       5.822   4.497  19.008  0.00  0.00    +0.000 A 
ATOM     12  C   UNL     1       6.691   4.757  17.943  0.00  0.00    +0.000 A 
BRANCH   7  13
ATOM     13  O   UNL     1       7.256   4.700  15.677  0.00  0.00    +0.000 OA
BRANCH  13  14
ATOM     14  C   UNL     1       6.692   5.038  14.410  0.00  0.00    +0.000 C 
BRANCH  14  16
ATOM     15  C   UNL     1       5.923   3.548  12.762  0.00  0.00    +0.000 C 
ATOM     16  O   UNL     1       7.067   4.095  13.406  0.00  0.00    +0.000 OA
ENDBRANCH  14  16
ENDBRANCH  13  14
ENDBRANCH   7  13
ENDBRANCH   1  10
BRANCH   5  17
ATOM     17  C   UNL     1       2.268   5.927  20.056  0.00  0.00    +0.000 A 
ATOM     18  C   UNL     1       1.633   6.770  20.969  0.00  0.00    +0.000 A 
ATOM     19  C   UNL     1       1.380   8.111  20.651  0.00  0.00    +0.000 A 
ATOM     20  C   UNL     1       1.773   8.628  19.396  0.00  0.00    +0.000 A 
ATOM     21  C   UNL     1       2.373   7.774  18.453  0.00  0.00    +0.000 A 
ATOM     22  C   UNL     1       2.586   6.431  18.790  0.00  0.00    +0.000 A 
BRANCH  19  23
ATOM     23  O   UNL     1       0.751   8.981  21.512  0.00  0.00    +0.000 OA
ATOM     24  C   UNL     1      -0.586   8.656  21.878  0.00  0.00    +0.000 C 
ENDBRANCH  19  23
BRANCH  20  25
ATOM     25  O   UNL     1       1.454   9.951  19.178  0.00  0.00    +0.000 OA
ATOM     26  C   UNL     1       0.261  10.219  18.452  0.00  0.00    +0.000 C 
ENDBRANCH  20  25
BRANCH  21  27
ATOM     27  O   UNL     1       2.763   8.292  17.246  0.00  0.00    +0.000 OA
ATOM     28  C   UNL     1       3.903   7.717  16.619  0.00  0.00    +0.000 C 
ENDBRANCH  21  27
ENDBRANCH   5  17
TORSDOF 8
ENDMDL
MODEL 5
REMARK VINA RESULT:      -7.2      2.949      6.879
REMARK  Name = 
REMARK  12 active torsions:
REMARK  status: ('A' for Active; 'I' for Inactive)
REMARK    1  A    between atoms: C_1  and  O_2
REMARK    2  A    between atoms: O_2  and  C_3
REMARK    3  A    between atoms: C_3  and  O_4
REMARK    4  A    between atoms: O_4  and  C_5
REMARK    5  A    between atoms: C_8  and  C_9
REMARK    6  A    between atoms: C_13  and  C_14
REMARK    7  A    between atoms: C_16  and  O_17
REMARK    8  A    between atoms: O_17  and  C_18
REMARK    9  A    between atoms: C_19  and  O_20
REMARK   10  A    between atoms: O_20  and  C_21
REMARK   11  A    between atoms: C_22  and  O_23
REMARK   12  A    between atoms: O_23  and  C_24
REMARK                            x       y       z     vdW  Elec       q    Type
REMARK                         _______ _______ _______ _____ _____    ______ ____
ROOT
ATOM      1  C   UNL     1       6.230   5.199  17.162  0.00  0.00    +0.000 A 
ATOM      2  C   UNL     1       6.665   4.321  16.187  0.00  0.00    +0.000 A 
ATOM      3  N   UNL     1       5.691   3.384  15.978  0.00  0.00    +0.000 N 
ATOM      4  C   UNL     1       4.620   3.656  16.787  0.00  0.00    +0.000 A 
ATOM      5  C   UNL     1       4.898   4.793  17.526  0.00  0.00    +0.000 A 
ATOM      6  H   UNL     1       5.751   2.616  15.325  0.00  0.00    +0.000 HD
ENDROOT
BRANCH   1  10
ATOM      7  C   UNL     1       8.519   8.513  18.577  0.00  0.00    +0.000 A 
ATOM      8  C   UNL     1       7.784   8.615  17.397  0.00  0.00    +0.000 A 
ATOM      9  C   UNL     1       7.045   7.524  16.935  0.00  0.00    +0.000 A 
ATOM     10  C   UNL     1       7.059   6.307  17.625  0.00  0.00    +0.000 A 
ATOM     11  C   UNL     1       7.849   6.193  18.775  0.00  0.00    +0.000 A 
ATOM     12  C   UNL     1       8.565   7.295  19.254  0.00  0.00    +0.000 A 
BRANCH   7  13
ATOM     13  O   UNL     1       9.231   9.531  19.145  0.00  0.00    +0.000 OA
BRANCH  13  14
ATOM     14  C   UNL     1       9.086  10.800  18.508  0.00  0.00    +0.000 C 
BRANCH  14  16
ATOM     15  C   UNL     1      10.636  12.493  18.001  0.00  0.00    +0.000 C 
ATOM     16  O   UNL     1      10.255  11.144  17.762  0.00  0.00    +0.000 OA
ENDBRANCH  14  16
ENDBRANCH  13  14
ENDBRANCH   7  13
ENDBRANCH   1  10
BRANCH   5  17
ATOM     17  C   UNL     1       3.948   5.386  18.466  0.00  0.00    +0.000 A 
ATOM     18  C   UNL     1       3.403   6.652  18.242  0.00  0.00    +0.000 A 
ATOM     19  C   UNL     1       2.415   7.168  19.090  0.00  0.00    +0.000 A 
ATOM     20  C   UNL     1       1.951   6.405  20.185  0.00  0.00    +0.000 A 
ATOM     21  C   UNL     1       2.526   5.147  20.445  0.00  0.00    +0.000 A 
ATOM     22  C   UNL     1       3.534   4.671  19.595  0.00  0.00    +0.000 A 
BRANCH  19  23
ATOM     23  O   UNL     1       1.852   8.412  18.917  0.00  0.00    +0.000 OA
ATOM     24  C   UNL     1       2.100   9.052  17.670  0.00  0.00    +0.000 C 
ENDBRANCH  19  23
BRANCH  20  25
ATOM     25  O   UNL     1       0.997   7.017  20.968  0.00  0.00    +0.000 OA
ATOM     26  C   UNL     1       1.369   8.226  21.617  0.00  0.00    +0.000 C 
ENDBRANCH  20  25
BRANCH  21  27
ATOM     27  O   UNL     1       2.057   4.411  21.501  0.00  0.00    +0.000 OA
ATOM     28  C   UNL     1       2.237   3.001  21.453  0.00  0.00    +0.000 C 
ENDBRANCH  21  27
ENDBRANCH   5  17
TORSDOF 8
ENDMDL
MODEL 6
REMARK VINA RESULT:      -7.1      1.061      1.089
REMARK  Name = 
REMARK  12 active torsions:
REMARK  status: ('A' for Active; 'I' for Inactive)
REMARK    1  A    between atoms: C_1  and  O_2
REMARK    2  A    between atoms: O_2  and  C_3
REMARK    3  A    between atoms: C_3  and  O_4
REMARK    4  A    between atoms: O_4  and  C_5
REMARK    5  A    between atoms: C_8  and  C_9
REMARK    6  A    between atoms: C_13  and  C_14
REMARK    7  A    between atoms: C_16  and  O_17
REMARK    8  A    between atoms: O_17  and  C_18
REMARK    9  A    between atoms: C_19  and  O_20
REMARK   10  A    between atoms: O_20  and  C_21
REMARK   11  A    between atoms: C_22  and  O_23
REMARK   12  A    between atoms: O_23  and  C_24
REMARK                            x       y       z     vdW  Elec       q    Type
REMARK                         _______ _______ _______ _____ _____    ______ ____
ROOT
ATOM      1  C   UNL     1       2.468   3.908  18.791  0.00  0.00    +0.000 A 
ATOM      2  C   UNL     1       1.700   2.868  19.280  0.00  0.00    +0.000 A 
ATOM      3  N   UNL     1       2.096   1.710  18.669  0.00  0.00    +0.000 N 
ATOM      4  C   UNL     1       3.126   1.982  17.808  0.00  0.00    +0.000 A 
ATOM      5  C   UNL     1       3.412   3.335  17.869  0.00  0.00    +0.000 A 
ATOM      6  H   UNL     1       1.695   0.798  18.831  0.00  0.00    +0.000 HD
ENDROOT
BRANCH   1  10
ATOM      7  C   UNL     1       1.751   7.938  20.005  0.00  0.00    +0.000 A 
ATOM      8  C   UNL     1       2.263   7.663  18.738  0.00  0.00    +0.000 A 
ATOM      9  C   UNL     1       2.504   6.342  18.352  0.00  0.00    +0.000 A 
ATOM     10  C   UNL     1       2.271   5.284  19.236  0.00  0.00    +0.000 A 
ATOM     11  C   UNL     1       1.816   5.573  20.528  0.00  0.00    +0.000 A 
ATOM     12  C   UNL     1       1.545   6.893  20.905  0.00  0.00    +0.000 A 
BRANCH   7  13
ATOM     13  O   UNL     1       1.429   9.184  20.464  0.00  0.00    +0.000 OA
BRANCH  13  14
ATOM     14  C   UNL     1       0.047   9.385  20.753  0.00  0.00    +0.000 C 
BRANCH  14  16
ATOM     15  C   UNL     1      -0.109   9.539  23.093  0.00  0.00    +0.000 C 
ATOM     16  O   UNL     1      -0.130  10.260  21.868  0.00  0.00    +0.000 OA
ENDBRANCH  14  16
ENDBRANCH  13  14
ENDBRANCH   7  13
ENDBRANCH   1  10
BRANCH   5  17
ATOM     17  C   UNL     1       4.489   3.958  17.101  0.00  0.00    +0.000 A 
ATOM     18  C   UNL     1       5.641   4.435  17.729  0.00  0.00    +0.000 A 
ATOM     19  C   UNL     1       6.713   4.934  16.977  0.00  0.00    +0.000 A 
ATOM     20  C   UNL     1       6.641   4.955  15.566  0.00  0.00    +0.000 A 
ATOM     21  C   UNL     1       5.466   4.518  14.927  0.00  0.00    +0.000 A 
ATOM     22  C   UNL     1       4.400   4.052  15.708  0.00  0.00    +0.000 A 
BRANCH  19  23
ATOM     23  O   UNL     1       7.867   5.422  17.547  0.00  0.00    +0.000 OA
ATOM     24  C   UNL     1       7.761   5.901  18.883  0.00  0.00    +0.000 C 
ENDBRANCH  19  23
BRANCH  20  25
ATOM     25  O   UNL     1       7.739   5.488  14.928  0.00  0.00    +0.000 OA
ATOM     26  C   UNL     1       7.877   5.217  13.539  0.00  0.00    +0.000 C 
ENDBRANCH  20  25
BRANCH  21  27
ATOM     27  O   UNL     1       5.414   4.529  13.558  0.00  0.00    +0.000 OA
ATOM     28  C   UNL     1       5.124   3.302  12.899  0.00  0.00    +0.000 C 
ENDBRANCH  21  27
ENDBRANCH   5  17
TORSDOF 8
ENDMDL
MODEL 7
REMARK VINA RESULT:      -7.1      1.527      7.283
REMARK  Name = 
REMARK  12 active torsions:
REMARK  status: ('A' for Active; 'I' for Inactive)
REMARK    1  A    between atoms: C_1  and  O_2
REMARK    2  A    between atoms: O_2  and  C_3
REMARK    3  A    between atoms: C_3  and  O_4
REMARK    4  A    between atoms: O_4  and  C_5
REMARK    5  A    between atoms: C_8  and  C_9
REMARK    6  A    between atoms: C_13  and  C_14
REMARK    7  A    between atoms: C_16  and  O_17
REMARK    8  A    between atoms: O_17  and  C_18
REMARK    9  A    between atoms: C_19  and  O_20
REMARK   10  A    between atoms: O_20  and  C_21
REMARK   11  A    between atoms: C_22  and  O_23
REMARK   12  A    between atoms: O_23  and  C_24
REMARK                            x       y       z     vdW  Elec       q    Type
REMARK                         _______ _______ _______ _____ _____    ______ ____
ROOT
ATOM      1  C   UNL     1       3.533   3.709  19.875  0.00  0.00    +0.000 A 
ATOM      2  C   UNL     1       3.370   2.496  20.517  0.00  0.00    +0.000 A 
ATOM      3  N   UNL     1       2.407   2.638  21.478  0.00  0.00    +0.000 N 
ATOM      4  C   UNL     1       1.928   3.920  21.453  0.00  0.00    +0.000 A 
ATOM      5  C   UNL     1       2.581   4.620  20.453  0.00  0.00    +0.000 A 
ATOM      6  H   UNL     1       2.095   1.909  22.103  0.00  0.00    +0.000 HD
ENDROOT
BRANCH   1  10
ATOM      7  C   UNL     1       6.304   4.363  16.694  0.00  0.00    +0.000 A 
ATOM      8  C   UNL     1       5.095   3.712  16.454  0.00  0.00    +0.000 A 
ATOM      9  C   UNL     1       4.198   3.493  17.502  0.00  0.00    +0.000 A 
ATOM     10  C   UNL     1       4.511   3.889  18.807  0.00  0.00    +0.000 A 
ATOM     11  C   UNL     1       5.753   4.486  19.050  0.00  0.00    +0.000 A 
ATOM     12  C   UNL     1       6.639   4.733  17.996  0.00  0.00    +0.000 A 
BRANCH   7  13
ATOM     13  O   UNL     1       7.227   4.674  15.735  0.00  0.00    +0.000 OA
BRANCH  13  14
ATOM     14  C   UNL     1       6.686   4.971  14.448  0.00  0.00    +0.000 C 
BRANCH  14  16
ATOM     15  C   UNL     1       5.835   3.549  12.781  0.00  0.00    +0.000 C 
ATOM     16  O   UNL     1       6.992   3.942  13.506  0.00  0.00    +0.000 OA
ENDBRANCH  14  16
ENDBRANCH  13  14
ENDBRANCH   7  13
ENDBRANCH   1  10
BRANCH   5  17
ATOM     17  C   UNL     1       2.281   6.014  20.128  0.00  0.00    +0.000 A 
ATOM     18  C   UNL     1       2.729   6.591  18.939  0.00  0.00    +0.000 A 
ATOM     19  C   UNL     1       2.349   7.893  18.585  0.00  0.00    +0.000 A 
ATOM     20  C   UNL     1       1.498   8.638  19.432  0.00  0.00    +0.000 A 
ATOM     21  C   UNL     1       1.078   8.080  20.654  0.00  0.00    +0.000 A 
ATOM     22  C   UNL     1       1.499   6.787  20.993  0.00  0.00    +0.000 A 
BRANCH  19  23
ATOM     23  O   UNL     1       2.769   8.510  17.428  0.00  0.00    +0.000 OA
ATOM     24  C   UNL     1       3.874   7.914  16.758  0.00  0.00    +0.000 C 
ENDBRANCH  19  23
BRANCH  20  25
ATOM     25  O   UNL     1       1.207   9.913  19.001  0.00  0.00    +0.000 OA
ATOM     26  C   UNL     1      -0.068  10.123  18.408  0.00  0.00    +0.000 C 
ENDBRANCH  20  25
BRANCH  21  27
ATOM     27  O   UNL     1       0.241   8.807  21.459  0.00  0.00    +0.000 OA
ATOM     28  C   UNL     1       0.778   9.329  22.668  0.00  0.00    +0.000 C 
ENDBRANCH  21  27
ENDBRANCH   5  17
TORSDOF 8
ENDMDL
MODEL 8
REMARK VINA RESULT:      -7.1      0.871      1.270
REMARK  Name = 
REMARK  12 active torsions:
REMARK  status: ('A' for Active; 'I' for Inactive)
REMARK    1  A    between atoms: C_1  and  O_2
REMARK    2  A    between atoms: O_2  and  C_3
REMARK    3  A    between atoms: C_3  and  O_4
REMARK    4  A    between atoms: O_4  and  C_5
REMARK    5  A    between atoms: C_8  and  C_9
REMARK    6  A    between atoms: C_13  and  C_14
REMARK    7  A    between atoms: C_16  and  O_17
REMARK    8  A    between atoms: O_17  and  C_18
REMARK    9  A    between atoms: C_19  and  O_20
REMARK   10  A    between atoms: O_20  and  C_21
REMARK   11  A    between atoms: C_22  and  O_23
REMARK   12  A    between atoms: O_23  and  C_24
REMARK                            x       y       z     vdW  Elec       q    Type
REMARK                         _______ _______ _______ _____ _____    ______ ____
ROOT
ATOM      1  C   UNL     1       3.027   3.785  18.551  0.00  0.00    +0.000 A 
ATOM      2  C   UNL     1       2.463   2.727  19.237  0.00  0.00    +0.000 A 
ATOM      3  N   UNL     1       3.023   1.565  18.783  0.00  0.00    +0.000 N 
ATOM      4  C   UNL     1       3.960   1.857  17.829  0.00  0.00    +0.000 A 
ATOM      5  C   UNL     1       4.018   3.231  17.667  0.00  0.00    +0.000 A 
ATOM      6  H   UNL     1       2.787   0.638  19.106  0.00  0.00    +0.000 HD
ENDROOT
BRANCH   1  10
ATOM      7  C   UNL     1       1.981   7.849  19.341  0.00  0.00    +0.000 A 
ATOM      8  C   UNL     1       1.879   6.886  20.344  0.00  0.00    +0.000 A 
ATOM      9  C   UNL     1       2.214   5.556  20.075  0.00  0.00    +0.000 A 
ATOM     10  C   UNL     1       2.620   5.165  18.795  0.00  0.00    +0.000 A 
ATOM     11  C   UNL     1       2.661   6.127  17.778  0.00  0.00    +0.000 A 
ATOM     12  C   UNL     1       2.355   7.463  18.054  0.00  0.00    +0.000 A 
BRANCH   7  13
ATOM     13  O   UNL     1       1.731   9.181  19.510  0.00  0.00    +0.000 OA
BRANCH  13  14
ATOM     14  C   UNL     1       1.597   9.930  18.303  0.00  0.00    +0.000 C 
BRANCH  14  16
ATOM     15  C   UNL     1       1.060  11.510  19.958  0.00  0.00    +0.000 C 
ATOM     16  O   UNL     1       1.128  11.254  18.562  0.00  0.00    +0.000 OA
ENDBRANCH  14  16
ENDBRANCH  13  14
ENDBRANCH   7  13
ENDBRANCH   1  10
BRANCH   5  17
ATOM     17  C   UNL     1       4.946   3.888  16.748  0.00  0.00    +0.000 A 
ATOM     18  C   UNL     1       5.820   4.882  17.191  0.00  0.00    +0.000 A 
ATOM     19  C   UNL     1       6.778   5.432  16.329  0.00  0.00    +0.000 A 
ATOM     20  C   UNL     1       6.875   4.978  14.995  0.00  0.00    +0.000 A 
ATOM     21  C   UNL     1       5.969   4.008  14.527  0.00  0.00    +0.000 A 
ATOM     22  C   UNL     1       5.003   3.499  15.405  0.00  0.00    +0.000 A 
BRANCH  19  23
ATOM     23  O   UNL     1       7.657   6.419  16.715  0.00  0.00    +0.000 OA
ATOM     24  C   UNL     1       7.119   7.472  17.507  0.00  0.00    +0.000 C 
ENDBRANCH  19  23
BRANCH  20  25
ATOM     25  O   UNL     1       7.834   5.602  14.228  0.00  0.00    +0.000 OA
ATOM     26  C   UNL     1       8.057   5.087  12.922  0.00  0.00    +0.000 C 
ENDBRANCH  20  25
BRANCH  21  27
ATOM     27  O   UNL     1       6.084   3.565  13.235  0.00  0.00    +0.000 OA
ATOM     28  C   UNL     1       4.915   3.589  12.424  0.00  0.00    +0.000 C 
ENDBRANCH  21  27
ENDBRANCH   5  17
TORSDOF 8
ENDMDL
MODEL 9
REMARK VINA RESULT:      -7.1      2.537      7.453
REMARK  Name = 
REMARK  12 active torsions:
REMARK  status: ('A' for Active; 'I' for Inactive)
REMARK    1  A    between atoms: C_1  and  O_2
REMARK    2  A    between atoms: O_2  and  C_3
REMARK    3  A    between atoms: C_3  and  O_4
REMARK    4  A    between atoms: O_4  and  C_5
REMARK    5  A    between atoms: C_8  and  C_9
REMARK    6  A    between atoms: C_13  and  C_14
REMARK    7  A    between atoms: C_16  and  O_17
REMARK    8  A    between atoms: O_17  and  C_18
REMARK    9  A    between atoms: C_19  and  O_20
REMARK   10  A    between atoms: O_20  and  C_21
REMARK   11  A    between atoms: C_22  and  O_23
REMARK   12  A    between atoms: O_23  and  C_24
REMARK                            x       y       z     vdW  Elec       q    Type
REMARK                         _______ _______ _______ _____ _____    ______ ____
ROOT
ATOM      1  C   UNL     1       3.178   5.069  19.454  0.00  0.00    +0.000 A 
ATOM      2  C   UNL     1       2.922   3.714  19.556  0.00  0.00    +0.000 A 
ATOM      3  N   UNL     1       1.750   3.543  20.240  0.00  0.00    +0.000 N 
ATOM      4  C   UNL     1       1.231   4.768  20.563  0.00  0.00    +0.000 A 
ATOM      5  C   UNL     1       2.073   5.752  20.072  0.00  0.00    +0.000 A 
ATOM      6  H   UNL     1       1.332   2.653  20.466  0.00  0.00    +0.000 HD
ENDROOT
BRANCH   1  10
ATOM      7  C   UNL     1       6.648   6.706  17.581  0.00  0.00    +0.000 A 
ATOM      8  C   UNL     1       5.384   6.919  17.033  0.00  0.00    +0.000 A 
ATOM      9  C   UNL     1       4.254   6.372  17.647  0.00  0.00    +0.000 A 
ATOM     10  C   UNL     1       4.375   5.577  18.791  0.00  0.00    +0.000 A 
ATOM     11  C   UNL     1       5.654   5.317  19.298  0.00  0.00    +0.000 A 
ATOM     12  C   UNL     1       6.782   5.889  18.703  0.00  0.00    +0.000 A 
BRANCH   7  13
ATOM     13  O   UNL     1       7.809   7.236  17.093  0.00  0.00    +0.000 OA
BRANCH  13  14
ATOM     14  C   UNL     1       8.046   8.599  17.444  0.00  0.00    +0.000 C 
BRANCH  14  16
ATOM     15  C   UNL     1       9.118  10.034  18.966  0.00  0.00    +0.000 C 
ATOM     16  O   UNL     1       8.676   8.706  18.721  0.00  0.00    +0.000 OA
ENDBRANCH  14  16
ENDBRANCH  13  14
ENDBRANCH   7  13
ENDBRANCH   1  10
BRANCH   5  17
ATOM     17  C   UNL     1       1.795   7.181  20.208  0.00  0.00    +0.000 A 
ATOM     18  C   UNL     1       1.687   8.006  19.087  0.00  0.00    +0.000 A 
ATOM     19  C   UNL     1       1.316   9.351  19.220  0.00  0.00    +0.000 A 
ATOM     20  C   UNL     1       1.041   9.888  20.497  0.00  0.00    +0.000 A 
ATOM     21  C   UNL     1       1.191   9.075  21.636  0.00  0.00    +0.000 A 
ATOM     22  C   UNL     1       1.592   7.743  21.473  0.00  0.00    +0.000 A 
BRANCH  19  23
ATOM     23  O   UNL     1       1.203  10.207  18.148  0.00  0.00    +0.000 OA
ATOM     24  C   UNL     1       2.352  10.984  17.832  0.00  0.00    +0.000 C 
ENDBRANCH  19  23
BRANCH  20  25
ATOM     25  O   UNL     1       0.710  11.225  20.515  0.00  0.00    +0.000 OA
ATOM     26  C   UNL     1      -0.666  11.555  20.379  0.00  0.00    +0.000 C 
ENDBRANCH  20  25
BRANCH  21  27
ATOM     27  O   UNL     1       0.906   9.604  22.867  0.00  0.00    +0.000 OA
ATOM     28  C   UNL     1      -0.443   9.543  23.315  0.00  0.00    +0.000 C 
ENDBRANCH  21  27
ENDBRANCH   5  17
TORSDOF 8
ENDMDL
