MODEL 1
REMARK VINA RESULT:      -7.9      0.000      0.000
REMARK  Name = 
REMARK  9 active torsions:
REMARK  status: ('A' for Active; 'I' for Inactive)
REMARK    1  A    between atoms: C_1  and  O_2
REMARK    2  A    between atoms: O_2  and  C_3
REMARK    3  A    between atoms: C_11  and  O_12
REMARK    4  A    between atoms: O_12  and  C_13
REMARK    5  A    between atoms: C_14  and  O_15
REMARK    6  A    between atoms: O_15  and  C_16
REMARK    7  A    between atoms: C_19  and  C_20
REMARK    8  A    between atoms: C_25  and  O_26
REMARK    9  A    between atoms: O_26  and  C_27
REMARK                            x       y       z     vdW  Elec       q    Type
REMARK                         _______ _______ _______ _____ _____    ______ ____
ROOT
ATOM      1  C   UNL     1       3.171   4.412  18.807  0.00  0.00    +0.000 A 
ATOM      2  C   UNL     1       3.149   5.571  18.024  0.00  0.00    +0.000 A 
ATOM      3  C   UNL     1       2.598   6.771  18.495  0.00  0.00    +0.000 A 
ATOM      4  C   UNL     1       2.618   7.870  17.670  0.00  0.00    +0.000 A 
ATOM      5  C   UNL     1       2.089   9.059  18.115  0.00  0.00    +0.000 A 
ATOM      6  N   UNL     1       1.535   9.233  19.347  0.00  0.00    +0.000 N 
ATOM      7  C   UNL     1       1.067  10.472  19.767  0.00  0.00    +0.000 A 
ATOM      8  C   UNL     1       1.183  11.633  18.961  0.00  0.00    +0.000 A 
ATOM      9  C   UNL     1       0.752  12.899  19.368  0.00  0.00    +0.000 A 
ATOM     10  C   UNL     1       0.134  13.042  20.608  0.00  0.00    +0.000 A 
ATOM     11  C   UNL     1       0.005  11.916  21.428  0.00  0.00    +0.000 A 
ATOM     12  C   UNL     1       0.468  10.630  21.046  0.00  0.00    +0.000 A 
ATOM     13  C   UNL     1       0.354   9.520  21.891  0.00  0.00    +0.000 A 
ATOM     14  C   UNL     1      -0.259   9.518  23.271  0.00  0.00    +0.000 C 
ATOM     15  C   UNL     1       0.851   8.298  21.445  0.00  0.00    +0.000 A 
ATOM     16  C   UNL     1       1.462   8.131  20.187  0.00  0.00    +0.000 A 
ATOM     17  C   UNL     1       2.034   6.873  19.768  0.00  0.00    +0.000 A 
ATOM     18  C   UNL     1       2.108   5.700  20.561  0.00  0.00    +0.000 A 
ATOM     19  C   UNL     1       2.686   4.493  20.113  0.00  0.00    +0.000 A 
ENDROOT
BRANCH   1  21
ATOM     20  C   UNL     1       2.773   2.296  17.829  0.00  0.00    +0.000 C 
ATOM     21  O   UNL     1       3.714   3.251  18.326  0.00  0.00    +0.000 OA
ENDBRANCH   1  21
BRANCH   9  22
ATOM     22  O   UNL     1       0.855  14.011  18.570  0.00  0.00    +0.000 OA
ATOM     23  C   UNL     1       2.132  14.640  18.489  0.00  0.00    +0.000 C 
ENDBRANCH   9  22
BRANCH  10  24
ATOM     24  O   UNL     1      -0.297  14.298  20.942  0.00  0.00    +0.000 OA
ATOM     25  C   UNL     1       0.025  14.788  22.240  0.00  0.00    +0.000 C 
ENDBRANCH  10  24
BRANCH  19  26
ATOM     26  O   UNL     1       2.695   3.547  21.102  0.00  0.00    +0.000 OA
ATOM     27  C   UNL     1       1.504   2.828  21.367  0.00  0.00    +0.000 C 
ENDBRANCH  19  26
TORSDOF 4
ENDMDL
MODEL 2
REMARK VINA RESULT:      -7.4      1.107      8.510
REMARK  Name = 
REMARK  9 active torsions:
REMARK  status: ('A' for Active; 'I' for Inactive)
REMARK    1  A    between atoms: C_1  and  O_2
REMARK    2  A    between atoms: O_2  and  C_3
REMARK    3  A    between atoms: C_11  and  O_12
REMARK    4  A    between atoms: O_12  and  C_13
REMARK    5  A    between atoms: C_14  and  O_15
REMARK    6  A    between atoms: O_15  and  C_16
REMARK    7  A    between atoms: C_19  and  C_20
REMARK    8  A    between atoms: C_25  and  O_26
REMARK    9  A    between atoms: O_26  and  C_27
REMARK                            x       y       z     vdW  Elec       q    Type
REMARK                         _______ _______ _______ _____ _____    ______ ____
ROOT
ATOM      1  C   UNL     1       0.247  12.261  19.884  0.00  0.00    +0.000 A 
ATOM      2  C   UNL     1       0.024  11.128  20.672  0.00  0.00    +0.000 A 
ATOM      3  C   UNL     1       0.633   9.898  20.388  0.00  0.00    +0.000 A 
ATOM      4  C   UNL     1       0.370   8.830  21.212  0.00  0.00    +0.000 A 
ATOM      5  C   UNL     1       0.963   7.616  20.956  0.00  0.00    +0.000 A 
ATOM      6  N   UNL     1       1.817   7.389  19.919  0.00  0.00    +0.000 N 
ATOM      7  C   UNL     1       2.433   6.156  19.740  0.00  0.00    +0.000 A 
ATOM      8  C   UNL     1       2.249   5.084  20.648  0.00  0.00    +0.000 A 
ATOM      9  C   UNL     1       2.880   3.843  20.513  0.00  0.00    +0.000 A 
ATOM     10  C   UNL     1       3.702   3.614  19.413  0.00  0.00    +0.000 A 
ATOM     11  C   UNL     1       3.906   4.653  18.499  0.00  0.00    +0.000 A 
ATOM     12  C   UNL     1       3.302   5.929  18.638  0.00  0.00    +0.000 A 
ATOM     13  C   UNL     1       3.538   6.965  17.727  0.00  0.00    +0.000 A 
ATOM     14  C   UNL     1       4.424   6.885  16.507  0.00  0.00    +0.000 C 
ATOM     15  C   UNL     1       2.919   8.192  17.949  0.00  0.00    +0.000 A 
ATOM     16  C   UNL     1       2.070   8.436  19.045  0.00  0.00    +0.000 A 
ATOM     17  C   UNL     1       1.490   9.734  19.298  0.00  0.00    +0.000 A 
ATOM     18  C   UNL     1       1.739  10.906  18.541  0.00  0.00    +0.000 A 
ATOM     19  C   UNL     1       1.156  12.159  18.831  0.00  0.00    +0.000 A 
ENDROOT
BRANCH   1  21
ATOM     20  C   UNL     1       0.280  14.227  21.198  0.00  0.00    +0.000 C 
ATOM     21  O   UNL     1      -0.359  13.453  20.181  0.00  0.00    +0.000 OA
ENDBRANCH   1  21
BRANCH   9  22
ATOM     22  O   UNL     1       2.679   2.807  21.392  0.00  0.00    +0.000 OA
ATOM     23  C   UNL     1       1.334   2.533  21.780  0.00  0.00    +0.000 C 
ENDBRANCH   9  22
BRANCH  10  24
ATOM     24  O   UNL     1       4.270   2.371  19.314  0.00  0.00    +0.000 OA
ATOM     25  C   UNL     1       3.670   1.435  18.426  0.00  0.00    +0.000 C 
ENDBRANCH  10  24
BRANCH  19  26
ATOM     26  O   UNL     1       1.625  13.133  17.992  0.00  0.00    +0.000 OA
ATOM     27  C   UNL     1       2.811  13.823  18.346  0.00  0.00    +0.000 C 
ENDBRANCH  19  26
TORSDOF 4
ENDMDL
MODEL 3
REMARK VINA RESULT:      -6.7      1.124      8.471
REMARK  Name = 
REMARK  9 active torsions:
REMARK  status: ('A' for Active; 'I' for Inactive)
REMARK    1  A    between atoms: C_1  and  O_2
REMARK    2  A    between atoms: O_2  and  C_3
REMARK    3  A    between atoms: C_11  and  O_12
REMARK    4  A    between atoms: O_12  and  C_13
REMARK    5  A    between atoms: C_14  and  O_15
REMARK    6  A    between atoms: O_15  and  C_16
REMARK    7  A    between atoms: C_19  and  C_20
REMARK    8  A    between atoms: C_25  and  O_26
REMARK    9  A    between atoms: O_26  and  C_27
REMARK                            x       y       z     vdW  Elec       q    Type
REMARK                         _______ _______ _______ _____ _____    ______ ____
ROOT
ATOM      1  C   UNL     1      -0.374  12.195  21.149  0.00  0.00    +0.000 A 
ATOM      2  C   UNL     1      -0.459  10.959  21.798  0.00  0.00    +0.000 A 
ATOM      3  C   UNL     1       0.193   9.819  21.307  0.00  0.00    +0.000 A 
ATOM      4  C   UNL     1       0.068   8.641  22.002  0.00  0.00    +0.000 A 
ATOM      5  C   UNL     1       0.706   7.513  21.542  0.00  0.00    +0.000 A 
ATOM      6  N   UNL     1       1.476   7.477  20.418  0.00  0.00    +0.000 N 
ATOM      7  C   UNL     1       2.144   6.323  20.030  0.00  0.00    +0.000 A 
ATOM      8  C   UNL     1       2.106   5.135  20.802  0.00  0.00    +0.000 A 
ATOM      9  C   UNL     1       2.794   3.968  20.455  0.00  0.00    +0.000 A 
ATOM     10  C   UNL     1       3.526   3.936  19.270  0.00  0.00    +0.000 A 
ATOM     11  C   UNL     1       3.586   5.093  18.487  0.00  0.00    +0.000 A 
ATOM     12  C   UNL     1       2.923   6.296  18.841  0.00  0.00    +0.000 A 
ATOM     13  C   UNL     1       3.016   7.453  18.056  0.00  0.00    +0.000 A 
ATOM     14  C   UNL     1       3.792   7.588  16.769  0.00  0.00    +0.000 C 
ATOM     15  C   UNL     1       2.348   8.597  18.487  0.00  0.00    +0.000 A 
ATOM     16  C   UNL     1       1.587   8.641  19.671  0.00  0.00    +0.000 A 
ATOM     17  C   UNL     1       0.958   9.854  20.138  0.00  0.00    +0.000 A 
ATOM     18  C   UNL     1       1.068  11.126  19.523  0.00  0.00    +0.000 A 
ATOM     19  C   UNL     1       0.442  12.289  20.021  0.00  0.00    +0.000 A 
ENDROOT
BRANCH   1  21
ATOM     20  C   UNL     1      -1.830  13.056  22.801  0.00  0.00    +0.000 C 
ATOM     21  O   UNL     1      -1.020  13.294  21.648  0.00  0.00    +0.000 OA
ENDBRANCH   1  21
BRANCH   9  22
ATOM     22  O   UNL     1       2.733   2.819  21.204  0.00  0.00    +0.000 OA
ATOM     23  C   UNL     1       1.482   2.501  21.810  0.00  0.00    +0.000 C 
ENDBRANCH   9  22
BRANCH  10  24
ATOM     24  O   UNL     1       4.154   2.758  18.965  0.00  0.00    +0.000 OA
ATOM     25  C   UNL     1       3.489   1.859  18.084  0.00  0.00    +0.000 C 
ENDBRANCH  10  24
BRANCH  19  26
ATOM     26  O   UNL     1       0.776  13.391  19.282  0.00  0.00    +0.000 OA
ATOM     27  C   UNL     1      -0.147  13.871  18.320  0.00  0.00    +0.000 C 
ENDBRANCH  19  26
TORSDOF 4
ENDMDL
MODEL 4
REMARK VINA RESULT:      -6.6      1.740      7.858
REMARK  Name = 
REMARK  9 active torsions:
REMARK  status: ('A' for Active; 'I' for Inactive)
REMARK    1  A    between atoms: C_1  and  O_2
REMARK    2  A    between atoms: O_2  and  C_3
REMARK    3  A    between atoms: C_11  and  O_12
REMARK    4  A    between atoms: O_12  and  C_13
REMARK    5  A    between atoms: C_14  and  O_15
REMARK    6  A    between atoms: O_15  and  C_16
REMARK    7  A    between atoms: C_19  and  C_20
REMARK    8  A    between atoms: C_25  and  O_26
REMARK    9  A    between atoms: O_26  and  C_27
REMARK                            x       y       z     vdW  Elec       q    Type
REMARK                         _______ _______ _______ _____ _____    ______ ____
ROOT
ATOM      1  C   UNL     1       0.170  11.539  20.169  0.00  0.00    +0.000 A 
ATOM      2  C   UNL     1       0.963  11.168  19.078  0.00  0.00    +0.000 A 
ATOM      3  C   UNL     1       1.481   9.872  18.947  0.00  0.00    +0.000 A 
ATOM      4  C   UNL     1       2.247   9.580  17.845  0.00  0.00    +0.000 A 
ATOM      5  C   UNL     1       2.758   8.312  17.693  0.00  0.00    +0.000 A 
ATOM      6  N   UNL     1       2.553   7.296  18.577  0.00  0.00    +0.000 N 
ATOM      7  C   UNL     1       3.045   6.018  18.346  0.00  0.00    +0.000 A 
ATOM      8  C   UNL     1       3.745   5.685  17.158  0.00  0.00    +0.000 A 
ATOM      9  C   UNL     1       4.224   4.401  16.881  0.00  0.00    +0.000 A 
ATOM     10  C   UNL     1       4.054   3.392  17.827  0.00  0.00    +0.000 A 
ATOM     11  C   UNL     1       3.367   3.689  19.008  0.00  0.00    +0.000 A 
ATOM     12  C   UNL     1       2.843   4.976  19.291  0.00  0.00    +0.000 A 
ATOM     13  C   UNL     1       2.135   5.247  20.468  0.00  0.00    +0.000 A 
ATOM     14  C   UNL     1       1.841   4.259  21.571  0.00  0.00    +0.000 C 
ATOM     15  C   UNL     1       1.640   6.535  20.658  0.00  0.00    +0.000 A 
ATOM     16  C   UNL     1       1.818   7.571  19.722  0.00  0.00    +0.000 A 
ATOM     17  C   UNL     1       1.239   8.882  19.902  0.00  0.00    +0.000 A 
ATOM     18  C   UNL     1       0.395   9.266  20.974  0.00  0.00    +0.000 A 
ATOM     19  C   UNL     1      -0.157  10.558  21.105  0.00  0.00    +0.000 A 
ENDROOT
BRANCH   1  21
ATOM     20  C   UNL     1      -1.606  13.021  19.679  0.00  0.00    +0.000 C 
ATOM     21  O   UNL     1      -0.324  12.812  20.276  0.00  0.00    +0.000 OA
ENDBRANCH   1  21
BRANCH   9  22
ATOM     22  O   UNL     1       4.915   4.097  15.735  0.00  0.00    +0.000 OA
ATOM     23  C   UNL     1       5.658   5.148  15.123  0.00  0.00    +0.000 C 
ENDBRANCH   9  22
BRANCH  10  24
ATOM     24  O   UNL     1       4.571   2.162  17.517  0.00  0.00    +0.000 OA
ATOM     25  C   UNL     1       4.058   1.031  18.214  0.00  0.00    +0.000 C 
ENDBRANCH  10  24
BRANCH  19  26
ATOM     26  O   UNL     1      -0.994  10.636  22.186  0.00  0.00    +0.000 OA
ATOM     27  C   UNL     1      -0.637   9.951  23.373  0.00  0.00    +0.000 C 
ENDBRANCH  19  26
TORSDOF 4
ENDMDL
MODEL 5
REMARK VINA RESULT:      -6.4      1.513      1.873
REMARK  Name = 
REMARK  9 active torsions:
REMARK  status: ('A' for Active; 'I' for Inactive)
REMARK    1  A    between atoms: C_1  and  O_2
REMARK    2  A    between atoms: O_2  and  C_3
REMARK    3  A    between atoms: C_11  and  O_12
REMARK    4  A    between atoms: O_12  and  C_13
REMARK    5  A    between atoms: C_14  and  O_15
REMARK    6  A    between atoms: O_15  and  C_16
REMARK    7  A    between atoms: C_19  and  C_20
REMARK    8  A    between atoms: C_25  and  O_26
REMARK    9  A    between atoms: O_26  and  C_27
REMARK                            x       y       z     vdW  Elec       q    Type
REMARK                         _______ _______ _______ _____ _____    ______ ____
ROOT
ATOM      1  C   UNL     1       3.422   6.017  17.864  0.00  0.00    +0.000 A 
ATOM      2  C   UNL     1       3.101   7.281  17.361  0.00  0.00    +0.000 A 
ATOM      3  C   UNL     1       2.405   8.227  18.126  0.00  0.00    +0.000 A 
ATOM      4  C   UNL     1       2.130   9.451  17.566  0.00  0.00    +0.000 A 
ATOM      5  C   UNL     1       1.455  10.396  18.303  0.00  0.00    +0.000 A 
ATOM      6  N   UNL     1       1.029  10.204  19.583  0.00  0.00    +0.000 N 
ATOM      7  C   UNL     1       0.401  11.213  20.301  0.00  0.00    +0.000 A 
ATOM      8  C   UNL     1       0.211  12.512  19.765  0.00  0.00    +0.000 A 
ATOM      9  C   UNL     1      -0.387  13.558  20.474  0.00  0.00    +0.000 A 
ATOM     10  C   UNL     1      -0.869  13.321  21.760  0.00  0.00    +0.000 A 
ATOM     11  C   UNL     1      -0.696  12.050  22.317  0.00  0.00    +0.000 A 
ATOM     12  C   UNL     1      -0.060  10.988  21.626  0.00  0.00    +0.000 A 
ATOM     13  C   UNL     1       0.127   9.729  22.212  0.00  0.00    +0.000 A 
ATOM     14  C   UNL     1      -0.307   9.326  23.600  0.00  0.00    +0.000 C 
ATOM     15  C   UNL     1       0.778   8.747  21.469  0.00  0.00    +0.000 A 
ATOM     16  C   UNL     1       1.254   8.963  20.161  0.00  0.00    +0.000 A 
ATOM     17  C   UNL     1       1.987   7.955  19.431  0.00  0.00    +0.000 A 
ATOM     18  C   UNL     1       2.363   6.686  19.937  0.00  0.00    +0.000 A 
ATOM     19  C   UNL     1       3.089   5.734  19.189  0.00  0.00    +0.000 A 
ENDROOT
BRANCH   1  21
ATOM     20  C   UNL     1       5.107   5.662  16.243  0.00  0.00    +0.000 C 
ATOM     21  O   UNL     1       4.102   5.109  17.097  0.00  0.00    +0.000 OA
ENDBRANCH   1  21
BRANCH   9  22
ATOM     22  O   UNL     1      -0.580  14.806  19.936  0.00  0.00    +0.000 OA
ATOM     23  C   UNL     1       0.391  15.270  19.001  0.00  0.00    +0.000 C 
ENDBRANCH   9  22
BRANCH  10  24
ATOM     24  O   UNL     1      -1.474  14.373  22.396  0.00  0.00    +0.000 OA
ATOM     25  C   UNL     1      -2.795  14.180  22.890  0.00  0.00    +0.000 C 
ENDBRANCH  10  24
BRANCH  19  26
ATOM     26  O   UNL     1       3.385   4.630  19.941  0.00  0.00    +0.000 OA
ATOM     27  C   UNL     1       4.640   3.999  19.758  0.00  0.00    +0.000 C 
ENDBRANCH  19  26
TORSDOF 4
ENDMDL
MODEL 6
REMARK VINA RESULT:      -6.3      1.285      8.442
REMARK  Name = 
REMARK  9 active torsions:
REMARK  status: ('A' for Active; 'I' for Inactive)
REMARK    1  A    between atoms: C_1  and  O_2
REMARK    2  A    between atoms: O_2  and  C_3
REMARK    3  A    between atoms: C_11  and  O_12
REMARK    4  A    between atoms: O_12  and  C_13
REMARK    5  A    between atoms: C_14  and  O_15
REMARK    6  A    between atoms: O_15  and  C_16
REMARK    7  A    between atoms: C_19  and  C_20
REMARK    8  A    between atoms: C_25  and  O_26
REMARK    9  A    between atoms: O_26  and  C_27
REMARK                            x       y       z     vdW  Elec       q    Type
REMARK                         _______ _______ _______ _____ _____    ______ ____
ROOT
ATOM      1  C   UNL     1      -1.223  12.818  22.056  0.00  0.00    +0.000 A 
ATOM      2  C   UNL     1      -1.182  11.547  22.638  0.00  0.00    +0.000 A 
ATOM      3  C   UNL     1      -0.501  10.480  22.037  0.00  0.00    +0.000 A 
ATOM      4  C   UNL     1      -0.499   9.261  22.671  0.00  0.00    +0.000 A 
ATOM      5  C   UNL     1       0.170   8.203  22.102  0.00  0.00    +0.000 A 
ATOM      6  N   UNL     1       0.852   8.276  20.925  0.00  0.00    +0.000 N 
ATOM      7  C   UNL     1       1.559   7.190  20.424  0.00  0.00    +0.000 A 
ATOM      8  C   UNL     1       1.653   5.964  21.128  0.00  0.00    +0.000 A 
ATOM      9  C   UNL     1       2.383   4.864  20.666  0.00  0.00    +0.000 A 
ATOM     10  C   UNL     1       3.024   4.943  19.432  0.00  0.00    +0.000 A 
ATOM     11  C   UNL     1       2.952   6.140  18.713  0.00  0.00    +0.000 A 
ATOM     12  C   UNL     1       2.246   7.277  19.182  0.00  0.00    +0.000 A 
ATOM     13  C   UNL     1       2.207   8.476  18.460  0.00  0.00    +0.000 A 
ATOM     14  C   UNL     1       2.873   8.729  17.130  0.00  0.00    +0.000 C 
ATOM     15  C   UNL     1       1.504   9.550  19.003  0.00  0.00    +0.000 A 
ATOM     16  C   UNL     1       0.835   9.483  20.240  0.00  0.00    +0.000 A 
ATOM     17  C   UNL     1       0.169  10.625  20.820  0.00  0.00    +0.000 A 
ATOM     18  C   UNL     1       0.154  11.932  20.272  0.00  0.00    +0.000 A 
ATOM     19  C   UNL     1      -0.503  13.023  20.879  0.00  0.00    +0.000 A 
ENDROOT
BRANCH   1  21
ATOM     20  C   UNL     1      -1.156  14.557  23.657  0.00  0.00    +0.000 C 
ATOM     21  O   UNL     1      -1.896  13.845  22.662  0.00  0.00    +0.000 OA
ENDBRANCH   1  21
BRANCH   9  22
ATOM     22  O   UNL     1       2.450   3.676  21.350  0.00  0.00    +0.000 OA
ATOM     23  C   UNL     1       1.293   2.843  21.326  0.00  0.00    +0.000 C 
ENDBRANCH   9  22
BRANCH  10  24
ATOM     24  O   UNL     1       3.698   3.826  19.014  0.00  0.00    +0.000 OA
ATOM     25  C   UNL     1       5.060   3.978  18.628  0.00  0.00    +0.000 C 
ENDBRANCH  10  24
BRANCH  19  26
ATOM     26  O   UNL     1      -0.295  14.182  20.181  0.00  0.00    +0.000 OA
ATOM     27  C   UNL     1      -0.184  14.117  18.771  0.00  0.00    +0.000 C 
ENDBRANCH  19  26
TORSDOF 4
ENDMDL
MODEL 7
REMARK VINA RESULT:      -6.0      2.444      4.547
REMARK  Name = 
REMARK  9 active torsions:
REMARK  status: ('A' for Active; 'I' for Inactive)
REMARK    1  A    between atoms: C_1  and  O_2
REMARK    2  A    between atoms: O_2  and  C_3
REMARK    3  A    between atoms: C_11  and  O_12
REMARK    4  A    between atoms: O_12  and  C_13
REMARK    5  A    between atoms: C_14  and  O_15
REMARK    6  A    between atoms: O_15  and  C_16
REMARK    7  A    between atoms: C_19  and  C_20
REMARK    8  A    between atoms: C_25  and  O_26
REMARK    9  A    between atoms: O_26  and  C_27
REMARK                            x       y       z     vdW  Elec       q    Type
REMARK                         _______ _______ _______ _____ _____    ______ ____
ROOT
ATOM      1  C   UNL     1       2.285   6.857  19.748  0.00  0.00    +0.000 A 
ATOM      2  C   UNL     1       1.580   7.157  20.917  0.00  0.00    +0.000 A 
ATOM      3  C   UNL     1       0.933   8.388  21.096  0.00  0.00    +0.000 A 
ATOM      4  C   UNL     1       0.254   8.608  22.271  0.00  0.00    +0.000 A 
ATOM      5  C   UNL     1      -0.394   9.805  22.463  0.00  0.00    +0.000 A 
ATOM      6  N   UNL     1      -0.415  10.816  21.550  0.00  0.00    +0.000 N 
ATOM      7  C   UNL     1      -1.134  11.984  21.772  0.00  0.00    +0.000 A 
ATOM      8  C   UNL     1      -1.923  12.172  22.935  0.00  0.00    +0.000 A 
ATOM      9  C   UNL     1      -2.683  13.321  23.172  0.00  0.00    +0.000 A 
ATOM     10  C   UNL     1      -2.643  14.366  22.252  0.00  0.00    +0.000 A 
ATOM     11  C   UNL     1      -1.875  14.211  21.094  0.00  0.00    +0.000 A 
ATOM     12  C   UNL     1      -1.126  13.038  20.819  0.00  0.00    +0.000 A 
ATOM     13  C   UNL     1      -0.383  12.891  19.641  0.00  0.00    +0.000 A 
ATOM     14  C   UNL     1      -0.264  13.914  18.537  0.00  0.00    +0.000 C 
ATOM     15  C   UNL     1       0.310  11.699  19.443  0.00  0.00    +0.000 A 
ATOM     16  C   UNL     1       0.295  10.640  20.371  0.00  0.00    +0.000 A 
ATOM     17  C   UNL     1       0.963   9.385  20.119  0.00  0.00    +0.000 A 
ATOM     18  C   UNL     1       1.644   9.042  18.924  0.00  0.00    +0.000 A 
ATOM     19  C   UNL     1       2.275   7.797  18.717  0.00  0.00    +0.000 A 
ENDROOT
BRANCH   1  21
ATOM     20  C   UNL     1       2.040   4.514  19.542  0.00  0.00    +0.000 C 
ATOM     21  O   UNL     1       2.909   5.648  19.596  0.00  0.00    +0.000 OA
ENDBRANCH   1  21
BRANCH   9  22
ATOM     22  O   UNL     1      -3.429  13.497  24.311  0.00  0.00    +0.000 OA
ATOM     23  C   UNL     1      -4.370  12.477  24.639  0.00  0.00    +0.000 C 
ENDBRANCH   9  22
BRANCH  10  24
ATOM     24  O   UNL     1      -3.382  15.480  22.550  0.00  0.00    +0.000 OA
ATOM     25  C   UNL     1      -2.681  16.687  22.832  0.00  0.00    +0.000 C 
ENDBRANCH  10  24
BRANCH  19  26
ATOM     26  O   UNL     1       2.787   7.702  17.451  0.00  0.00    +0.000 OA
ATOM     27  C   UNL     1       4.120   7.250  17.289  0.00  0.00    +0.000 C 
ENDBRANCH  19  26
TORSDOF 4
ENDMDL
MODEL 8
REMARK VINA RESULT:      -6.0      1.690      8.473
REMARK  Name = 
REMARK  9 active torsions:
REMARK  status: ('A' for Active; 'I' for Inactive)
REMARK    1  A    between atoms: C_1  and  O_2
REMARK    2  A    between atoms: O_2  and  C_3
REMARK    3  A    between atoms: C_11  and  O_12
REMARK    4  A    between atoms: O_12  and  C_13
REMARK    5  A    between atoms: C_14  and  O_15
REMARK    6  A    between atoms: O_15  and  C_16
REMARK    7  A    between atoms: C_19  and  C_20
REMARK    8  A    between atoms: C_25  and  O_26
REMARK    9  A    between atoms: O_26  and  C_27
REMARK                            x       y       z     vdW  Elec       q    Type
REMARK                         _______ _______ _______ _____ _____    ______ ____
ROOT
ATOM      1  C   UNL     1      -1.610  13.194  23.050  0.00  0.00    +0.000 A 
ATOM      2  C   UNL     1      -1.507  11.853  23.434  0.00  0.00    +0.000 A 
ATOM      3  C   UNL     1      -0.821  10.911  22.654  0.00  0.00    +0.000 A 
ATOM      4  C   UNL     1      -0.757   9.613  23.099  0.00  0.00    +0.000 A 
ATOM      5  C   UNL     1      -0.082   8.675  22.354  0.00  0.00    +0.000 A 
ATOM      6  N   UNL     1       0.546   8.946  21.176  0.00  0.00    +0.000 N 
ATOM      7  C   UNL     1       1.262   7.971  20.491  0.00  0.00    +0.000 A 
ATOM      8  C   UNL     1       1.422   6.658  21.000  0.00  0.00    +0.000 A 
ATOM      9  C   UNL     1       2.163   5.665  20.352  0.00  0.00    +0.000 A 
ATOM     10  C   UNL     1       2.747   5.948  19.119  0.00  0.00    +0.000 A 
ATOM     11  C   UNL     1       2.610   7.235  18.591  0.00  0.00    +0.000 A 
ATOM     12  C   UNL     1       1.891   8.265  19.251  0.00  0.00    +0.000 A 
ATOM     13  C   UNL     1       1.786   9.555  18.718  0.00  0.00    +0.000 A 
ATOM     14  C   UNL     1       2.386  10.026  17.415  0.00  0.00    +0.000 C 
ATOM     15  C   UNL     1       1.077  10.511  19.441  0.00  0.00    +0.000 A 
ATOM     16  C   UNL     1       0.464  10.239  20.679  0.00  0.00    +0.000 A 
ATOM     17  C   UNL     1      -0.209  11.259  21.448  0.00  0.00    +0.000 A 
ATOM     18  C   UNL     1      -0.286  12.631  21.102  0.00  0.00    +0.000 A 
ATOM     19  C   UNL     1      -0.948  13.597  21.890  0.00  0.00    +0.000 A 
ENDROOT
BRANCH   1  21
ATOM     20  C   UNL     1      -3.585  13.681  24.256  0.00  0.00    +0.000 C 
ATOM     21  O   UNL     1      -2.286  14.096  23.828  0.00  0.00    +0.000 OA
ENDBRANCH   1  21
BRANCH   9  22
ATOM     22  O   UNL     1       2.294   4.392  20.848  0.00  0.00    +0.000 OA
ATOM     23  C   UNL     1       1.165   3.529  20.738  0.00  0.00    +0.000 C 
ENDBRANCH   9  22
BRANCH  10  24
ATOM     24  O   UNL     1       3.435   4.930  18.515  0.00  0.00    +0.000 OA
ATOM     25  C   UNL     1       4.858   4.994  18.519  0.00  0.00    +0.000 C 
ENDBRANCH  10  24
BRANCH  19  26
ATOM     26  O   UNL     1      -0.804  14.852  21.365  0.00  0.00    +0.000 OA
ATOM     27  C   UNL     1      -1.320  15.113  20.072  0.00  0.00    +0.000 C 
ENDBRANCH  19  26
TORSDOF 4
ENDMDL
MODEL 9
REMARK VINA RESULT:      -5.7      1.828      3.854
REMARK  Name = 
REMARK  9 active torsions:
REMARK  status: ('A' for Active; 'I' for Inactive)
REMARK    1  A    between atoms: C_1  and  O_2
REMARK    2  A    between atoms: O_2  and  C_3
REMARK    3  A    between atoms: C_11  and  O_12
REMARK    4  A    between atoms: O_12  and  C_13
REMARK    5  A    between atoms: C_14  and  O_15
REMARK    6  A    between atoms: O_15  and  C_16
REMARK    7  A    between atoms: C_19  and  C_20
REMARK    8  A    between atoms: C_25  and  O_26
REMARK    9  A    between atoms: O_26  and  C_27
REMARK                            x       y       z     vdW  Elec       q    Type
REMARK                         _______ _______ _______ _____ _____    ______ ____
ROOT
ATOM      1  C   UNL     1       2.501   5.867  19.491  0.00  0.00    +0.000 A 
ATOM      2  C   UNL     1       1.719   6.264  20.581  0.00  0.00    +0.000 A 
ATOM      3  C   UNL     1       1.250   7.578  20.715  0.00  0.00    +0.000 A 
ATOM      4  C   UNL     1       0.482   7.892  21.811  0.00  0.00    +0.000 A 
ATOM      5  C   UNL     1       0.006   9.174  21.957  0.00  0.00    +0.000 A 
ATOM      6  N   UNL     1       0.242  10.181  21.072  0.00  0.00    +0.000 N 
ATOM      7  C   UNL     1      -0.312  11.444  21.240  0.00  0.00    +0.000 A 
ATOM      8  C   UNL     1      -1.191  11.744  22.311  0.00  0.00    +0.000 A 
ATOM      9  C   UNL     1      -1.791  12.994  22.489  0.00  0.00    +0.000 A 
ATOM     10  C   UNL     1      -1.487  14.027  21.604  0.00  0.00    +0.000 A 
ATOM     11  C   UNL     1      -0.623  13.763  20.536  0.00  0.00    +0.000 A 
ATOM     12  C   UNL     1      -0.034  12.491  20.320  0.00  0.00    +0.000 A 
ATOM     13  C   UNL     1       0.808  12.240  19.230  0.00  0.00    +0.000 A 
ATOM     14  C   UNL     1       1.207  13.239  18.171  0.00  0.00    +0.000 C 
ATOM     15  C   UNL     1       1.330  10.957  19.083  0.00  0.00    +0.000 A 
ATOM     16  C   UNL     1       1.049   9.906  19.977  0.00  0.00    +0.000 A 
ATOM     17  C   UNL     1       1.543   8.565  19.772  0.00  0.00    +0.000 A 
ATOM     18  C   UNL     1       2.297   8.130  18.653  0.00  0.00    +0.000 A 
ATOM     19  C   UNL     1       2.752   6.804  18.488  0.00  0.00    +0.000 A 
ENDROOT
BRANCH   1  21
ATOM     20  C   UNL     1       2.043   3.669  18.750  0.00  0.00    +0.000 C 
ATOM     21  O   UNL     1       2.948   4.578  19.382  0.00  0.00    +0.000 OA
ENDBRANCH   1  21
BRANCH   9  22
ATOM     22  O   UNL     1      -2.627  13.275  23.540  0.00  0.00    +0.000 OA
ATOM     23  C   UNL     1      -3.562  12.266  23.918  0.00  0.00    +0.000 C 
ENDBRANCH   9  22
BRANCH  10  24
ATOM     24  O   UNL     1      -2.078  15.239  21.844  0.00  0.00    +0.000 OA
ATOM     25  C   UNL     1      -1.238  16.325  22.221  0.00  0.00    +0.000 C 
ENDBRANCH  10  24
BRANCH  19  26
ATOM     26  O   UNL     1       3.386   6.640  17.287  0.00  0.00    +0.000 OA
ATOM     27  C   UNL     1       4.764   6.954  17.196  0.00  0.00    +0.000 C 
ENDBRANCH  19  26
TORSDOF 4
ENDMDL
