MODEL 1
REMARK VINA RESULT:      -6.1      0.000      0.000
REMARK  Name = 
REMARK  9 active torsions:
REMARK  status: ('A' for Active; 'I' for Inactive)
REMARK    1  A    between atoms: C_1  and  C_2
REMARK    2  A    between atoms: C_2  and  C_3
REMARK    3  A    between atoms: C_3  and  C_4
REMARK    4  A    between atoms: C_4  and  C_5
REMARK    5  A    between atoms: C_5  and  O_6
REMARK    6  A    between atoms: O_6  and  C_7
REMARK    7  A    between atoms: C_7  and  C_9
REMARK    8  A    between atoms: C_12  and  O_13
REMARK    9  A    between atoms: C_14  and  O_15
REMARK                            x       y       z     vdW  Elec       q    Type
REMARK                         _______ _______ _______ _____ _____    ______ ____
ROOT
ATOM      1  C   UNL     1       5.392   4.671  18.144  0.00  0.00    +0.000 A 
ATOM      2  C   UNL     1       4.954   5.464  17.070  0.00  0.00    +0.000 A 
ATOM      3  C   UNL     1       5.661   6.627  16.704  0.00  0.00    +0.000 A 
ATOM      4  C   UNL     1       6.810   6.990  17.404  0.00  0.00    +0.000 A 
ATOM      5  C   UNL     1       7.247   6.200  18.465  0.00  0.00    +0.000 A 
ATOM      6  C   UNL     1       6.554   5.045  18.829  0.00  0.00    +0.000 A 
ENDROOT
BRANCH   1   7
ATOM      7  C   UNL     1       4.670   3.436  18.609  0.00  0.00    +0.000 C 
ATOM      8  O   UNL     1       4.779   2.985  19.727  0.00  0.00    +0.000 OA
BRANCH   7   9
ATOM      9  O   UNL     1       3.936   2.882  17.596  0.00  0.00    +0.000 OA
BRANCH   9  10
ATOM     10  C   UNL     1       2.707   2.259  18.022  0.00  0.00    +0.000 C 
BRANCH  10  11
ATOM     11  C   UNL     1       1.575   3.267  18.184  0.00  0.00    +0.000 C 
BRANCH  11  12
ATOM     12  C   UNL     1       0.732   2.974  19.429  0.00  0.00    +0.000 C 
BRANCH  12  14
ATOM     13  C   UNL     1       1.799   2.770  21.695  0.00  0.00    +0.000 C 
ATOM     14  C   UNL     1       1.256   3.731  20.649  0.00  0.00    +0.000 C 
ENDBRANCH  12  14
ENDBRANCH  11  12
ENDBRANCH  10  11
ENDBRANCH   9  10
ENDBRANCH   7   9
ENDBRANCH   1   7
BRANCH   4  15
ATOM     15  O   UNL     1       7.538   8.106  17.097  0.00  0.00    +0.000 OA
ATOM     16  H   UNL     1       8.467   7.968  17.348  0.00  0.00    +0.000 HD
ENDBRANCH   4  15
BRANCH   5  17
ATOM     17  O   UNL     1       8.360   6.538  19.183  0.00  0.00    +0.000 OA
ATOM     18  H   UNL     1       8.094   6.527  20.122  0.00  0.00    +0.000 HD
ENDBRANCH   5  17
TORSDOF 8
ENDMDL
MODEL 2
REMARK VINA RESULT:      -6.1      1.390      1.969
REMARK  Name = 
REMARK  9 active torsions:
REMARK  status: ('A' for Active; 'I' for Inactive)
REMARK    1  A    between atoms: C_1  and  C_2
REMARK    2  A    between atoms: C_2  and  C_3
REMARK    3  A    between atoms: C_3  and  C_4
REMARK    4  A    between atoms: C_4  and  C_5
REMARK    5  A    between atoms: C_5  and  O_6
REMARK    6  A    between atoms: O_6  and  C_7
REMARK    7  A    between atoms: C_7  and  C_9
REMARK    8  A    between atoms: C_12  and  O_13
REMARK    9  A    between atoms: C_14  and  O_15
REMARK                            x       y       z     vdW  Elec       q    Type
REMARK                         _______ _______ _______ _____ _____    ______ ____
ROOT
ATOM      1  C   UNL     1       4.364   4.261  17.629  0.00  0.00    +0.000 A 
ATOM      2  C   UNL     1       4.665   5.077  16.525  0.00  0.00    +0.000 A 
ATOM      3  C   UNL     1       5.752   5.973  16.572  0.00  0.00    +0.000 A 
ATOM      4  C   UNL     1       6.543   6.045  17.717  0.00  0.00    +0.000 A 
ATOM      5  C   UNL     1       6.248   5.232  18.809  0.00  0.00    +0.000 A 
ATOM      6  C   UNL     1       5.176   4.339  18.767  0.00  0.00    +0.000 A 
ENDROOT
BRANCH   1   7
ATOM      7  C   UNL     1       3.202   3.306  17.660  0.00  0.00    +0.000 C 
ATOM      8  O   UNL     1       2.322   3.306  16.830  0.00  0.00    +0.000 OA
BRANCH   7   9
ATOM      9  O   UNL     1       3.258   2.497  18.762  0.00  0.00    +0.000 OA
BRANCH   9  10
ATOM     10  C   UNL     1       1.973   2.037  19.227  0.00  0.00    +0.000 C 
BRANCH  10  11
ATOM     11  C   UNL     1       1.588   2.655  20.567  0.00  0.00    +0.000 C 
BRANCH  11  12
ATOM     12  C   UNL     1       1.021   4.068  20.394  0.00  0.00    +0.000 C 
BRANCH  12  14
ATOM     13  C   UNL     1       2.193   6.219  19.830  0.00  0.00    +0.000 C 
ATOM     14  C   UNL     1       2.013   5.129  20.874  0.00  0.00    +0.000 C 
ENDBRANCH  12  14
ENDBRANCH  11  12
ENDBRANCH  10  11
ENDBRANCH   9  10
ENDBRANCH   7   9
ENDBRANCH   1   7
BRANCH   4  15
ATOM     15  O   UNL     1       7.610   6.893  17.823  0.00  0.00    +0.000 OA
ATOM     16  H   UNL     1       8.244   6.540  18.471  0.00  0.00    +0.000 HD
ENDBRANCH   4  15
BRANCH   5  17
ATOM     17  O   UNL     1       6.993   5.290  19.954  0.00  0.00    +0.000 OA
ATOM     18  H   UNL     1       7.649   4.570  19.890  0.00  0.00    +0.000 HD
ENDBRANCH   5  17
TORSDOF 8
ENDMDL
MODEL 3
REMARK VINA RESULT:      -6.1      2.032      2.485
REMARK  Name = 
REMARK  9 active torsions:
REMARK  status: ('A' for Active; 'I' for Inactive)
REMARK    1  A    between atoms: C_1  and  C_2
REMARK    2  A    between atoms: C_2  and  C_3
REMARK    3  A    between atoms: C_3  and  C_4
REMARK    4  A    between atoms: C_4  and  C_5
REMARK    5  A    between atoms: C_5  and  O_6
REMARK    6  A    between atoms: O_6  and  C_7
REMARK    7  A    between atoms: C_7  and  C_9
REMARK    8  A    between atoms: C_12  and  O_13
REMARK    9  A    between atoms: C_14  and  O_15
REMARK                            x       y       z     vdW  Elec       q    Type
REMARK                         _______ _______ _______ _____ _____    ______ ____
ROOT
ATOM      1  C   UNL     1       4.348   5.659  17.925  0.00  0.00    +0.000 A 
ATOM      2  C   UNL     1       4.793   5.095  16.719  0.00  0.00    +0.000 A 
ATOM      3  C   UNL     1       6.096   4.565  16.614  0.00  0.00    +0.000 A 
ATOM      4  C   UNL     1       6.946   4.591  17.717  0.00  0.00    +0.000 A 
ATOM      5  C   UNL     1       6.502   5.146  18.916  0.00  0.00    +0.000 A 
ATOM      6  C   UNL     1       5.212   5.667  19.027  0.00  0.00    +0.000 A 
ENDROOT
BRANCH   1   7
ATOM      7  C   UNL     1       2.984   6.270  18.100  0.00  0.00    +0.000 C 
ATOM      8  O   UNL     1       2.704   7.385  17.725  0.00  0.00    +0.000 OA
BRANCH   7   9
ATOM      9  O   UNL     1       2.147   5.423  18.773  0.00  0.00    +0.000 OA
BRANCH   9  10
ATOM     10  C   UNL     1       1.591   4.367  17.964  0.00  0.00    +0.000 C 
BRANCH  10  11
ATOM     11  C   UNL     1       1.380   3.082  18.756  0.00  0.00    +0.000 C 
BRANCH  11  12
ATOM     12  C   UNL     1       0.894   3.370  20.181  0.00  0.00    +0.000 C 
BRANCH  12  14
ATOM     13  C   UNL     1       3.252   2.622  20.620  0.00  0.00    +0.000 C 
ATOM     14  C   UNL     1       1.872   2.830  21.224  0.00  0.00    +0.000 C 
ENDBRANCH  12  14
ENDBRANCH  11  12
ENDBRANCH  10  11
ENDBRANCH   9  10
ENDBRANCH   7   9
ENDBRANCH   1   7
BRANCH   4  15
ATOM     15  O   UNL     1       8.219   4.094  17.678  0.00  0.00    +0.000 OA
ATOM     16  H   UNL     1       8.265   3.273  18.198  0.00  0.00    +0.000 HD
ENDBRANCH   4  15
BRANCH   5  17
ATOM     17  O   UNL     1       7.318   5.203  20.011  0.00  0.00    +0.000 OA
ATOM     18  H   UNL     1       6.997   4.516  20.627  0.00  0.00    +0.000 HD
ENDBRANCH   5  17
TORSDOF 8
ENDMDL
MODEL 4
REMARK VINA RESULT:      -6.1      2.114      3.108
REMARK  Name = 
REMARK  9 active torsions:
REMARK  status: ('A' for Active; 'I' for Inactive)
REMARK    1  A    between atoms: C_1  and  C_2
REMARK    2  A    between atoms: C_2  and  C_3
REMARK    3  A    between atoms: C_3  and  C_4
REMARK    4  A    between atoms: C_4  and  C_5
REMARK    5  A    between atoms: C_5  and  O_6
REMARK    6  A    between atoms: O_6  and  C_7
REMARK    7  A    between atoms: C_7  and  C_9
REMARK    8  A    between atoms: C_12  and  O_13
REMARK    9  A    between atoms: C_14  and  O_15
REMARK                            x       y       z     vdW  Elec       q    Type
REMARK                         _______ _______ _______ _____ _____    ______ ____
ROOT
ATOM      1  C   UNL     1       4.213   5.731  18.665  0.00  0.00    +0.000 A 
ATOM      2  C   UNL     1       5.285   4.913  19.057  0.00  0.00    +0.000 A 
ATOM      3  C   UNL     1       6.367   4.684  18.184  0.00  0.00    +0.000 A 
ATOM      4  C   UNL     1       6.381   5.281  16.925  0.00  0.00    +0.000 A 
ATOM      5  C   UNL     1       5.320   6.097  16.539  0.00  0.00    +0.000 A 
ATOM      6  C   UNL     1       4.248   6.332  17.401  0.00  0.00    +0.000 A 
ENDROOT
BRANCH   1   7
ATOM      7  C   UNL     1       3.012   5.995  19.533  0.00  0.00    +0.000 C 
ATOM      8  O   UNL     1       2.379   7.024  19.493  0.00  0.00    +0.000 OA
BRANCH   7   9
ATOM      9  O   UNL     1       2.783   4.951  20.388  0.00  0.00    +0.000 OA
BRANCH   9  10
ATOM     10  C   UNL     1       1.416   4.490  20.410  0.00  0.00    +0.000 C 
BRANCH  10  11
ATOM     11  C   UNL     1       1.315   2.976  20.259  0.00  0.00    +0.000 C 
BRANCH  11  12
ATOM     12  C   UNL     1       0.943   2.575  18.828  0.00  0.00    +0.000 C 
BRANCH  12  14
ATOM     13  C   UNL     1       3.296   1.784  18.433  0.00  0.00    +0.000 C 
ATOM     14  C   UNL     1       2.156   2.637  17.899  0.00  0.00    +0.000 C 
ENDBRANCH  12  14
ENDBRANCH  11  12
ENDBRANCH  10  11
ENDBRANCH   9  10
ENDBRANCH   7   9
ENDBRANCH   1   7
BRANCH   4  15
ATOM     15  O   UNL     1       7.401   5.096  16.033  0.00  0.00    +0.000 OA
ATOM     16  H   UNL     1       8.214   5.505  16.379  0.00  0.00    +0.000 HD
ENDBRANCH   4  15
BRANCH   5  17
ATOM     17  O   UNL     1       5.295   6.683  15.304  0.00  0.00    +0.000 OA
ATOM     18  H   UNL     1       4.442   6.434  14.900  0.00  0.00    +0.000 HD
ENDBRANCH   5  17
TORSDOF 8
ENDMDL
MODEL 5
REMARK VINA RESULT:      -6.0      1.912      2.596
REMARK  Name = 
REMARK  9 active torsions:
REMARK  status: ('A' for Active; 'I' for Inactive)
REMARK    1  A    between atoms: C_1  and  C_2
REMARK    2  A    between atoms: C_2  and  C_3
REMARK    3  A    between atoms: C_3  and  C_4
REMARK    4  A    between atoms: C_4  and  C_5
REMARK    5  A    between atoms: C_5  and  O_6
REMARK    6  A    between atoms: O_6  and  C_7
REMARK    7  A    between atoms: C_7  and  C_9
REMARK    8  A    between atoms: C_12  and  O_13
REMARK    9  A    between atoms: C_14  and  O_15
REMARK                            x       y       z     vdW  Elec       q    Type
REMARK                         _______ _______ _______ _____ _____    ______ ____
ROOT
ATOM      1  C   UNL     1       4.328   5.821  18.424  0.00  0.00    +0.000 A 
ATOM      2  C   UNL     1       4.242   6.539  17.220  0.00  0.00    +0.000 A 
ATOM      3  C   UNL     1       5.288   6.484  16.277  0.00  0.00    +0.000 A 
ATOM      4  C   UNL     1       6.413   5.703  16.533  0.00  0.00    +0.000 A 
ATOM      5  C   UNL     1       6.496   4.986  17.725  0.00  0.00    +0.000 A 
ATOM      6  C   UNL     1       5.461   5.034  18.660  0.00  0.00    +0.000 A 
ENDROOT
BRANCH   1   7
ATOM      7  C   UNL     1       3.265   5.858  19.488  0.00  0.00    +0.000 C 
ATOM      8  O   UNL     1       2.426   6.727  19.557  0.00  0.00    +0.000 OA
BRANCH   7   9
ATOM      9  O   UNL     1       3.416   4.825  20.372  0.00  0.00    +0.000 OA
BRANCH   9  10
ATOM     10  C   UNL     1       2.193   4.404  21.009  0.00  0.00    +0.000 C 
BRANCH  10  11
ATOM     11  C   UNL     1       1.822   2.968  20.657  0.00  0.00    +0.000 C 
BRANCH  11  12
ATOM     12  C   UNL     1       0.750   2.913  19.563  0.00  0.00    +0.000 C 
BRANCH  12  14
ATOM     13  C   UNL     1       2.568   2.280  17.949  0.00  0.00    +0.000 C 
ATOM     14  C   UNL     1       1.352   3.162  18.180  0.00  0.00    +0.000 C 
ENDBRANCH  12  14
ENDBRANCH  11  12
ENDBRANCH  10  11
ENDBRANCH   9  10
ENDBRANCH   7   9
ENDBRANCH   1   7
BRANCH   4  15
ATOM     15  O   UNL     1       7.460   5.610  15.658  0.00  0.00    +0.000 OA
ATOM     16  H   UNL     1       8.198   5.140  16.083  0.00  0.00    +0.000 HD
ENDBRANCH   4  15
BRANCH   5  17
ATOM     17  O   UNL     1       7.594   4.225  18.015  0.00  0.00    +0.000 OA
ATOM     18  H   UNL     1       7.261   3.428  18.469  0.00  0.00    +0.000 HD
ENDBRANCH   5  17
TORSDOF 8
ENDMDL
MODEL 6
REMARK VINA RESULT:      -6.0      1.403      1.924
REMARK  Name = 
REMARK  9 active torsions:
REMARK  status: ('A' for Active; 'I' for Inactive)
REMARK    1  A    between atoms: C_1  and  C_2
REMARK    2  A    between atoms: C_2  and  C_3
REMARK    3  A    between atoms: C_3  and  C_4
REMARK    4  A    between atoms: C_4  and  C_5
REMARK    5  A    between atoms: C_5  and  O_6
REMARK    6  A    between atoms: O_6  and  C_7
REMARK    7  A    between atoms: C_7  and  C_9
REMARK    8  A    between atoms: C_12  and  O_13
REMARK    9  A    between atoms: C_14  and  O_15
REMARK                            x       y       z     vdW  Elec       q    Type
REMARK                         _______ _______ _______ _____ _____    ______ ____
ROOT
ATOM      1  C   UNL     1       5.728   5.150  17.611  0.00  0.00    +0.000 A 
ATOM      2  C   UNL     1       6.140   6.250  16.842  0.00  0.00    +0.000 A 
ATOM      3  C   UNL     1       7.163   7.104  17.303  0.00  0.00    +0.000 A 
ATOM      4  C   UNL     1       7.779   6.850  18.527  0.00  0.00    +0.000 A 
ATOM      5  C   UNL     1       7.374   5.755  19.287  0.00  0.00    +0.000 A 
ATOM      6  C   UNL     1       6.365   4.904  18.833  0.00  0.00    +0.000 A 
ENDROOT
BRANCH   1   7
ATOM      7  C   UNL     1       4.624   4.216  17.196  0.00  0.00    +0.000 C 
ATOM      8  O   UNL     1       4.532   3.752  16.082  0.00  0.00    +0.000 OA
BRANCH   7   9
ATOM      9  O   UNL     1       3.735   4.019  18.216  0.00  0.00    +0.000 OA
BRANCH   9  10
ATOM     10  C   UNL     1       2.539   4.820  18.128  0.00  0.00    +0.000 C 
BRANCH  10  11
ATOM     11  C   UNL     1       2.437   5.833  19.262  0.00  0.00    +0.000 C 
BRANCH  11  12
ATOM     12  C   UNL     1       2.076   5.160  20.590  0.00  0.00    +0.000 C 
BRANCH  12  14
ATOM     13  C   UNL     1       1.344   2.828  21.173  0.00  0.00    +0.000 C 
ATOM     14  C   UNL     1       1.001   4.090  20.399  0.00  0.00    +0.000 C 
ENDBRANCH  12  14
ENDBRANCH  11  12
ENDBRANCH  10  11
ENDBRANCH   9  10
ENDBRANCH   7   9
ENDBRANCH   1   7
BRANCH   4  15
ATOM     15  O   UNL     1       8.775   7.641  19.028  0.00  0.00    +0.000 OA
ATOM     16  H   UNL     1       9.371   7.105  19.579  0.00  0.00    +0.000 HD
ENDBRANCH   4  15
BRANCH   5  17
ATOM     17  O   UNL     1       7.946   5.489  20.500  0.00  0.00    +0.000 OA
ATOM     18  H   UNL     1       7.835   4.530  20.650  0.00  0.00    +0.000 HD
ENDBRANCH   5  17
TORSDOF 8
ENDMDL
MODEL 7
REMARK VINA RESULT:      -6.0      1.833      2.178
REMARK  Name = 
REMARK  9 active torsions:
REMARK  status: ('A' for Active; 'I' for Inactive)
REMARK    1  A    between atoms: C_1  and  C_2
REMARK    2  A    between atoms: C_2  and  C_3
REMARK    3  A    between atoms: C_3  and  C_4
REMARK    4  A    between atoms: C_4  and  C_5
REMARK    5  A    between atoms: C_5  and  O_6
REMARK    6  A    between atoms: O_6  and  C_7
REMARK    7  A    between atoms: C_7  and  C_9
REMARK    8  A    between atoms: C_12  and  O_13
REMARK    9  A    between atoms: C_14  and  O_15
REMARK                            x       y       z     vdW  Elec       q    Type
REMARK                         _______ _______ _______ _____ _____    ______ ____
ROOT
ATOM      1  C   UNL     1       4.849   4.542  16.737  0.00  0.00    +0.000 A 
ATOM      2  C   UNL     1       5.026   3.836  15.536  0.00  0.00    +0.000 A 
ATOM      3  C   UNL     1       6.106   4.138  14.681  0.00  0.00    +0.000 A 
ATOM      4  C   UNL     1       7.011   5.137  15.033  0.00  0.00    +0.000 A 
ATOM      5  C   UNL     1       6.837   5.834  16.227  0.00  0.00    +0.000 A 
ATOM      6  C   UNL     1       5.774   5.536  17.080  0.00  0.00    +0.000 A 
ENDROOT
BRANCH   1   7
ATOM      7  C   UNL     1       3.704   4.294  17.681  0.00  0.00    +0.000 C 
ATOM      8  O   UNL     1       2.919   5.153  18.012  0.00  0.00    +0.000 OA
BRANCH   7   9
ATOM      9  O   UNL     1       3.713   3.005  18.140  0.00  0.00    +0.000 OA
BRANCH   9  10
ATOM     10  C   UNL     1       2.507   2.265  17.859  0.00  0.00    +0.000 C 
BRANCH  10  11
ATOM     11  C   UNL     1       1.745   1.899  19.128  0.00  0.00    +0.000 C 
BRANCH  11  12
ATOM     12  C   UNL     1       0.756   2.999  19.529  0.00  0.00    +0.000 C 
BRANCH  12  14
ATOM     13  C   UNL     1       2.332   2.952  21.486  0.00  0.00    +0.000 C 
ATOM     14  C   UNL     1       1.199   3.707  20.810  0.00  0.00    +0.000 C 
ENDBRANCH  12  14
ENDBRANCH  11  12
ENDBRANCH  10  11
ENDBRANCH   9  10
ENDBRANCH   7   9
ENDBRANCH   1   7
BRANCH   4  15
ATOM     15  O   UNL     1       8.076   5.477  14.246  0.00  0.00    +0.000 OA
ATOM     16  H   UNL     1       8.716   5.991  14.768  0.00  0.00    +0.000 HD
ENDBRANCH   4  15
BRANCH   5  17
ATOM     17  O   UNL     1       7.697   6.832  16.592  0.00  0.00    +0.000 OA
ATOM     18  H   UNL     1       8.497   6.391  16.937  0.00  0.00    +0.000 HD
ENDBRANCH   5  17
TORSDOF 8
ENDMDL
MODEL 8
REMARK VINA RESULT:      -6.0      1.598      2.192
REMARK  Name = 
REMARK  9 active torsions:
REMARK  status: ('A' for Active; 'I' for Inactive)
REMARK    1  A    between atoms: C_1  and  C_2
REMARK    2  A    between atoms: C_2  and  C_3
REMARK    3  A    between atoms: C_3  and  C_4
REMARK    4  A    between atoms: C_4  and  C_5
REMARK    5  A    between atoms: C_5  and  O_6
REMARK    6  A    between atoms: O_6  and  C_7
REMARK    7  A    between atoms: C_7  and  C_9
REMARK    8  A    between atoms: C_12  and  O_13
REMARK    9  A    between atoms: C_14  and  O_15
REMARK                            x       y       z     vdW  Elec       q    Type
REMARK                         _______ _______ _______ _____ _____    ______ ____
ROOT
ATOM      1  C   UNL     1       4.549   3.879  17.408  0.00  0.00    +0.000 A 
ATOM      2  C   UNL     1       4.886   4.847  18.368  0.00  0.00    +0.000 A 
ATOM      3  C   UNL     1       5.907   5.785  18.110  0.00  0.00    +0.000 A 
ATOM      4  C   UNL     1       6.580   5.760  16.891  0.00  0.00    +0.000 A 
ATOM      5  C   UNL     1       6.241   4.804  15.937  0.00  0.00    +0.000 A 
ATOM      6  C   UNL     1       5.229   3.875  16.184  0.00  0.00    +0.000 A 
ENDROOT
BRANCH   1   7
ATOM      7  C   UNL     1       3.493   2.829  17.627  0.00  0.00    +0.000 C 
ATOM      8  O   UNL     1       3.706   1.783  18.197  0.00  0.00    +0.000 OA
BRANCH   7   9
ATOM      9  O   UNL     1       2.305   3.197  17.057  0.00  0.00    +0.000 OA
BRANCH   9  10
ATOM     10  C   UNL     1       1.494   4.064  17.876  0.00  0.00    +0.000 C 
BRANCH  10  11
ATOM     11  C   UNL     1       0.996   3.366  19.136  0.00  0.00    +0.000 C 
BRANCH  11  12
ATOM     12  C   UNL     1       0.979   4.315  20.339  0.00  0.00    +0.000 C 
BRANCH  12  14
ATOM     13  C   UNL     1       2.496   2.698  21.522  0.00  0.00    +0.000 C 
ATOM     14  C   UNL     1       2.240   4.159  21.190  0.00  0.00    +0.000 C 
ENDBRANCH  12  14
ENDBRANCH  11  12
ENDBRANCH  10  11
ENDBRANCH   9  10
ENDBRANCH   7   9
ENDBRANCH   1   7
BRANCH   4  15
ATOM     15  O   UNL     1       7.579   6.642  16.583  0.00  0.00    +0.000 OA
ATOM     16  H   UNL     1       8.040   6.909  17.397  0.00  0.00    +0.000 HD
ENDBRANCH   4  15
BRANCH   5  17
ATOM     17  O   UNL     1       6.894   4.741  14.738  0.00  0.00    +0.000 OA
ATOM     18  H   UNL     1       7.778   4.371  14.926  0.00  0.00    +0.000 HD
ENDBRANCH   5  17
TORSDOF 8
ENDMDL
MODEL 9
REMARK VINA RESULT:      -6.0      1.185      1.636
REMARK  Name = 
REMARK  9 active torsions:
REMARK  status: ('A' for Active; 'I' for Inactive)
REMARK    1  A    between atoms: C_1  and  C_2
REMARK    2  A    between atoms: C_2  and  C_3
REMARK    3  A    between atoms: C_3  and  C_4
REMARK    4  A    between atoms: C_4  and  C_5
REMARK    5  A    between atoms: C_5  and  O_6
REMARK    6  A    between atoms: O_6  and  C_7
REMARK    7  A    between atoms: C_7  and  C_9
REMARK    8  A    between atoms: C_12  and  O_13
REMARK    9  A    between atoms: C_14  and  O_15
REMARK                            x       y       z     vdW  Elec       q    Type
REMARK                         _______ _______ _______ _____ _____    ______ ____
ROOT
ATOM      1  C   UNL     1       5.816   5.113  17.551  0.00  0.00    +0.000 A 
ATOM      2  C   UNL     1       6.215   6.233  16.803  0.00  0.00    +0.000 A 
ATOM      3  C   UNL     1       7.208   7.105  17.294  0.00  0.00    +0.000 A 
ATOM      4  C   UNL     1       7.806   6.851  18.526  0.00  0.00    +0.000 A 
ATOM      5  C   UNL     1       7.415   5.737  19.265  0.00  0.00    +0.000 A 
ATOM      6  C   UNL     1       6.436   4.867  18.782  0.00  0.00    +0.000 A 
ENDROOT
BRANCH   1   7
ATOM      7  C   UNL     1       4.743   4.158  17.104  0.00  0.00    +0.000 C 
ATOM      8  O   UNL     1       4.500   3.932  15.940  0.00  0.00    +0.000 OA
BRANCH   7   9
ATOM      9  O   UNL     1       4.065   3.640  18.174  0.00  0.00    +0.000 OA
BRANCH   9  10
ATOM     10  C   UNL     1       3.448   2.361  17.925  0.00  0.00    +0.000 C 
BRANCH  10  11
ATOM     11  C   UNL     1       2.055   2.263  18.537  0.00  0.00    +0.000 C 
BRANCH  11  12
ATOM     12  C   UNL     1       1.421   3.645  18.722  0.00  0.00    +0.000 C 
BRANCH  12  14
ATOM     13  C   UNL     1       2.097   4.159  21.087  0.00  0.00    +0.000 C 
ATOM     14  C   UNL     1       0.935   3.848  20.157  0.00  0.00    +0.000 C 
ENDBRANCH  12  14
ENDBRANCH  11  12
ENDBRANCH  10  11
ENDBRANCH   9  10
ENDBRANCH   7   9
ENDBRANCH   1   7
BRANCH   4  15
ATOM     15  O   UNL     1       8.774   7.660  19.055  0.00  0.00    +0.000 OA
ATOM     16  H   UNL     1       8.541   7.888  19.972  0.00  0.00    +0.000 HD
ENDBRANCH   4  15
BRANCH   5  17
ATOM     17  O   UNL     1       7.970   5.470  20.485  0.00  0.00    +0.000 OA
ATOM     18  H   UNL     1       7.308   5.738  21.151  0.00  0.00    +0.000 HD
ENDBRANCH   5  17
TORSDOF 8
ENDMDL
