MODEL 1
REMARK VINA RESULT:      -7.9      0.000      0.000
REMARK  Name = 
REMARK  5 active torsions:
REMARK  status: ('A' for Active; 'I' for Inactive)
REMARK    1  A    between atoms: C_1  and  C_2
REMARK    2  A    between atoms: C_7  and  N_8
REMARK    3  A    between atoms: N_17  and  C_18
REMARK    4  A    between atoms: C_18  and  C_19
REMARK    5  A    between atoms: C_18  and  C_20
REMARK                            x       y       z     vdW  Elec       q    Type
REMARK                         _______ _______ _______ _____ _____    ______ ____
ROOT
ATOM      1  N   UNL     1       5.230   4.150  17.822  0.00  0.00    +0.000 N 
ATOM      2  C   UNL     1       5.792   4.149  16.579  0.00  0.00    +0.000 A 
ATOM      3  N   UNL     1       5.445   3.395  15.559  0.00  0.00    +0.000 NA
ATOM      4  C   UNL     1       6.146   3.856  14.487  0.00  0.00    +0.000 A 
ATOM      5  C   UNL     1       6.069   3.437  13.151  0.00  0.00    +0.000 A 
ATOM      6  C   UNL     1       6.840   4.095  12.192  0.00  0.00    +0.000 A 
ATOM      7  C   UNL     1       7.679   5.146  12.564  0.00  0.00    +0.000 A 
ATOM      8  C   UNL     1       7.780   5.564  13.900  0.00  0.00    +0.000 A 
ATOM      9  C   UNL     1       6.998   4.894  14.852  0.00  0.00    +0.000 A 
ATOM     10  N   UNL     1       6.817   5.013  16.222  0.00  0.00    +0.000 N 
ATOM     11  H   UNL     1       5.824   3.756  18.539  0.00  0.00    +0.000 HD
ENDROOT
BRANCH   1  18
ATOM     12  C   UNL     1       2.996   6.124  17.906  0.00  0.00    +0.000 C 
ATOM     13  C   UNL     1       2.806   4.642  18.063  0.00  0.00    +0.000 A 
ATOM     14  C   UNL     1       1.502   4.164  18.310  0.00  0.00    +0.000 A 
ATOM     15  C   UNL     1       1.242   2.801  18.427  0.00  0.00    +0.000 A 
ATOM     16  C   UNL     1       2.275   1.889  18.275  0.00  0.00    +0.000 A 
ATOM     17  C   UNL     1       3.572   2.349  18.057  0.00  0.00    +0.000 A 
ATOM     18  C   UNL     1       3.877   3.725  18.010  0.00  0.00    +0.000 A 
ENDBRANCH   1  18
BRANCH  10  19
ATOM     19  C   UNL     1       7.504   5.931  17.127  0.00  0.00    +0.000 C 
ATOM     20  C   UNL     1       6.779   7.271  17.282  0.00  0.00    +0.000 C 
ATOM     21  C   UNL     1       7.814   5.297  18.483  0.00  0.00    +0.000 C 
ENDBRANCH  10  19
TORSDOF 2
ENDMDL
MODEL 2
REMARK VINA RESULT:      -7.7      3.409      6.249
REMARK  Name = 
REMARK  5 active torsions:
REMARK  status: ('A' for Active; 'I' for Inactive)
REMARK    1  A    between atoms: C_1  and  C_2
REMARK    2  A    between atoms: C_7  and  N_8
REMARK    3  A    between atoms: N_17  and  C_18
REMARK    4  A    between atoms: C_18  and  C_19
REMARK    5  A    between atoms: C_18  and  C_20
REMARK                            x       y       z     vdW  Elec       q    Type
REMARK                         _______ _______ _______ _____ _____    ______ ____
ROOT
ATOM      1  N   UNL     1       2.725   7.500  20.059  0.00  0.00    +0.000 N 
ATOM      2  C   UNL     1       2.533   6.175  19.801  0.00  0.00    +0.000 A 
ATOM      3  N   UNL     1       1.524   5.434  20.202  0.00  0.00    +0.000 NA
ATOM      4  C   UNL     1       1.654   4.236  19.567  0.00  0.00    +0.000 A 
ATOM      5  C   UNL     1       0.785   3.135  19.599  0.00  0.00    +0.000 A 
ATOM      6  C   UNL     1       1.083   2.019  18.816  0.00  0.00    +0.000 A 
ATOM      7  C   UNL     1       2.231   2.000  18.024  0.00  0.00    +0.000 A 
ATOM      8  C   UNL     1       3.119   3.087  17.997  0.00  0.00    +0.000 A 
ATOM      9  C   UNL     1       2.806   4.202  18.788  0.00  0.00    +0.000 A 
ATOM     10  N   UNL     1       3.404   5.433  19.017  0.00  0.00    +0.000 N 
ATOM     11  H   UNL     1       3.481   7.686  20.706  0.00  0.00    +0.000 HD
ENDROOT
BRANCH   1  18
ATOM     12  C   UNL     1       1.547   9.224  17.929  0.00  0.00    +0.000 C 
ATOM     13  C   UNL     1       1.048   9.189  19.346  0.00  0.00    +0.000 A 
ATOM     14  C   UNL     1      -0.010  10.054  19.697  0.00  0.00    +0.000 A 
ATOM     15  C   UNL     1      -0.553  10.049  20.980  0.00  0.00    +0.000 A 
ATOM     16  C   UNL     1      -0.067   9.162  21.928  0.00  0.00    +0.000 A 
ATOM     17  C   UNL     1       0.995   8.320  21.602  0.00  0.00    +0.000 A 
ATOM     18  C   UNL     1       1.614   8.358  20.335  0.00  0.00    +0.000 A 
ENDBRANCH   1  18
BRANCH  10  19
ATOM     19  C   UNL     1       4.673   5.912  18.476  0.00  0.00    +0.000 C 
ATOM     20  C   UNL     1       5.871   5.069  18.925  0.00  0.00    +0.000 C 
ATOM     21  C   UNL     1       4.640   6.078  16.957  0.00  0.00    +0.000 C 
ENDBRANCH  10  19
TORSDOF 2
ENDMDL
MODEL 3
REMARK VINA RESULT:      -7.7      0.660      1.490
REMARK  Name = 
REMARK  5 active torsions:
REMARK  status: ('A' for Active; 'I' for Inactive)
REMARK    1  A    between atoms: C_1  and  C_2
REMARK    2  A    between atoms: C_7  and  N_8
REMARK    3  A    between atoms: N_17  and  C_18
REMARK    4  A    between atoms: C_18  and  C_19
REMARK    5  A    between atoms: C_18  and  C_20
REMARK                            x       y       z     vdW  Elec       q    Type
REMARK                         _______ _______ _______ _____ _____    ______ ____
ROOT
ATOM      1  N   UNL     1       5.161   4.353  18.024  0.00  0.00    +0.000 N 
ATOM      2  C   UNL     1       5.722   4.285  16.782  0.00  0.00    +0.000 A 
ATOM      3  N   UNL     1       5.370   3.481  15.803  0.00  0.00    +0.000 NA
ATOM      4  C   UNL     1       6.072   3.882  14.707  0.00  0.00    +0.000 A 
ATOM      5  C   UNL     1       5.992   3.395  13.395  0.00  0.00    +0.000 A 
ATOM      6  C   UNL     1       6.765   3.998  12.403  0.00  0.00    +0.000 A 
ATOM      7  C   UNL     1       7.609   5.063  12.719  0.00  0.00    +0.000 A 
ATOM      8  C   UNL     1       7.715   5.549  14.032  0.00  0.00    +0.000 A 
ATOM      9  C   UNL     1       6.930   4.933  15.018  0.00  0.00    +0.000 A 
ATOM     10  N   UNL     1       6.750   5.124  16.380  0.00  0.00    +0.000 N 
ATOM     11  H   UNL     1       5.754   3.994  18.760  0.00  0.00    +0.000 HD
ENDROOT
BRANCH   1  18
ATOM     12  C   UNL     1       4.494   2.160  19.932  0.00  0.00    +0.000 C 
ATOM     13  C   UNL     1       3.468   2.905  19.124  0.00  0.00    +0.000 A 
ATOM     14  C   UNL     1       2.119   2.512  19.244  0.00  0.00    +0.000 A 
ATOM     15  C   UNL     1       1.107   3.181  18.559  0.00  0.00    +0.000 A 
ATOM     16  C   UNL     1       1.423   4.270  17.761  0.00  0.00    +0.000 A 
ATOM     17  C   UNL     1       2.755   4.652  17.614  0.00  0.00    +0.000 A 
ATOM     18  C   UNL     1       3.806   3.946  18.235  0.00  0.00    +0.000 A 
ENDBRANCH   1  18
BRANCH  10  19
ATOM     19  C   UNL     1       7.444   6.083  17.236  0.00  0.00    +0.000 C 
ATOM     20  C   UNL     1       6.715   7.427  17.339  0.00  0.00    +0.000 C 
ATOM     21  C   UNL     1       7.771   5.512  18.616  0.00  0.00    +0.000 C 
ENDBRANCH  10  19
TORSDOF 2
ENDMDL
MODEL 4
REMARK VINA RESULT:      -7.6      1.509      1.920
REMARK  Name = 
REMARK  5 active torsions:
REMARK  status: ('A' for Active; 'I' for Inactive)
REMARK    1  A    between atoms: C_1  and  C_2
REMARK    2  A    between atoms: C_7  and  N_8
REMARK    3  A    between atoms: N_17  and  C_18
REMARK    4  A    between atoms: C_18  and  C_19
REMARK    5  A    between atoms: C_18  and  C_20
REMARK                            x       y       z     vdW  Elec       q    Type
REMARK                         _______ _______ _______ _____ _____    ______ ____
ROOT
ATOM      1  N   UNL     1       4.818   4.565  19.497  0.00  0.00    +0.000 N 
ATOM      2  C   UNL     1       5.305   4.427  18.231  0.00  0.00    +0.000 A 
ATOM      3  N   UNL     1       4.882   3.586  17.313  0.00  0.00    +0.000 NA
ATOM      4  C   UNL     1       5.529   3.922  16.161  0.00  0.00    +0.000 A 
ATOM      5  C   UNL     1       5.364   3.377  14.880  0.00  0.00    +0.000 A 
ATOM      6  C   UNL     1       6.090   3.917  13.818  0.00  0.00    +0.000 A 
ATOM      7  C   UNL     1       6.971   4.977  14.036  0.00  0.00    +0.000 A 
ATOM      8  C   UNL     1       7.160   5.520  15.316  0.00  0.00    +0.000 A 
ATOM      9  C   UNL     1       6.422   4.968  16.373  0.00  0.00    +0.000 A 
ATOM     10  N   UNL     1       6.325   5.225  17.732  0.00  0.00    +0.000 N 
ATOM     11  H   UNL     1       5.445   4.227  20.216  0.00  0.00    +0.000 HD
ENDROOT
BRANCH   1  18
ATOM     12  C   UNL     1       2.630   6.591  19.483  0.00  0.00    +0.000 C 
ATOM     13  C   UNL     1       2.421   5.140  19.813  0.00  0.00    +0.000 A 
ATOM     14  C   UNL     1       1.124   4.724  20.181  0.00  0.00    +0.000 A 
ATOM     15  C   UNL     1       0.845   3.388  20.460  0.00  0.00    +0.000 A 
ATOM     16  C   UNL     1       1.851   2.440  20.355  0.00  0.00    +0.000 A 
ATOM     17  C   UNL     1       3.143   2.842  20.018  0.00  0.00    +0.000 A 
ATOM     18  C   UNL     1       3.470   4.197  19.804  0.00  0.00    +0.000 A 
ENDBRANCH   1  18
BRANCH  10  19
ATOM     19  C   UNL     1       7.084   6.207  18.502  0.00  0.00    +0.000 C 
ATOM     20  C   UNL     1       8.234   5.583  19.298  0.00  0.00    +0.000 C 
ATOM     21  C   UNL     1       7.562   7.382  17.648  0.00  0.00    +0.000 C 
ENDBRANCH  10  19
TORSDOF 2
ENDMDL
MODEL 5
REMARK VINA RESULT:      -7.4      3.270      6.018
REMARK  Name = 
REMARK  5 active torsions:
REMARK  status: ('A' for Active; 'I' for Inactive)
REMARK    1  A    between atoms: C_1  and  C_2
REMARK    2  A    between atoms: C_7  and  N_8
REMARK    3  A    between atoms: N_17  and  C_18
REMARK    4  A    between atoms: C_18  and  C_19
REMARK    5  A    between atoms: C_18  and  C_20
REMARK                            x       y       z     vdW  Elec       q    Type
REMARK                         _______ _______ _______ _____ _____    ______ ____
ROOT
ATOM      1  N   UNL     1       2.737   7.885  19.051  0.00  0.00    +0.000 N 
ATOM      2  C   UNL     1       2.649   6.525  18.991  0.00  0.00    +0.000 A 
ATOM      3  N   UNL     1       1.662   5.781  19.437  0.00  0.00    +0.000 NA
ATOM      4  C   UNL     1       1.915   4.513  19.005  0.00  0.00    +0.000 A 
ATOM      5  C   UNL     1       1.119   3.369  19.152  0.00  0.00    +0.000 A 
ATOM      6  C   UNL     1       1.544   2.172  18.573  0.00  0.00    +0.000 A 
ATOM      7  C   UNL     1       2.746   2.120  17.868  0.00  0.00    +0.000 A 
ATOM      8  C   UNL     1       3.563   3.254  17.729  0.00  0.00    +0.000 A 
ATOM      9  C   UNL     1       3.122   4.449  18.315  0.00  0.00    +0.000 A 
ATOM     10  N   UNL     1       3.622   5.741  18.388  0.00  0.00    +0.000 N 
ATOM     11  H   UNL     1       3.429   8.222  19.708  0.00  0.00    +0.000 HD
ENDROOT
BRANCH   1  18
ATOM     12  C   UNL     1       1.505   8.589  21.675  0.00  0.00    +0.000 C 
ATOM     13  C   UNL     1       0.950   9.025  20.349  0.00  0.00    +0.000 A 
ATOM     14  C   UNL     1      -0.246   9.773  20.345  0.00  0.00    +0.000 A 
ATOM     15  C   UNL     1      -0.799  10.248  19.158  0.00  0.00    +0.000 A 
ATOM     16  C   UNL     1      -0.153  10.006  17.955  0.00  0.00    +0.000 A 
ATOM     17  C   UNL     1       1.016   9.247  17.942  0.00  0.00    +0.000 A 
ATOM     18  C   UNL     1       1.556   8.689  19.120  0.00  0.00    +0.000 A 
ENDBRANCH   1  18
BRANCH  10  19
ATOM     19  C   UNL     1       4.894   6.226  17.861  0.00  0.00    +0.000 C 
ATOM     20  C   UNL     1       6.106   5.538  18.497  0.00  0.00    +0.000 C 
ATOM     21  C   UNL     1       4.955   6.178  16.334  0.00  0.00    +0.000 C 
ENDBRANCH  10  19
TORSDOF 2
ENDMDL
MODEL 6
REMARK VINA RESULT:      -7.4      1.494      2.190
REMARK  Name = 
REMARK  5 active torsions:
REMARK  status: ('A' for Active; 'I' for Inactive)
REMARK    1  A    between atoms: C_1  and  C_2
REMARK    2  A    between atoms: C_7  and  N_8
REMARK    3  A    between atoms: N_17  and  C_18
REMARK    4  A    between atoms: C_18  and  C_19
REMARK    5  A    between atoms: C_18  and  C_20
REMARK                            x       y       z     vdW  Elec       q    Type
REMARK                         _______ _______ _______ _____ _____    ______ ____
ROOT
ATOM      1  N   UNL     1       5.330   4.813  19.148  0.00  0.00    +0.000 N 
ATOM      2  C   UNL     1       5.676   4.577  17.850  0.00  0.00    +0.000 A 
ATOM      3  N   UNL     1       5.049   3.796  16.999  0.00  0.00    +0.000 NA
ATOM      4  C   UNL     1       5.635   4.005  15.787  0.00  0.00    +0.000 A 
ATOM      5  C   UNL     1       5.275   3.468  14.542  0.00  0.00    +0.000 A 
ATOM      6  C   UNL     1       5.979   3.867  13.406  0.00  0.00    +0.000 A 
ATOM      7  C   UNL     1       7.029   4.780  13.514  0.00  0.00    +0.000 A 
ATOM      8  C   UNL     1       7.413   5.310  14.756  0.00  0.00    +0.000 A 
ATOM      9  C   UNL     1       6.695   4.901  15.888  0.00  0.00    +0.000 A 
ATOM     10  N   UNL     1       6.759   5.195  17.242  0.00  0.00    +0.000 N 
ATOM     11  H   UNL     1       5.959   4.395  19.822  0.00  0.00    +0.000 HD
ENDROOT
BRANCH   1  18
ATOM     12  C   UNL     1       4.312   2.201  20.167  0.00  0.00    +0.000 C 
ATOM     13  C   UNL     1       3.468   3.439  20.054  0.00  0.00    +0.000 A 
ATOM     14  C   UNL     1       2.106   3.346  20.409  0.00  0.00    +0.000 A 
ATOM     15  C   UNL     1       1.271   4.461  20.371  0.00  0.00    +0.000 A 
ATOM     16  C   UNL     1       1.787   5.693  20.001  0.00  0.00    +0.000 A 
ATOM     17  C   UNL     1       3.125   5.793  19.623  0.00  0.00    +0.000 A 
ATOM     18  C   UNL     1       3.974   4.667  19.579  0.00  0.00    +0.000 A 
ENDBRANCH   1  18
BRANCH  10  19
ATOM     19  C   UNL     1       7.725   6.061  17.912  0.00  0.00    +0.000 C 
ATOM     20  C   UNL     1       7.461   7.551  17.670  0.00  0.00    +0.000 C 
ATOM     21  C   UNL     1       7.863   5.748  19.402  0.00  0.00    +0.000 C 
ENDBRANCH  10  19
TORSDOF 2
ENDMDL
MODEL 7
REMARK VINA RESULT:      -7.3      1.941      6.477
REMARK  Name = 
REMARK  5 active torsions:
REMARK  status: ('A' for Active; 'I' for Inactive)
REMARK    1  A    between atoms: C_1  and  C_2
REMARK    2  A    between atoms: C_7  and  N_8
REMARK    3  A    between atoms: N_17  and  C_18
REMARK    4  A    between atoms: C_18  and  C_19
REMARK    5  A    between atoms: C_18  and  C_20
REMARK                            x       y       z     vdW  Elec       q    Type
REMARK                         _______ _______ _______ _____ _____    ______ ____
ROOT
ATOM      1  N   UNL     1       5.061   3.624  18.016  0.00  0.00    +0.000 N 
ATOM      2  C   UNL     1       4.263   4.485  18.712  0.00  0.00    +0.000 A 
ATOM      3  N   UNL     1       4.282   5.798  18.652  0.00  0.00    +0.000 NA
ATOM      4  C   UNL     1       3.206   6.228  19.368  0.00  0.00    +0.000 A 
ATOM      5  C   UNL     1       2.744   7.541  19.540  0.00  0.00    +0.000 A 
ATOM      6  C   UNL     1       1.574   7.754  20.270  0.00  0.00    +0.000 A 
ATOM      7  C   UNL     1       0.885   6.676  20.825  0.00  0.00    +0.000 A 
ATOM      8  C   UNL     1       1.347   5.358  20.677  0.00  0.00    +0.000 A 
ATOM      9  C   UNL     1       2.523   5.159  19.939  0.00  0.00    +0.000 A 
ATOM     10  N   UNL     1       3.268   4.048  19.574  0.00  0.00    +0.000 N 
ATOM     11  H   UNL     1       5.750   3.152  18.587  0.00  0.00    +0.000 HD
ENDROOT
BRANCH   1  18
ATOM     12  C   UNL     1       7.855   4.658  17.865  0.00  0.00    +0.000 C 
ATOM     13  C   UNL     1       6.952   4.515  16.672  0.00  0.00    +0.000 A 
ATOM     14  C   UNL     1       7.441   4.936  15.418  0.00  0.00    +0.000 A 
ATOM     15  C   UNL     1       6.678   4.797  14.260  0.00  0.00    +0.000 A 
ATOM     16  C   UNL     1       5.423   4.212  14.332  0.00  0.00    +0.000 A 
ATOM     17  C   UNL     1       4.918   3.815  15.569  0.00  0.00    +0.000 A 
ATOM     18  C   UNL     1       5.637   4.013  16.766  0.00  0.00    +0.000 A 
ENDBRANCH   1  18
BRANCH  10  19
ATOM     19  C   UNL     1       3.019   2.658  19.945  0.00  0.00    +0.000 C 
ATOM     20  C   UNL     1       2.787   2.473  21.448  0.00  0.00    +0.000 C 
ATOM     21  C   UNL     1       1.902   2.019  19.120  0.00  0.00    +0.000 C 
ENDBRANCH  10  19
TORSDOF 2
ENDMDL
MODEL 8
REMARK VINA RESULT:      -7.3      1.548      2.434
REMARK  Name = 
REMARK  5 active torsions:
REMARK  status: ('A' for Active; 'I' for Inactive)
REMARK    1  A    between atoms: C_1  and  C_2
REMARK    2  A    between atoms: C_7  and  N_8
REMARK    3  A    between atoms: N_17  and  C_18
REMARK    4  A    between atoms: C_18  and  C_19
REMARK    5  A    between atoms: C_18  and  C_20
REMARK                            x       y       z     vdW  Elec       q    Type
REMARK                         _______ _______ _______ _____ _____    ______ ____
ROOT
ATOM      1  N   UNL     1       4.862   4.643  19.459  0.00  0.00    +0.000 N 
ATOM      2  C   UNL     1       5.347   4.492  18.193  0.00  0.00    +0.000 A 
ATOM      3  N   UNL     1       4.952   3.613  17.300  0.00  0.00    +0.000 NA
ATOM      4  C   UNL     1       5.579   3.943  16.136  0.00  0.00    +0.000 A 
ATOM      5  C   UNL     1       5.428   3.359  14.870  0.00  0.00    +0.000 A 
ATOM      6  C   UNL     1       6.127   3.900  13.790  0.00  0.00    +0.000 A 
ATOM      7  C   UNL     1       6.967   4.998  13.975  0.00  0.00    +0.000 A 
ATOM      8  C   UNL     1       7.142   5.581  15.240  0.00  0.00    +0.000 A 
ATOM      9  C   UNL     1       6.432   5.028  16.315  0.00  0.00    +0.000 A 
ATOM     10  N   UNL     1       6.332   5.316  17.668  0.00  0.00    +0.000 N 
ATOM     11  H   UNL     1       5.505   4.349  20.182  0.00  0.00    +0.000 HD
ENDROOT
BRANCH   1  18
ATOM     12  C   UNL     1       4.314   1.911  20.523  0.00  0.00    +0.000 C 
ATOM     13  C   UNL     1       3.247   2.941  20.278  0.00  0.00    +0.000 A 
ATOM     14  C   UNL     1       1.906   2.577  20.523  0.00  0.00    +0.000 A 
ATOM     15  C   UNL     1       0.867   3.490  20.359  0.00  0.00    +0.000 A 
ATOM     16  C   UNL     1       1.151   4.790  19.969  0.00  0.00    +0.000 A 
ATOM     17  C   UNL     1       2.469   5.155  19.698  0.00  0.00    +0.000 A 
ATOM     18  C   UNL     1       3.531   4.231  19.783  0.00  0.00    +0.000 A 
ENDBRANCH   1  18
BRANCH  10  19
ATOM     19  C   UNL     1       7.056   6.347  18.407  0.00  0.00    +0.000 C 
ATOM     20  C   UNL     1       8.183   5.779  19.275  0.00  0.00    +0.000 C 
ATOM     21  C   UNL     1       7.553   7.477  17.506  0.00  0.00    +0.000 C 
ENDBRANCH  10  19
TORSDOF 2
ENDMDL
MODEL 9
REMARK VINA RESULT:      -7.0      1.905      6.213
REMARK  Name = 
REMARK  5 active torsions:
REMARK  status: ('A' for Active; 'I' for Inactive)
REMARK    1  A    between atoms: C_1  and  C_2
REMARK    2  A    between atoms: C_7  and  N_8
REMARK    3  A    between atoms: N_17  and  C_18
REMARK    4  A    between atoms: C_18  and  C_19
REMARK    5  A    between atoms: C_18  and  C_20
REMARK                            x       y       z     vdW  Elec       q    Type
REMARK                         _______ _______ _______ _____ _____    ______ ____
ROOT
ATOM      1  N   UNL     1       4.109   6.193  16.837  0.00  0.00    +0.000 N 
ATOM      2  C   UNL     1       3.363   5.415  17.672  0.00  0.00    +0.000 A 
ATOM      3  N   UNL     1       3.185   4.115  17.586  0.00  0.00    +0.000 NA
ATOM      4  C   UNL     1       2.526   3.745  18.720  0.00  0.00    +0.000 A 
ATOM      5  C   UNL     1       2.174   2.453  19.139  0.00  0.00    +0.000 A 
ATOM      6  C   UNL     1       1.551   2.293  20.377  0.00  0.00    +0.000 A 
ATOM      7  C   UNL     1       1.278   3.403  21.177  0.00  0.00    +0.000 A 
ATOM      8  C   UNL     1       1.607   4.703  20.761  0.00  0.00    +0.000 A 
ATOM      9  C   UNL     1       2.234   4.848  19.515  0.00  0.00    +0.000 A 
ATOM     10  N   UNL     1       2.709   5.927  18.783  0.00  0.00    +0.000 N 
ATOM     11  H   UNL     1       3.559   6.801  16.244  0.00  0.00    +0.000 HD
ENDROOT
BRANCH   1  18
ATOM     12  C   UNL     1       6.922   6.484  17.785  0.00  0.00    +0.000 C 
ATOM     13  C   UNL     1       6.537   5.767  16.522  0.00  0.00    +0.000 A 
ATOM     14  C   UNL     1       7.570   5.242  15.717  0.00  0.00    +0.000 A 
ATOM     15  C   UNL     1       7.289   4.529  14.554  0.00  0.00    +0.000 A 
ATOM     16  C   UNL     1       5.971   4.308  14.185  0.00  0.00    +0.000 A 
ATOM     17  C   UNL     1       4.941   4.844  14.957  0.00  0.00    +0.000 A 
ATOM     18  C   UNL     1       5.198   5.633  16.098  0.00  0.00    +0.000 A 
ENDBRANCH   1  18
BRANCH  10  19
ATOM     19  C   UNL     1       2.622   7.341  19.138  0.00  0.00    +0.000 C 
ATOM     20  C   UNL     1       2.112   8.215  17.987  0.00  0.00    +0.000 C 
ATOM     21  C   UNL     1       1.826   7.578  20.421  0.00  0.00    +0.000 C 
ENDBRANCH  10  19
TORSDOF 2
ENDMDL
