MODEL 1
REMARK VINA RESULT:      -6.8      0.000      0.000
REMARK  Name = 
REMARK  7 active torsions:
REMARK  status: ('A' for Active; 'I' for Inactive)
REMARK    1  A    between atoms: N_5  and  C_6
REMARK    2  A    between atoms: C_6  and  O_7
REMARK    3  A    between atoms: C_6  and  C_11
REMARK    4  A    between atoms: O_7  and  C_8
REMARK    5  A    between atoms: C_8  and  C_9
REMARK    6  A    between atoms: C_9  and  O_10
REMARK    7  A    between atoms: N_13  and  O_14
REMARK                            x       y       z     vdW  Elec       q    Type
REMARK                         _______ _______ _______ _____ _____    ______ ____
ROOT
ATOM      1  C   UNL     1       4.591   4.176  18.853  0.00  0.00    +0.000 C 
ENDROOT
BRANCH   1   6
ATOM      2  N   UNL     1       7.663   5.473  14.435  0.00  0.00    +0.000 N 
ATOM      3  C   UNL     1       6.891   5.114  15.503  0.00  0.00    +0.000 A 
ATOM      4  C   UNL     1       5.460   4.828  15.300  0.00  0.00    +0.000 A 
ATOM      5  C   UNL     1       4.768   4.535  16.397  0.00  0.00    +0.000 A 
ATOM      6  N   UNL     1       5.372   4.468  17.637  0.00  0.00    +0.000 N 
ATOM      7  C   UNL     1       6.743   4.699  17.778  0.00  0.00    +0.000 A 
ATOM      8  O   UNL     1       7.306   4.574  18.867  0.00  0.00    +0.000 OA
ATOM      9  N   UNL     1       7.470   5.040  16.659  0.00  0.00    +0.000 NA
ATOM     10  H   UNL     1       7.440   5.075  13.530  0.00  0.00    +0.000 HD
ATOM     11  H   UNL     1       8.656   5.473  14.646  0.00  0.00    +0.000 HD
ENDBRANCH   1   6
BRANCH   1  12
ATOM     12  C   UNL     1       4.539   2.660  19.242  0.00  0.00    +0.000 C 
ATOM     13  O   UNL     1       4.971   2.209  20.305  0.00  0.00    +0.000 OA
ATOM     14  N   UNL     1       4.031   1.818  18.278  0.00  0.00    +0.000 N 
ATOM     15  H   UNL     1       3.950   2.071  17.298  0.00  0.00    +0.000 HD
BRANCH  14  16
ATOM     16  O   UNL     1       4.023   0.440  18.592  0.00  0.00    +0.000 OA
ATOM     17  H   UNL     1       3.101   0.174  18.379  0.00  0.00    +0.000 HD
ENDBRANCH  14  16
ENDBRANCH   1  12
BRANCH   1  18
ATOM     18  O   UNL     1       3.333   4.860  18.829  0.00  0.00    +0.000 OA
BRANCH  18  19
ATOM     19  C   UNL     1       2.544   4.717  20.011  0.00  0.00    +0.000 C 
BRANCH  19  20
ATOM     20  C   UNL     1       1.210   4.057  19.664  0.00  0.00    +0.000 C 
BRANCH  20  21
ATOM     21  O   UNL     1       0.731   3.291  20.765  0.00  0.00    +0.000 OA
ATOM     22  H   UNL     1       0.473   2.425  20.392  0.00  0.00    +0.000 HD
ENDBRANCH  20  21
ENDBRANCH  19  20
ENDBRANCH  18  19
ENDBRANCH   1  18
TORSDOF 7
ENDMDL
MODEL 2
REMARK VINA RESULT:      -6.7      1.010      1.202
REMARK  Name = 
REMARK  7 active torsions:
REMARK  status: ('A' for Active; 'I' for Inactive)
REMARK    1  A    between atoms: N_5  and  C_6
REMARK    2  A    between atoms: C_6  and  O_7
REMARK    3  A    between atoms: C_6  and  C_11
REMARK    4  A    between atoms: O_7  and  C_8
REMARK    5  A    between atoms: C_8  and  C_9
REMARK    6  A    between atoms: C_9  and  O_10
REMARK    7  A    between atoms: N_13  and  O_14
REMARK                            x       y       z     vdW  Elec       q    Type
REMARK                         _______ _______ _______ _____ _____    ______ ____
ROOT
ATOM      1  C   UNL     1       4.355   4.000  18.450  0.00  0.00    +0.000 C 
ENDROOT
BRANCH   1   6
ATOM      2  N   UNL     1       7.760   5.397  14.316  0.00  0.00    +0.000 N 
ATOM      3  C   UNL     1       6.911   5.012  15.314  0.00  0.00    +0.000 A 
ATOM      4  C   UNL     1       5.530   4.622  14.981  0.00  0.00    +0.000 A 
ATOM      5  C   UNL     1       4.752   4.309  16.014  0.00  0.00    +0.000 A 
ATOM      6  N   UNL     1       5.232   4.315  17.308  0.00  0.00    +0.000 N 
ATOM      7  C   UNL     1       6.564   4.644  17.576  0.00  0.00    +0.000 A 
ATOM      8  O   UNL     1       7.022   4.584  18.718  0.00  0.00    +0.000 OA
ATOM      9  N   UNL     1       7.375   5.006  16.523  0.00  0.00    +0.000 NA
ATOM     10  H   UNL     1       7.656   4.962  13.406  0.00  0.00    +0.000 HD
ATOM     11  H   UNL     1       8.725   5.470  14.624  0.00  0.00    +0.000 HD
ENDBRANCH   1   6
BRANCH   1  12
ATOM     12  C   UNL     1       4.390   2.501  18.902  0.00  0.00    +0.000 C 
ATOM     13  O   UNL     1       3.686   1.618  18.409  0.00  0.00    +0.000 OA
ATOM     14  N   UNL     1       5.229   2.221  19.958  0.00  0.00    +0.000 N 
ATOM     15  H   UNL     1       5.590   2.928  20.591  0.00  0.00    +0.000 HD
BRANCH  14  16
ATOM     16  O   UNL     1       5.236   0.883  20.413  0.00  0.00    +0.000 OA
ATOM     17  H   UNL     1       5.620   0.962  21.315  0.00  0.00    +0.000 HD
ENDBRANCH  14  16
ENDBRANCH   1  12
BRANCH   1  18
ATOM     18  O   UNL     1       3.053   4.568  18.266  0.00  0.00    +0.000 OA
BRANCH  18  19
ATOM     19  C   UNL     1       2.266   4.676  19.454  0.00  0.00    +0.000 C 
BRANCH  19  20
ATOM     20  C   UNL     1       1.045   3.765  19.347  0.00  0.00    +0.000 C 
BRANCH  20  21
ATOM     21  O   UNL     1       1.028   3.097  18.089  0.00  0.00    +0.000 OA
ATOM     22  H   UNL     1       1.952   2.826  17.922  0.00  0.00    +0.000 HD
ENDBRANCH  20  21
ENDBRANCH  19  20
ENDBRANCH  18  19
ENDBRANCH   1  18
TORSDOF 7
ENDMDL
MODEL 3
REMARK VINA RESULT:      -6.6      1.071      1.365
REMARK  Name = 
REMARK  7 active torsions:
REMARK  status: ('A' for Active; 'I' for Inactive)
REMARK    1  A    between atoms: N_5  and  C_6
REMARK    2  A    between atoms: C_6  and  O_7
REMARK    3  A    between atoms: C_6  and  C_11
REMARK    4  A    between atoms: O_7  and  C_8
REMARK    5  A    between atoms: C_8  and  C_9
REMARK    6  A    between atoms: C_9  and  O_10
REMARK    7  A    between atoms: N_13  and  O_14
REMARK                            x       y       z     vdW  Elec       q    Type
REMARK                         _______ _______ _______ _____ _____    ______ ____
ROOT
ATOM      1  C   UNL     1       4.520   4.232  18.607  0.00  0.00    +0.000 C 
ENDROOT
BRANCH   1   6
ATOM      2  N   UNL     1       7.814   5.404  14.315  0.00  0.00    +0.000 N 
ATOM      3  C   UNL     1       6.988   5.075  15.352  0.00  0.00    +0.000 A 
ATOM      4  C   UNL     1       5.568   4.787  15.086  0.00  0.00    +0.000 A 
ATOM      5  C   UNL     1       4.821   4.525  16.155  0.00  0.00    +0.000 A 
ATOM      6  N   UNL     1       5.362   4.490  17.425  0.00  0.00    +0.000 N 
ATOM      7  C   UNL     1       6.725   4.721  17.628  0.00  0.00    +0.000 A 
ATOM      8  O   UNL     1       7.232   4.623  18.747  0.00  0.00    +0.000 OA
ATOM      9  N   UNL     1       7.508   5.030  16.538  0.00  0.00    +0.000 NA
ATOM     10  H   UNL     1       7.635   4.982  13.411  0.00  0.00    +0.000 HD
ATOM     11  H   UNL     1       8.795   5.406  14.576  0.00  0.00    +0.000 HD
ENDBRANCH   1   6
BRANCH   1  12
ATOM     12  C   UNL     1       4.508   2.740  19.082  0.00  0.00    +0.000 C 
ATOM     13  O   UNL     1       4.937   2.364  20.175  0.00  0.00    +0.000 OA
ATOM     14  N   UNL     1       4.039   1.829  18.162  0.00  0.00    +0.000 N 
ATOM     15  H   UNL     1       3.964   2.023  17.167  0.00  0.00    +0.000 HD
BRANCH  14  16
ATOM     16  O   UNL     1       4.068   0.472  18.554  0.00  0.00    +0.000 OA
ATOM     17  H   UNL     1       4.960   0.181  18.261  0.00  0.00    +0.000 HD
ENDBRANCH  14  16
ENDBRANCH   1  12
BRANCH   1  18
ATOM     18  O   UNL     1       3.238   4.855  18.467  0.00  0.00    +0.000 OA
BRANCH  18  19
ATOM     19  C   UNL     1       2.718   5.445  19.660  0.00  0.00    +0.000 C 
BRANCH  19  20
ATOM     20  C   UNL     1       2.542   6.949  19.457  0.00  0.00    +0.000 C 
BRANCH  20  21
ATOM     21  O   UNL     1       2.106   7.568  20.664  0.00  0.00    +0.000 OA
ATOM     22  H   UNL     1       1.500   6.927  21.085  0.00  0.00    +0.000 HD
ENDBRANCH  20  21
ENDBRANCH  19  20
ENDBRANCH  18  19
ENDBRANCH   1  18
TORSDOF 7
ENDMDL
MODEL 4
REMARK VINA RESULT:      -6.6      2.118      5.596
REMARK  Name = 
REMARK  7 active torsions:
REMARK  status: ('A' for Active; 'I' for Inactive)
REMARK    1  A    between atoms: N_5  and  C_6
REMARK    2  A    between atoms: C_6  and  O_7
REMARK    3  A    between atoms: C_6  and  C_11
REMARK    4  A    between atoms: O_7  and  C_8
REMARK    5  A    between atoms: C_8  and  C_9
REMARK    6  A    between atoms: C_9  and  O_10
REMARK    7  A    between atoms: N_13  and  O_14
REMARK                            x       y       z     vdW  Elec       q    Type
REMARK                         _______ _______ _______ _____ _____    ______ ____
ROOT
ATOM      1  C   UNL     1       5.612   4.473  17.998  0.00  0.00    +0.000 C 
ENDROOT
BRANCH   1   6
ATOM      2  N   UNL     1       0.788   3.655  20.587  0.00  0.00    +0.000 N 
ATOM      3  C   UNL     1       1.980   3.900  19.966  0.00  0.00    +0.000 A 
ATOM      4  C   UNL     1       2.121   5.089  19.108  0.00  0.00    +0.000 A 
ATOM      5  C   UNL     1       3.295   5.228  18.501  0.00  0.00    +0.000 A 
ATOM      6  N   UNL     1       4.324   4.329  18.701  0.00  0.00    +0.000 N 
ATOM      7  C   UNL     1       4.165   3.241  19.563  0.00  0.00    +0.000 A 
ATOM      8  O   UNL     1       5.098   2.472  19.804  0.00  0.00    +0.000 OA
ATOM      9  N   UNL     1       2.944   3.059  20.173  0.00  0.00    +0.000 NA
ATOM     10  H   UNL     1       0.230   4.449  20.878  0.00  0.00    +0.000 HD
ATOM     11  H   UNL     1       0.850   2.922  21.288  0.00  0.00    +0.000 HD
ENDBRANCH   1   6
BRANCH   1  12
ATOM     12  C   UNL     1       6.657   5.376  18.735  0.00  0.00    +0.000 C 
ATOM     13  O   UNL     1       6.862   5.339  19.950  0.00  0.00    +0.000 OA
ATOM     14  N   UNL     1       7.311   6.293  17.941  0.00  0.00    +0.000 N 
ATOM     15  H   UNL     1       6.979   6.581  17.025  0.00  0.00    +0.000 HD
BRANCH  14  16
ATOM     16  O   UNL     1       8.221   7.151  18.597  0.00  0.00    +0.000 OA
ATOM     17  H   UNL     1       9.003   6.572  18.739  0.00  0.00    +0.000 HD
ENDBRANCH  14  16
ENDBRANCH   1  12
BRANCH   1  18
ATOM     18  O   UNL     1       5.407   4.756  16.609  0.00  0.00    +0.000 OA
BRANCH  18  19
ATOM     19  C   UNL     1       6.018   3.834  15.706  0.00  0.00    +0.000 C 
BRANCH  19  20
ATOM     20  C   UNL     1       6.650   4.595  14.541  0.00  0.00    +0.000 C 
BRANCH  20  21
ATOM     21  O   UNL     1       7.741   5.390  14.997  0.00  0.00    +0.000 OA
ATOM     22  H   UNL     1       8.527   4.812  14.947  0.00  0.00    +0.000 HD
ENDBRANCH  20  21
ENDBRANCH  19  20
ENDBRANCH  18  19
ENDBRANCH   1  18
TORSDOF 7
ENDMDL
MODEL 5
REMARK VINA RESULT:      -6.6      1.601      1.750
REMARK  Name = 
REMARK  7 active torsions:
REMARK  status: ('A' for Active; 'I' for Inactive)
REMARK    1  A    between atoms: N_5  and  C_6
REMARK    2  A    between atoms: C_6  and  O_7
REMARK    3  A    between atoms: C_6  and  C_11
REMARK    4  A    between atoms: O_7  and  C_8
REMARK    5  A    between atoms: C_8  and  C_9
REMARK    6  A    between atoms: C_9  and  O_10
REMARK    7  A    between atoms: N_13  and  O_14
REMARK                            x       y       z     vdW  Elec       q    Type
REMARK                         _______ _______ _______ _____ _____    ______ ____
ROOT
ATOM      1  C   UNL     1       4.434   4.573  17.831  0.00  0.00    +0.000 C 
ENDROOT
BRANCH   1   6
ATOM      2  N   UNL     1       7.996   5.372  13.670  0.00  0.00    +0.000 N 
ATOM      3  C   UNL     1       7.134   5.131  14.702  0.00  0.00    +0.000 A 
ATOM      4  C   UNL     1       6.261   3.946  14.658  0.00  0.00    +0.000 A 
ATOM      5  C   UNL     1       5.416   3.811  15.676  0.00  0.00    +0.000 A 
ATOM      6  N   UNL     1       5.396   4.711  16.723  0.00  0.00    +0.000 N 
ATOM      7  C   UNL     1       6.276   5.796  16.750  0.00  0.00    +0.000 A 
ATOM      8  O   UNL     1       6.316   6.566  17.712  0.00  0.00    +0.000 OA
ATOM      9  N   UNL     1       7.133   5.973  15.687  0.00  0.00    +0.000 NA
ATOM     10  H   UNL     1       8.396   4.575  13.187  0.00  0.00    +0.000 HD
ATOM     11  H   UNL     1       8.670   6.102  13.879  0.00  0.00    +0.000 HD
ENDBRANCH   1   6
BRANCH   1  12
ATOM     12  C   UNL     1       4.985   3.802  19.077  0.00  0.00    +0.000 C 
ATOM     13  O   UNL     1       5.645   4.330  19.974  0.00  0.00    +0.000 OA
ATOM     14  N   UNL     1       4.744   2.446  19.089  0.00  0.00    +0.000 N 
ATOM     15  H   UNL     1       4.488   1.914  18.263  0.00  0.00    +0.000 HD
BRANCH  14  16
ATOM     16  O   UNL     1       5.278   1.726  20.181  0.00  0.00    +0.000 OA
ATOM     17  H   UNL     1       5.921   2.362  20.567  0.00  0.00    +0.000 HD
ENDBRANCH  14  16
ENDBRANCH   1  12
BRANCH   1  18
ATOM     18  O   UNL     1       3.155   4.147  17.347  0.00  0.00    +0.000 OA
BRANCH  18  19
ATOM     19  C   UNL     1       2.062   4.381  18.236  0.00  0.00    +0.000 C 
BRANCH  19  20
ATOM     20  C   UNL     1       1.255   3.095  18.411  0.00  0.00    +0.000 C 
BRANCH  20  21
ATOM     21  O   UNL     1       1.921   2.000  17.790  0.00  0.00    +0.000 OA
ATOM     22  H   UNL     1       1.214   1.392  17.498  0.00  0.00    +0.000 HD
ENDBRANCH  20  21
ENDBRANCH  19  20
ENDBRANCH  18  19
ENDBRANCH   1  18
TORSDOF 7
ENDMDL
MODEL 6
REMARK VINA RESULT:      -6.6      1.655      1.902
REMARK  Name = 
REMARK  7 active torsions:
REMARK  status: ('A' for Active; 'I' for Inactive)
REMARK    1  A    between atoms: N_5  and  C_6
REMARK    2  A    between atoms: C_6  and  O_7
REMARK    3  A    between atoms: C_6  and  C_11
REMARK    4  A    between atoms: O_7  and  C_8
REMARK    5  A    between atoms: C_8  and  C_9
REMARK    6  A    between atoms: C_9  and  O_10
REMARK    7  A    between atoms: N_13  and  O_14
REMARK                            x       y       z     vdW  Elec       q    Type
REMARK                         _______ _______ _______ _____ _____    ______ ____
ROOT
ATOM      1  C   UNL     1       4.342   4.571  17.912  0.00  0.00    +0.000 C 
ENDROOT
BRANCH   1   6
ATOM      2  N   UNL     1       7.980   5.460  13.836  0.00  0.00    +0.000 N 
ATOM      3  C   UNL     1       7.092   5.194  14.839  0.00  0.00    +0.000 A 
ATOM      4  C   UNL     1       6.034   4.192  14.626  0.00  0.00    +0.000 A 
ATOM      5  C   UNL     1       5.180   4.029  15.633  0.00  0.00    +0.000 A 
ATOM      6  N   UNL     1       5.312   4.733  16.814  0.00  0.00    +0.000 N 
ATOM      7  C   UNL     1       6.360   5.639  16.993  0.00  0.00    +0.000 A 
ATOM      8  O   UNL     1       6.530   6.219  18.067  0.00  0.00    +0.000 OA
ATOM      9  N   UNL     1       7.234   5.848  15.949  0.00  0.00    +0.000 NA
ATOM     10  H   UNL     1       8.241   4.701  13.217  0.00  0.00    +0.000 HD
ATOM     11  H   UNL     1       8.767   6.024  14.142  0.00  0.00    +0.000 HD
ENDBRANCH   1   6
BRANCH   1  12
ATOM     12  C   UNL     1       4.293   3.132  18.527  0.00  0.00    +0.000 C 
ATOM     13  O   UNL     1       3.466   2.276  18.206  0.00  0.00    +0.000 OA
ATOM     14  N   UNL     1       5.208   2.883  19.526  0.00  0.00    +0.000 N 
ATOM     15  H   UNL     1       5.693   3.614  20.038  0.00  0.00    +0.000 HD
BRANCH  14  16
ATOM     16  O   UNL     1       5.144   1.606  20.128  0.00  0.00    +0.000 OA
ATOM     17  H   UNL     1       5.445   1.785  21.047  0.00  0.00    +0.000 HD
ENDBRANCH  14  16
ENDBRANCH   1  12
BRANCH   1  18
ATOM     18  O   UNL     1       3.078   5.149  17.567  0.00  0.00    +0.000 OA
BRANCH  18  19
ATOM     19  C   UNL     1       2.772   6.376  18.230  0.00  0.00    +0.000 C 
BRANCH  19  20
ATOM     20  C   UNL     1       2.795   6.165  19.743  0.00  0.00    +0.000 C 
BRANCH  20  21
ATOM     21  O   UNL     1       2.249   7.296  20.414  0.00  0.00    +0.000 OA
ATOM     22  H   UNL     1       1.654   6.934  21.100  0.00  0.00    +0.000 HD
ENDBRANCH  20  21
ENDBRANCH  19  20
ENDBRANCH  18  19
ENDBRANCH   1  18
TORSDOF 7
ENDMDL
MODEL 7
REMARK VINA RESULT:      -6.5      2.280      5.588
REMARK  Name = 
REMARK  7 active torsions:
REMARK  status: ('A' for Active; 'I' for Inactive)
REMARK    1  A    between atoms: N_5  and  C_6
REMARK    2  A    between atoms: C_6  and  O_7
REMARK    3  A    between atoms: C_6  and  C_11
REMARK    4  A    between atoms: O_7  and  C_8
REMARK    5  A    between atoms: C_8  and  C_9
REMARK    6  A    between atoms: C_9  and  O_10
REMARK    7  A    between atoms: N_13  and  O_14
REMARK                            x       y       z     vdW  Elec       q    Type
REMARK                         _______ _______ _______ _____ _____    ______ ____
ROOT
ATOM      1  C   UNL     1       5.255   4.142  17.692  0.00  0.00    +0.000 C 
ENDROOT
BRANCH   1   6
ATOM      2  N   UNL     1       0.509   3.285  20.409  0.00  0.00    +0.000 N 
ATOM      3  C   UNL     1       1.676   3.543  19.747  0.00  0.00    +0.000 A 
ATOM      4  C   UNL     1       1.683   4.516  18.641  0.00  0.00    +0.000 A 
ATOM      5  C   UNL     1       2.846   4.672  18.015  0.00  0.00    +0.000 A 
ATOM      6  N   UNL     1       3.978   3.988  18.412  0.00  0.00    +0.000 N 
ATOM      7  C   UNL     1       3.939   3.111  19.498  0.00  0.00    +0.000 A 
ATOM      8  O   UNL     1       4.958   2.549  19.906  0.00  0.00    +0.000 OA
ATOM      9  N   UNL     1       2.736   2.908  20.137  0.00  0.00    +0.000 NA
ATOM     10  H   UNL     1      -0.157   4.042  20.514  0.00  0.00    +0.000 HD
ATOM     11  H   UNL     1       0.647   2.745  21.258  0.00  0.00    +0.000 HD
ENDBRANCH   1   6
BRANCH   1  12
ATOM     12  C   UNL     1       6.179   5.279  18.245  0.00  0.00    +0.000 C 
ATOM     13  O   UNL     1       6.220   6.419  17.778  0.00  0.00    +0.000 OA
ATOM     14  N   UNL     1       7.022   4.911  19.271  0.00  0.00    +0.000 N 
ATOM     15  H   UNL     1       7.255   3.947  19.487  0.00  0.00    +0.000 HD
BRANCH  14  16
ATOM     16  O   UNL     1       7.899   5.911  19.748  0.00  0.00    +0.000 OA
ATOM     17  H   UNL     1       7.376   6.333  20.466  0.00  0.00    +0.000 HD
ENDBRANCH  14  16
ENDBRANCH   1  12
BRANCH   1  18
ATOM     18  O   UNL     1       5.047   4.137  16.275  0.00  0.00    +0.000 OA
BRANCH  18  19
ATOM     19  C   UNL     1       6.179   3.745  15.498  0.00  0.00    +0.000 C 
BRANCH  19  20
ATOM     20  C   UNL     1       6.480   4.814  14.449  0.00  0.00    +0.000 C 
BRANCH  20  21
ATOM     21  O   UNL     1       7.724   5.449  14.725  0.00  0.00    +0.000 OA
ATOM     22  H   UNL     1       7.552   6.409  14.660  0.00  0.00    +0.000 HD
ENDBRANCH  20  21
ENDBRANCH  19  20
ENDBRANCH  18  19
ENDBRANCH   1  18
TORSDOF 7
ENDMDL
MODEL 8
REMARK VINA RESULT:      -6.5      1.791      1.890
REMARK  Name = 
REMARK  7 active torsions:
REMARK  status: ('A' for Active; 'I' for Inactive)
REMARK    1  A    between atoms: N_5  and  C_6
REMARK    2  A    between atoms: C_6  and  O_7
REMARK    3  A    between atoms: C_6  and  C_11
REMARK    4  A    between atoms: O_7  and  C_8
REMARK    5  A    between atoms: C_8  and  C_9
REMARK    6  A    between atoms: C_9  and  O_10
REMARK    7  A    between atoms: N_13  and  O_14
REMARK                            x       y       z     vdW  Elec       q    Type
REMARK                         _______ _______ _______ _____ _____    ______ ____
ROOT
ATOM      1  C   UNL     1       3.634   4.296  19.063  0.00  0.00    +0.000 C 
ENDROOT
BRANCH   1   6
ATOM      2  N   UNL     1       7.426   7.688  16.882  0.00  0.00    +0.000 N 
ATOM      3  C   UNL     1       6.485   6.830  17.378  0.00  0.00    +0.000 A 
ATOM      4  C   UNL     1       5.171   6.734  16.719  0.00  0.00    +0.000 A 
ATOM      5  C   UNL     1       4.295   5.914  17.293  0.00  0.00    +0.000 A 
ATOM      6  N   UNL     1       4.622   5.176  18.413  0.00  0.00    +0.000 N 
ATOM      7  C   UNL     1       5.897   5.260  18.978  0.00  0.00    +0.000 A 
ATOM      8  O   UNL     1       6.223   4.554  19.934  0.00  0.00    +0.000 OA
ATOM      9  N   UNL     1       6.807   6.130  18.420  0.00  0.00    +0.000 NA
ATOM     10  H   UNL     1       7.447   7.845  15.881  0.00  0.00    +0.000 HD
ATOM     11  H   UNL     1       8.344   7.548  17.291  0.00  0.00    +0.000 HD
ENDBRANCH   1   6
BRANCH   1  12
ATOM     12  C   UNL     1       3.558   2.851  18.463  0.00  0.00    +0.000 C 
ATOM     13  O   UNL     1       2.751   2.509  17.596  0.00  0.00    +0.000 OA
ATOM     14  N   UNL     1       4.423   1.933  19.018  0.00  0.00    +0.000 N 
ATOM     15  H   UNL     1       4.880   2.064  19.916  0.00  0.00    +0.000 HD
BRANCH  14  16
ATOM     16  O   UNL     1       4.333   0.612  18.525  0.00  0.00    +0.000 OA
ATOM     17  H   UNL     1       4.033   0.747  17.598  0.00  0.00    +0.000 HD
ENDBRANCH  14  16
ENDBRANCH   1  12
BRANCH   1  18
ATOM     18  O   UNL     1       2.382   4.970  19.233  0.00  0.00    +0.000 OA
BRANCH  18  19
ATOM     19  C   UNL     1       1.925   5.068  20.583  0.00  0.00    +0.000 C 
BRANCH  19  20
ATOM     20  C   UNL     1       1.338   3.730  21.027  0.00  0.00    +0.000 C 
BRANCH  20  21
ATOM     21  O   UNL     1       2.098   3.182  22.100  0.00  0.00    +0.000 OA
ATOM     22  H   UNL     1       2.235   2.242  21.874  0.00  0.00    +0.000 HD
ENDBRANCH  20  21
ENDBRANCH  19  20
ENDBRANCH  18  19
ENDBRANCH   1  18
TORSDOF 7
ENDMDL
MODEL 9
REMARK VINA RESULT:      -6.4      2.674      4.477
REMARK  Name = 
REMARK  7 active torsions:
REMARK  status: ('A' for Active; 'I' for Inactive)
REMARK    1  A    between atoms: N_5  and  C_6
REMARK    2  A    between atoms: C_6  and  O_7
REMARK    3  A    between atoms: C_6  and  C_11
REMARK    4  A    between atoms: O_7  and  C_8
REMARK    5  A    between atoms: C_8  and  C_9
REMARK    6  A    between atoms: C_9  and  O_10
REMARK    7  A    between atoms: N_13  and  O_14
REMARK                            x       y       z     vdW  Elec       q    Type
REMARK                         _______ _______ _______ _____ _____    ______ ____
ROOT
ATOM      1  C   UNL     1       4.379   4.351  18.328  0.00  0.00    +0.000 C 
ENDROOT
BRANCH   1   6
ATOM      2  N   UNL     1       1.493   9.000  19.162  0.00  0.00    +0.000 N 
ATOM      3  C   UNL     1       2.244   7.878  18.952  0.00  0.00    +0.000 A 
ATOM      4  C   UNL     1       3.094   7.788  17.752  0.00  0.00    +0.000 A 
ATOM      5  C   UNL     1       3.754   6.645  17.595  0.00  0.00    +0.000 A 
ATOM      6  N   UNL     1       3.670   5.628  18.526  0.00  0.00    +0.000 N 
ATOM      7  C   UNL     1       2.890   5.773  19.676  0.00  0.00    +0.000 A 
ATOM      8  O   UNL     1       2.863   4.902  20.547  0.00  0.00    +0.000 OA
ATOM      9  N   UNL     1       2.170   6.936  19.839  0.00  0.00    +0.000 NA
ATOM     10  H   UNL     1       1.862   9.888  18.844  0.00  0.00    +0.000 HD
ATOM     11  H   UNL     1       1.089   9.037  20.093  0.00  0.00    +0.000 HD
ENDBRANCH   1   6
BRANCH   1  12
ATOM     12  C   UNL     1       5.939   4.456  18.396  0.00  0.00    +0.000 C 
ATOM     13  O   UNL     1       6.556   4.910  19.363  0.00  0.00    +0.000 OA
ATOM     14  N   UNL     1       6.610   4.065  17.258  0.00  0.00    +0.000 N 
ATOM     15  H   UNL     1       6.168   3.979  16.348  0.00  0.00    +0.000 HD
BRANCH  14  16
ATOM     16  O   UNL     1       8.016   4.202  17.283  0.00  0.00    +0.000 OA
ATOM     17  H   UNL     1       8.152   4.929  17.931  0.00  0.00    +0.000 HD
ENDBRANCH  14  16
ENDBRANCH   1  12
BRANCH   1  18
ATOM     18  O   UNL     1       3.848   3.641  17.203  0.00  0.00    +0.000 OA
BRANCH  18  19
ATOM     19  C   UNL     1       2.880   2.639  17.521  0.00  0.00    +0.000 C 
BRANCH  19  20
ATOM     20  C   UNL     1       3.339   1.848  18.745  0.00  0.00    +0.000 C 
BRANCH  20  21
ATOM     21  O   UNL     1       4.042   0.675  18.346  0.00  0.00    +0.000 OA
ATOM     22  H   UNL     1       4.918   0.733  18.776  0.00  0.00    +0.000 HD
ENDBRANCH  20  21
ENDBRANCH  19  20
ENDBRANCH  18  19
ENDBRANCH   1  18
TORSDOF 7
ENDMDL
