MODEL 1
REMARK VINA RESULT:      -7.5      0.000      0.000
REMARK  Name = 
REMARK  7 active torsions:
REMARK  status: ('A' for Active; 'I' for Inactive)
REMARK    1  A    between atoms: C_1  and  O_2
REMARK    2  A    between atoms: O_2  and  C_3
REMARK    3  A    between atoms: C_4  and  C_5
REMARK    4  A    between atoms: C_11  and  C_12
REMARK    5  A    between atoms: N_17  and  C_18
REMARK    6  A    between atoms: C_24  and  C_25
REMARK    7  A    between atoms: N_30  and  C_31
REMARK                            x       y       z     vdW  Elec       q    Type
REMARK                         _______ _______ _______ _____ _____    ______ ____
ROOT
ATOM      1  C   UNL     1      -3.612  11.305  17.822  0.00  0.00    +0.000 A 
ATOM      2  C   UNL     1      -4.752  12.024  18.271  0.00  0.00    +0.000 A 
ATOM      3  C   UNL     1      -6.004  11.862  17.437  0.00  0.00    +0.000 C 
ATOM      4  C   UNL     1      -4.717  12.741  19.520  0.00  0.00    +0.000 A 
ATOM      5  C   UNL     1      -3.517  12.631  20.322  0.00  0.00    +0.000 A 
ATOM      6  C   UNL     1      -3.676  13.059  21.752  0.00  0.00    +0.000 A 
ATOM      7  O   UNL     1      -3.066  12.479  22.645  0.00  0.00    +0.000 OA
ATOM      8  C   UNL     1      -4.744  14.003  22.172  0.00  0.00    +0.000 A 
ATOM      9  C   UNL     1      -4.720  14.653  23.445  0.00  0.00    +0.000 A 
ATOM     10  C   UNL     1      -3.597  14.623  24.433  0.00  0.00    +0.000 C 
ATOM     11  C   UNL     1      -5.863  15.366  23.879  0.00  0.00    +0.000 A 
ATOM     12  C   UNL     1      -6.987  15.420  23.073  0.00  0.00    +0.000 A 
ATOM     13  C   UNL     1      -6.983  14.803  21.828  0.00  0.00    +0.000 A 
ATOM     14  C   UNL     1      -5.840  14.121  21.327  0.00  0.00    +0.000 A 
ATOM     15  N   UNL     1      -5.811  13.528  20.030  0.00  0.00    +0.000 N 
ATOM     16  C   UNL     1      -6.949  13.873  19.168  0.00  0.00    +0.000 C 
ATOM     17  C   UNL     1      -2.334  11.953  19.849  0.00  0.00    +0.000 A 
ATOM     18  C   UNL     1      -2.470  11.195  18.642  0.00  0.00    +0.000 A 
ATOM     19  C   UNL     1      -1.388  10.181  18.313  0.00  0.00    +0.000 A 
ATOM     20  O   UNL     1      -1.474   9.377  17.392  0.00  0.00    +0.000 OA
ATOM     21  C   UNL     1      -0.151  10.151  19.150  0.00  0.00    +0.000 A 
ATOM     22  C   UNL     1       0.971   9.432  18.720  0.00  0.00    +0.000 A 
ATOM     23  C   UNL     1       1.773   8.689  19.819  0.00  0.00    +0.000 C 
ATOM     24  C   UNL     1       1.820  10.152  17.893  0.00  0.00    +0.000 A 
ATOM     25  C   UNL     1       2.053  11.466  18.282  0.00  0.00    +0.000 A 
ATOM     26  C   UNL     1       1.254  12.053  19.286  0.00  0.00    +0.000 A 
ATOM     27  C   UNL     1       0.074  11.411  19.683  0.00  0.00    +0.000 A 
ATOM     28  N   UNL     1      -0.992  12.091  20.328  0.00  0.00    +0.000 N 
ATOM     29  C   UNL     1      -0.631  12.370  21.717  0.00  0.00    +0.000 C 
ENDROOT
BRANCH   1  31
ATOM     30  C   UNL     1      -3.274  11.228  15.430  0.00  0.00    +0.000 C 
ATOM     31  O   UNL     1      -3.623  10.576  16.653  0.00  0.00    +0.000 OA
ENDBRANCH   1  31
TORSDOF 1
ENDMDL
MODEL 2
REMARK VINA RESULT:      -6.9      1.917      6.900
REMARK  Name = 
REMARK  7 active torsions:
REMARK  status: ('A' for Active; 'I' for Inactive)
REMARK    1  A    between atoms: C_1  and  O_2
REMARK    2  A    between atoms: O_2  and  C_3
REMARK    3  A    between atoms: C_4  and  C_5
REMARK    4  A    between atoms: C_11  and  C_12
REMARK    5  A    between atoms: N_17  and  C_18
REMARK    6  A    between atoms: C_24  and  C_25
REMARK    7  A    between atoms: N_30  and  C_31
REMARK                            x       y       z     vdW  Elec       q    Type
REMARK                         _______ _______ _______ _____ _____    ______ ____
ROOT
ATOM      1  C   UNL     1      -5.766  12.782  18.773  0.00  0.00    +0.000 A 
ATOM      2  C   UNL     1      -4.836  12.050  17.988  0.00  0.00    +0.000 A 
ATOM      3  C   UNL     1      -5.176  11.914  16.520  0.00  0.00    +0.000 C 
ATOM      4  C   UNL     1      -3.594  11.599  18.560  0.00  0.00    +0.000 A 
ATOM      5  C   UNL     1      -3.304  11.988  19.924  0.00  0.00    +0.000 A 
ATOM      6  C   UNL     1      -1.866  11.833  20.328  0.00  0.00    +0.000 A 
ATOM      7  O   UNL     1      -1.349  12.637  21.098  0.00  0.00    +0.000 OA
ATOM      8  C   UNL     1      -0.956  10.884  19.637  0.00  0.00    +0.000 A 
ATOM      9  C   UNL     1       0.303  10.501  20.196  0.00  0.00    +0.000 A 
ATOM     10  C   UNL     1       0.803  10.841  21.564  0.00  0.00    +0.000 C 
ATOM     11  C   UNL     1       1.219   9.771  19.401  0.00  0.00    +0.000 A 
ATOM     12  C   UNL     1       0.890   9.444  18.097  0.00  0.00    +0.000 A 
ATOM     13  C   UNL     1      -0.349   9.803  17.579  0.00  0.00    +0.000 A 
ATOM     14  C   UNL     1      -1.322  10.489  18.357  0.00  0.00    +0.000 A 
ATOM     15  N   UNL     1      -2.614  10.817  17.849  0.00  0.00    +0.000 N 
ATOM     16  C   UNL     1      -2.948  10.194  16.561  0.00  0.00    +0.000 C 
ATOM     17  C   UNL     1      -4.265  12.679  20.748  0.00  0.00    +0.000 A 
ATOM     18  C   UNL     1      -5.439  13.168  20.090  0.00  0.00    +0.000 A 
ATOM     19  C   UNL     1      -6.279  14.205  20.813  0.00  0.00    +0.000 A 
ATOM     20  O   UNL     1      -7.215  14.801  20.290  0.00  0.00    +0.000 OA
ATOM     21  C   UNL     1      -5.959  14.527  22.237  0.00  0.00    +0.000 A 
ATOM     22  C   UNL     1      -6.866  15.261  23.012  0.00  0.00    +0.000 A 
ATOM     23  C   UNL     1      -6.251  16.283  24.002  0.00  0.00    +0.000 C 
ATOM     24  C   UNL     1      -7.828  14.485  23.640  0.00  0.00    +0.000 A 
ATOM     25  C   UNL     1      -7.361  13.305  24.206  0.00  0.00    +0.000 A 
ATOM     26  C   UNL     1      -6.063  12.846  23.901  0.00  0.00    +0.000 A 
ATOM     27  C   UNL     1      -5.365  13.426  22.834  0.00  0.00    +0.000 A 
ATOM     28  N   UNL     1      -4.288  12.778  22.177  0.00  0.00    +0.000 N 
ATOM     29  C   UNL     1      -3.097  12.815  23.025  0.00  0.00    +0.000 C 
ENDROOT
BRANCH   1  31
ATOM     30  C   UNL     1      -6.891  14.255  17.222  0.00  0.00    +0.000 C 
ATOM     31  O   UNL     1      -6.945  13.263  18.249  0.00  0.00    +0.000 OA
ENDBRANCH   1  31
TORSDOF 1
ENDMDL
MODEL 3
REMARK VINA RESULT:      -6.9      3.955      7.499
REMARK  Name = 
REMARK  7 active torsions:
REMARK  status: ('A' for Active; 'I' for Inactive)
REMARK    1  A    between atoms: C_1  and  O_2
REMARK    2  A    between atoms: O_2  and  C_3
REMARK    3  A    between atoms: C_4  and  C_5
REMARK    4  A    between atoms: C_11  and  C_12
REMARK    5  A    between atoms: N_17  and  C_18
REMARK    6  A    between atoms: C_24  and  C_25
REMARK    7  A    between atoms: N_30  and  C_31
REMARK                            x       y       z     vdW  Elec       q    Type
REMARK                         _______ _______ _______ _____ _____    ______ ____
ROOT
ATOM      1  C   UNL     1      -1.104  13.537  21.982  0.00  0.00    +0.000 A 
ATOM      2  C   UNL     1      -1.001  12.166  22.338  0.00  0.00    +0.000 A 
ATOM      3  C   UNL     1      -1.903  11.707  23.463  0.00  0.00    +0.000 C 
ATOM      4  C   UNL     1      -0.180  11.271  21.564  0.00  0.00    +0.000 A 
ATOM      5  C   UNL     1       0.460  11.804  20.380  0.00  0.00    +0.000 A 
ATOM      6  C   UNL     1       0.966  10.767  19.419  0.00  0.00    +0.000 A 
ATOM      7  O   UNL     1       0.923  10.969  18.210  0.00  0.00    +0.000 OA
ATOM      8  C   UNL     1       1.291   9.386  19.859  0.00  0.00    +0.000 A 
ATOM      9  C   UNL     1       2.054   8.493  19.043  0.00  0.00    +0.000 A 
ATOM     10  C   UNL     1       2.752   8.840  17.766  0.00  0.00    +0.000 C 
ATOM     11  C   UNL     1       2.148   7.130  19.411  0.00  0.00    +0.000 A 
ATOM     12  C   UNL     1       1.498   6.677  20.546  0.00  0.00    +0.000 A 
ATOM     13  C   UNL     1       0.782   7.564  21.340  0.00  0.00    +0.000 A 
ATOM     14  C   UNL     1       0.705   8.953  21.041  0.00  0.00    +0.000 A 
ATOM     15  N   UNL     1       0.013   9.878  21.878  0.00  0.00    +0.000 N 
ATOM     16  C   UNL     1      -0.406   9.340  23.178  0.00  0.00    +0.000 C 
ATOM     17  C   UNL     1       0.410  13.206  20.043  0.00  0.00    +0.000 A 
ATOM     18  C   UNL     1      -0.491  14.017  20.806  0.00  0.00    +0.000 A 
ATOM     19  C   UNL     1      -0.854  15.385  20.258  0.00  0.00    +0.000 A 
ATOM     20  O   UNL     1      -1.724  16.099  20.746  0.00  0.00    +0.000 OA
ATOM     21  C   UNL     1      -0.122  15.900  19.062  0.00  0.00    +0.000 A 
ATOM     22  C   UNL     1      -0.231  17.248  18.697  0.00  0.00    +0.000 A 
ATOM     23  C   UNL     1      -0.282  17.546  17.177  0.00  0.00    +0.000 C 
ATOM     24  C   UNL     1       0.680  18.079  19.331  0.00  0.00    +0.000 A 
ATOM     25  C   UNL     1       1.973  17.578  19.426  0.00  0.00    +0.000 A 
ATOM     26  C   UNL     1       2.224  16.221  19.135  0.00  0.00    +0.000 A 
ATOM     27  C   UNL     1       1.143  15.336  19.020  0.00  0.00    +0.000 A 
ATOM     28  N   UNL     1       1.282  13.931  19.169  0.00  0.00    +0.000 N 
ATOM     29  C   UNL     1       1.919  13.369  17.979  0.00  0.00    +0.000 C 
ENDROOT
BRANCH   1  31
ATOM     30  C   UNL     1      -1.419  14.993  23.886  0.00  0.00    +0.000 C 
ATOM     31  O   UNL     1      -1.911  14.413  22.676  0.00  0.00    +0.000 OA
ENDBRANCH   1  31
TORSDOF 1
ENDMDL
MODEL 4
REMARK VINA RESULT:      -6.8     10.968     14.465
REMARK  Name = 
REMARK  7 active torsions:
REMARK  status: ('A' for Active; 'I' for Inactive)
REMARK    1  A    between atoms: C_1  and  O_2
REMARK    2  A    between atoms: O_2  and  C_3
REMARK    3  A    between atoms: C_4  and  C_5
REMARK    4  A    between atoms: C_11  and  C_12
REMARK    5  A    between atoms: N_17  and  C_18
REMARK    6  A    between atoms: C_24  and  C_25
REMARK    7  A    between atoms: N_30  and  C_31
REMARK                            x       y       z     vdW  Elec       q    Type
REMARK                         _______ _______ _______ _____ _____    ______ ____
ROOT
ATOM      1  C   UNL     1       9.960  16.172  23.680  0.00  0.00    +0.000 A 
ATOM      2  C   UNL     1      10.595  16.159  22.410  0.00  0.00    +0.000 A 
ATOM      3  C   UNL     1      11.588  17.272  22.156  0.00  0.00    +0.000 C 
ATOM      4  C   UNL     1      10.383  15.062  21.501  0.00  0.00    +0.000 A 
ATOM      5  C   UNL     1       9.574  13.955  21.963  0.00  0.00    +0.000 A 
ATOM      6  C   UNL     1       9.707  12.698  21.153  0.00  0.00    +0.000 A 
ATOM      7  O   UNL     1       9.652  11.600  21.698  0.00  0.00    +0.000 OA
ATOM      8  C   UNL     1      10.157  12.724  19.737  0.00  0.00    +0.000 A 
ATOM      9  C   UNL     1       9.994  11.598  18.871  0.00  0.00    +0.000 A 
ATOM     10  C   UNL     1       9.236  10.346  19.182  0.00  0.00    +0.000 C 
ATOM     11  C   UNL     1      10.633  11.598  17.608  0.00  0.00    +0.000 A 
ATOM     12  C   UNL     1      11.409  12.681  17.230  0.00  0.00    +0.000 A 
ATOM     13  C   UNL     1      11.535  13.777  18.074  0.00  0.00    +0.000 A 
ATOM     14  C   UNL     1      10.869  13.845  19.329  0.00  0.00    +0.000 A 
ATOM     15  N   UNL     1      10.953  14.987  20.179  0.00  0.00    +0.000 N 
ATOM     16  C   UNL     1      11.577  16.167  19.567  0.00  0.00    +0.000 C 
ATOM     17  C   UNL     1       8.877  13.986  23.226  0.00  0.00    +0.000 A 
ATOM     18  C   UNL     1       9.201  15.064  24.110  0.00  0.00    +0.000 A 
ATOM     19  C   UNL     1       8.791  14.938  25.567  0.00  0.00    +0.000 A 
ATOM     20  O   UNL     1       9.144  15.725  26.439  0.00  0.00    +0.000 OA
ATOM     21  C   UNL     1       7.913  13.799  25.972  0.00  0.00    +0.000 A 
ATOM     22  C   UNL     1       7.296  13.800  27.229  0.00  0.00    +0.000 A 
ATOM     23  C   UNL     1       7.202  12.430  27.948  0.00  0.00    +0.000 C 
ATOM     24  C   UNL     1       6.075  14.456  27.257  0.00  0.00    +0.000 A 
ATOM     25  C   UNL     1       5.243  14.206  26.173  0.00  0.00    +0.000 A 
ATOM     26  C   UNL     1       5.754  13.553  25.032  0.00  0.00    +0.000 A 
ATOM     27  C   UNL     1       7.140  13.408  24.890  0.00  0.00    +0.000 A 
ATOM     28  N   UNL     1       7.765  13.182  23.636  0.00  0.00    +0.000 N 
ATOM     29  C   UNL     1       7.539  11.800  23.213  0.00  0.00    +0.000 C 
ENDROOT
BRANCH   1  31
ATOM     30  C   UNL     1       9.402  18.385  24.478  0.00  0.00    +0.000 C 
ATOM     31  O   UNL     1      10.171  17.185  24.590  0.00  0.00    +0.000 OA
ENDBRANCH   1  31
TORSDOF 1
ENDMDL
MODEL 5
REMARK VINA RESULT:      -6.7      2.008      6.790
REMARK  Name = 
REMARK  7 active torsions:
REMARK  status: ('A' for Active; 'I' for Inactive)
REMARK    1  A    between atoms: C_1  and  O_2
REMARK    2  A    between atoms: O_2  and  C_3
REMARK    3  A    between atoms: C_4  and  C_5
REMARK    4  A    between atoms: C_11  and  C_12
REMARK    5  A    between atoms: N_17  and  C_18
REMARK    6  A    between atoms: C_24  and  C_25
REMARK    7  A    between atoms: N_30  and  C_31
REMARK                            x       y       z     vdW  Elec       q    Type
REMARK                         _______ _______ _______ _____ _____    ______ ____
ROOT
ATOM      1  C   UNL     1      -4.992  11.748  19.118  0.00  0.00    +0.000 A 
ATOM      2  C   UNL     1      -3.771  11.423  18.468  0.00  0.00    +0.000 A 
ATOM      3  C   UNL     1      -3.899  10.674  17.159  0.00  0.00    +0.000 C 
ATOM      4  C   UNL     1      -2.518  11.912  18.983  0.00  0.00    +0.000 A 
ATOM      5  C   UNL     1      -2.564  12.800  20.125  0.00  0.00    +0.000 A 
ATOM      6  C   UNL     1      -1.301  13.575  20.370  0.00  0.00    +0.000 A 
ATOM      7  O   UNL     1      -1.351  14.723  20.799  0.00  0.00    +0.000 OA
ATOM      8  C   UNL     1       0.017  13.098  19.876  0.00  0.00    +0.000 A 
ATOM      9  C   UNL     1       1.247  13.646  20.356  0.00  0.00    +0.000 A 
ATOM     10  C   UNL     1       1.403  14.609  21.490  0.00  0.00    +0.000 C 
ATOM     11  C   UNL     1       2.455  13.313  19.698  0.00  0.00    +0.000 A 
ATOM     12  C   UNL     1       2.431  12.472  18.600  0.00  0.00    +0.000 A 
ATOM     13  C   UNL     1       1.230  11.929  18.163  0.00  0.00    +0.000 A 
ATOM     14  C   UNL     1      -0.002  12.191  18.824  0.00  0.00    +0.000 A 
ATOM     15  N   UNL     1      -1.232  11.598  18.412  0.00  0.00    +0.000 N 
ATOM     16  C   UNL     1      -1.099  10.528  17.416  0.00  0.00    +0.000 C 
ATOM     17  C   UNL     1      -3.791  13.088  20.827  0.00  0.00    +0.000 A 
ATOM     18  C   UNL     1      -5.003  12.638  20.211  0.00  0.00    +0.000 A 
ATOM     19  C   UNL     1      -6.312  13.230  20.702  0.00  0.00    +0.000 A 
ATOM     20  O   UNL     1      -7.390  13.033  20.152  0.00  0.00    +0.000 OA
ATOM     21  C   UNL     1      -6.300  14.100  21.916  0.00  0.00    +0.000 A 
ATOM     22  C   UNL     1      -7.502  14.436  22.552  0.00  0.00    +0.000 A 
ATOM     23  C   UNL     1      -7.602  15.877  23.114  0.00  0.00    +0.000 C 
ATOM     24  C   UNL     1      -7.917  13.509  23.497  0.00  0.00    +0.000 A 
ATOM     25  C   UNL     1      -6.913  13.010  24.318  0.00  0.00    +0.000 A 
ATOM     26  C   UNL     1      -5.560  13.247  23.998  0.00  0.00    +0.000 A 
ATOM     27  C   UNL     1      -5.235  13.741  22.727  0.00  0.00    +0.000 A 
ATOM     28  N   UNL     1      -3.944  13.602  22.156  0.00  0.00    +0.000 N 
ATOM     29  C   UNL     1      -3.016  14.533  22.797  0.00  0.00    +0.000 C 
ENDROOT
BRANCH   1  31
ATOM     30  C   UNL     1      -6.711  10.051  19.027  0.00  0.00    +0.000 C 
ATOM     31  O   UNL     1      -6.211  11.330  18.631  0.00  0.00    +0.000 OA
ENDBRANCH   1  31
TORSDOF 1
ENDMDL
MODEL 6
REMARK VINA RESULT:      -6.7      2.346      6.814
REMARK  Name = 
REMARK  7 active torsions:
REMARK  status: ('A' for Active; 'I' for Inactive)
REMARK    1  A    between atoms: C_1  and  O_2
REMARK    2  A    between atoms: O_2  and  C_3
REMARK    3  A    between atoms: C_4  and  C_5
REMARK    4  A    between atoms: C_11  and  C_12
REMARK    5  A    between atoms: N_17  and  C_18
REMARK    6  A    between atoms: C_24  and  C_25
REMARK    7  A    between atoms: N_30  and  C_31
REMARK                            x       y       z     vdW  Elec       q    Type
REMARK                         _______ _______ _______ _____ _____    ______ ____
ROOT
ATOM      1  C   UNL     1      -5.411  14.837  21.695  0.00  0.00    +0.000 A 
ATOM      2  C   UNL     1      -5.664  13.847  20.709  0.00  0.00    +0.000 A 
ATOM      3  C   UNL     1      -7.083  13.785  20.186  0.00  0.00    +0.000 C 
ATOM      4  C   UNL     1      -4.584  13.064  20.167  0.00  0.00    +0.000 A 
ATOM      5  C   UNL     1      -3.241  13.381  20.605  0.00  0.00    +0.000 A 
ATOM      6  C   UNL     1      -2.149  12.821  19.740  0.00  0.00    +0.000 A 
ATOM      7  O   UNL     1      -1.113  13.454  19.560  0.00  0.00    +0.000 OA
ATOM      8  C   UNL     1      -2.368  11.631  18.877  0.00  0.00    +0.000 A 
ATOM      9  C   UNL     1      -1.279  10.908  18.297  0.00  0.00    +0.000 A 
ATOM     10  C   UNL     1       0.174  11.117  18.585  0.00  0.00    +0.000 C 
ATOM     11  C   UNL     1      -1.547   9.925  17.315  0.00  0.00    +0.000 A 
ATOM     12  C   UNL     1      -2.853   9.680  16.925  0.00  0.00    +0.000 A 
ATOM     13  C   UNL     1      -3.900  10.374  17.518  0.00  0.00    +0.000 A 
ATOM     14  C   UNL     1      -3.683  11.333  18.547  0.00  0.00    +0.000 A 
ATOM     15  N   UNL     1      -4.756  12.014  19.195  0.00  0.00    +0.000 N 
ATOM     16  C   UNL     1      -6.093  11.488  18.893  0.00  0.00    +0.000 C 
ATOM     17  C   UNL     1      -2.979  14.342  21.649  0.00  0.00    +0.000 A 
ATOM     18  C   UNL     1      -4.088  15.139  22.079  0.00  0.00    +0.000 A 
ATOM     19  C   UNL     1      -3.792  16.393  22.883  0.00  0.00    +0.000 A 
ATOM     20  O   UNL     1      -4.645  17.225  23.174  0.00  0.00    +0.000 OA
ATOM     21  C   UNL     1      -2.394  16.638  23.349  0.00  0.00    +0.000 A 
ATOM     22  C   UNL     1      -2.136  17.623  24.311  0.00  0.00    +0.000 A 
ATOM     23  C   UNL     1      -0.834  18.441  24.122  0.00  0.00    +0.000 C 
ATOM     24  C   UNL     1      -2.253  17.177  25.619  0.00  0.00    +0.000 A 
ATOM     25  C   UNL     1      -1.706  15.924  25.869  0.00  0.00    +0.000 A 
ATOM     26  C   UNL     1      -1.322  15.098  24.793  0.00  0.00    +0.000 A 
ATOM     27  C   UNL     1      -1.740  15.425  23.496  0.00  0.00    +0.000 A 
ATOM     28  N   UNL     1      -1.795  14.474  22.444  0.00  0.00    +0.000 N 
ATOM     29  C   UNL     1      -0.442  14.180  21.973  0.00  0.00    +0.000 C 
ENDROOT
BRANCH   1  31
ATOM     30  C   UNL     1      -7.193  15.140  23.300  0.00  0.00    +0.000 C 
ATOM     31  O   UNL     1      -6.414  15.631  22.207  0.00  0.00    +0.000 OA
ENDBRANCH   1  31
TORSDOF 1
ENDMDL
MODEL 7
REMARK VINA RESULT:      -6.6      2.763      6.093
REMARK  Name = 
REMARK  7 active torsions:
REMARK  status: ('A' for Active; 'I' for Inactive)
REMARK    1  A    between atoms: C_1  and  O_2
REMARK    2  A    between atoms: O_2  and  C_3
REMARK    3  A    between atoms: C_4  and  C_5
REMARK    4  A    between atoms: C_11  and  C_12
REMARK    5  A    between atoms: N_17  and  C_18
REMARK    6  A    between atoms: C_24  and  C_25
REMARK    7  A    between atoms: N_30  and  C_31
REMARK                            x       y       z     vdW  Elec       q    Type
REMARK                         _______ _______ _______ _____ _____    ______ ____
ROOT
ATOM      1  C   UNL     1      -0.587  13.976  20.608  0.00  0.00    +0.000 A 
ATOM      2  C   UNL     1      -1.299  13.133  19.713  0.00  0.00    +0.000 A 
ATOM      3  C   UNL     1      -0.470  12.461  18.640  0.00  0.00    +0.000 C 
ATOM      4  C   UNL     1      -2.695  12.854  19.930  0.00  0.00    +0.000 A 
ATOM      5  C   UNL     1      -3.309  13.395  21.123  0.00  0.00    +0.000 A 
ATOM      6  C   UNL     1      -4.620  12.765  21.496  0.00  0.00    +0.000 A 
ATOM      7  O   UNL     1      -4.923  12.614  22.675  0.00  0.00    +0.000 OA
ATOM      8  C   UNL     1      -5.472  12.079  20.490  0.00  0.00    +0.000 A 
ATOM      9  C   UNL     1      -6.839  11.754  20.754  0.00  0.00    +0.000 A 
ATOM     10  C   UNL     1      -7.635  12.177  21.948  0.00  0.00    +0.000 C 
ATOM     11  C   UNL     1      -7.536  10.913  19.853  0.00  0.00    +0.000 A 
ATOM     12  C   UNL     1      -6.887  10.412  18.737  0.00  0.00    +0.000 A 
ATOM     13  C   UNL     1      -5.566  10.760  18.484  0.00  0.00    +0.000 A 
ATOM     14  C   UNL     1      -4.842  11.644  19.331  0.00  0.00    +0.000 A 
ATOM     15  N   UNL     1      -3.502  12.045  19.051  0.00  0.00    +0.000 N 
ATOM     16  C   UNL     1      -3.011  11.671  17.719  0.00  0.00    +0.000 C 
ATOM     17  C   UNL     1      -2.612  14.299  22.006  0.00  0.00    +0.000 A 
ATOM     18  C   UNL     1      -1.208  14.463  21.776  0.00  0.00    +0.000 A 
ATOM     19  C   UNL     1      -0.376  15.090  22.880  0.00  0.00    +0.000 A 
ATOM     20  O   UNL     1       0.849  15.144  22.855  0.00  0.00    +0.000 OA
ATOM     21  C   UNL     1      -1.073  15.676  24.064  0.00  0.00    +0.000 A 
ATOM     22  C   UNL     1      -0.373  16.496  24.958  0.00  0.00    +0.000 A 
ATOM     23  C   UNL     1      -0.731  16.339  26.458  0.00  0.00    +0.000 C 
ATOM     24  C   UNL     1      -0.349  17.834  24.595  0.00  0.00    +0.000 A 
ATOM     25  C   UNL     1      -1.552  18.341  24.120  0.00  0.00    +0.000 A 
ATOM     26  C   UNL     1      -2.606  17.462  23.795  0.00  0.00    +0.000 A 
ATOM     27  C   UNL     1      -2.343  16.089  23.692  0.00  0.00    +0.000 A 
ATOM     28  N   UNL     1      -3.177  15.199  22.966  0.00  0.00    +0.000 N 
ATOM     29  C   UNL     1      -4.404  14.946  23.719  0.00  0.00    +0.000 C 
ENDROOT
BRANCH   1  31
ATOM     30  C   UNL     1       1.165  15.261  19.547  0.00  0.00    +0.000 C 
ATOM     31  O   UNL     1       0.758  14.233  20.453  0.00  0.00    +0.000 OA
ENDBRANCH   1  31
TORSDOF 1
ENDMDL
MODEL 8
REMARK VINA RESULT:      -6.5     11.176     11.639
REMARK  Name = 
REMARK  7 active torsions:
REMARK  status: ('A' for Active; 'I' for Inactive)
REMARK    1  A    between atoms: C_1  and  O_2
REMARK    2  A    between atoms: O_2  and  C_3
REMARK    3  A    between atoms: C_4  and  C_5
REMARK    4  A    between atoms: C_11  and  C_12
REMARK    5  A    between atoms: N_17  and  C_18
REMARK    6  A    between atoms: C_24  and  C_25
REMARK    7  A    between atoms: N_30  and  C_31
REMARK                            x       y       z     vdW  Elec       q    Type
REMARK                         _______ _______ _______ _____ _____    ______ ____
ROOT
ATOM      1  C   UNL     1       8.052  16.101  19.907  0.00  0.00    +0.000 A 
ATOM      2  C   UNL     1       7.518  16.921  20.936  0.00  0.00    +0.000 A 
ATOM      3  C   UNL     1       7.045  18.293  20.508  0.00  0.00    +0.000 C 
ATOM      4  C   UNL     1       7.329  16.395  22.263  0.00  0.00    +0.000 A 
ATOM      5  C   UNL     1       7.626  14.995  22.478  0.00  0.00    +0.000 A 
ATOM      6  C   UNL     1       7.052  14.417  23.740  0.00  0.00    +0.000 A 
ATOM      7  O   UNL     1       6.654  13.257  23.766  0.00  0.00    +0.000 OA
ATOM      8  C   UNL     1       6.710  15.272  24.906  0.00  0.00    +0.000 A 
ATOM      9  C   UNL     1       6.462  14.719  26.201  0.00  0.00    +0.000 A 
ATOM     10  C   UNL     1       6.663  13.293  26.607  0.00  0.00    +0.000 C 
ATOM     11  C   UNL     1       5.930  15.549  27.217  0.00  0.00    +0.000 A 
ATOM     12  C   UNL     1       5.650  16.877  26.944  0.00  0.00    +0.000 A 
ATOM     13  C   UNL     1       5.921  17.403  25.687  0.00  0.00    +0.000 A 
ATOM     14  C   UNL     1       6.506  16.622  24.651  0.00  0.00    +0.000 A 
ATOM     15  N   UNL     1       6.833  17.167  23.375  0.00  0.00    +0.000 N 
ATOM     16  C   UNL     1       6.742  18.630  23.286  0.00  0.00    +0.000 C 
ATOM     17  C   UNL     1       8.224  14.170  21.456  0.00  0.00    +0.000 A 
ATOM     18  C   UNL     1       8.304  14.734  20.143  0.00  0.00    +0.000 A 
ATOM     19  C   UNL     1       8.569  13.793  18.980  0.00  0.00    +0.000 A 
ATOM     20  O   UNL     1       8.510  14.139  17.805  0.00  0.00    +0.000 OA
ATOM     21  C   UNL     1       8.919  12.371  19.270  0.00  0.00    +0.000 A 
ATOM     22  C   UNL     1       9.432  11.552  18.255  0.00  0.00    +0.000 A 
ATOM     23  C   UNL     1       8.958  10.077  18.257  0.00  0.00    +0.000 C 
ATOM     24  C   UNL     1      10.810  11.626  18.115  0.00  0.00    +0.000 A 
ATOM     25  C   UNL     1      11.527  11.641  19.305  0.00  0.00    +0.000 A 
ATOM     26  C   UNL     1      10.854  11.841  20.528  0.00  0.00    +0.000 A 
ATOM     27  C   UNL     1       9.527  12.291  20.513  0.00  0.00    +0.000 A 
ATOM     28  N   UNL     1       8.919  12.929  21.625  0.00  0.00    +0.000 N 
ATOM     29  C   UNL     1       8.611  11.939  22.656  0.00  0.00    +0.000 C 
ENDROOT
BRANCH   1  31
ATOM     30  C   UNL     1       9.385  17.303  18.288  0.00  0.00    +0.000 C 
ATOM     31  O   UNL     1       8.210  16.559  18.617  0.00  0.00    +0.000 OA
ENDBRANCH   1  31
TORSDOF 1
ENDMDL
MODEL 9
REMARK VINA RESULT:      -6.3      8.376     12.397
REMARK  Name = 
REMARK  7 active torsions:
REMARK  status: ('A' for Active; 'I' for Inactive)
REMARK    1  A    between atoms: C_1  and  O_2
REMARK    2  A    between atoms: O_2  and  C_3
REMARK    3  A    between atoms: C_4  and  C_5
REMARK    4  A    between atoms: C_11  and  C_12
REMARK    5  A    between atoms: N_17  and  C_18
REMARK    6  A    between atoms: C_24  and  C_25
REMARK    7  A    between atoms: N_30  and  C_31
REMARK                            x       y       z     vdW  Elec       q    Type
REMARK                         _______ _______ _______ _____ _____    ______ ____
ROOT
ATOM      1  C   UNL     1       5.305  15.119  22.050  0.00  0.00    +0.000 A 
ATOM      2  C   UNL     1       5.836  15.244  20.739  0.00  0.00    +0.000 A 
ATOM      3  C   UNL     1       5.152  16.256  19.845  0.00  0.00    +0.000 C 
ATOM      4  C   UNL     1       7.034  14.537  20.366  0.00  0.00    +0.000 A 
ATOM      5  C   UNL     1       7.706  13.770  21.393  0.00  0.00    +0.000 A 
ATOM      6  C   UNL     1       9.121  13.387  21.066  0.00  0.00    +0.000 A 
ATOM      7  O   UNL     1       9.972  13.344  21.949  0.00  0.00    +0.000 OA
ATOM      8  C   UNL     1       9.602  13.299  19.663  0.00  0.00    +0.000 A 
ATOM      9  C   UNL     1      10.829  12.646  19.325  0.00  0.00    +0.000 A 
ATOM     10  C   UNL     1      11.690  11.847  20.252  0.00  0.00    +0.000 C 
ATOM     11  C   UNL     1      11.345  12.780  18.014  0.00  0.00    +0.000 A 
ATOM     12  C   UNL     1      10.664  13.543  17.081  0.00  0.00    +0.000 A 
ATOM     13  C   UNL     1       9.460  14.148  17.420  0.00  0.00    +0.000 A 
ATOM     14  C   UNL     1       8.875  13.998  18.708  0.00  0.00    +0.000 A 
ATOM     15  N   UNL     1       7.616  14.575  19.048  0.00  0.00    +0.000 N 
ATOM     16  C   UNL     1       6.865  15.130  17.915  0.00  0.00    +0.000 C 
ATOM     17  C   UNL     1       7.145  13.589  22.709  0.00  0.00    +0.000 A 
ATOM     18  C   UNL     1       6.001  14.387  23.034  0.00  0.00    +0.000 A 
ATOM     19  C   UNL     1       5.613  14.510  24.497  0.00  0.00    +0.000 A 
ATOM     20  O   UNL     1       4.750  15.280  24.904  0.00  0.00    +0.000 OA
ATOM     21  C   UNL     1       6.311  13.654  25.503  0.00  0.00    +0.000 A 
ATOM     22  C   UNL     1       5.801  13.538  26.802  0.00  0.00    +0.000 A 
ATOM     23  C   UNL     1       6.845  13.475  27.946  0.00  0.00    +0.000 C 
ATOM     24  C   UNL     1       4.850  12.539  26.947  0.00  0.00    +0.000 A 
ATOM     25  C   UNL     1       5.142  11.345  26.300  0.00  0.00    +0.000 A 
ATOM     26  C   UNL     1       6.193  11.293  25.361  0.00  0.00    +0.000 A 
ATOM     27  C   UNL     1       6.749  12.491  24.891  0.00  0.00    +0.000 A 
ATOM     28  N   UNL     1       7.468  12.577  23.670  0.00  0.00    +0.000 N 
ATOM     29  C   UNL     1       8.794  11.982  23.834  0.00  0.00    +0.000 C 
ENDROOT
BRANCH   1  31
ATOM     30  C   UNL     1       2.895  15.289  22.125  0.00  0.00    +0.000 C 
ATOM     31  O   UNL     1       4.184  15.811  22.454  0.00  0.00    +0.000 OA
ENDBRANCH   1  31
TORSDOF 1
ENDMDL
