MODEL 1
REMARK VINA RESULT:      -6.2      0.000      0.000
REMARK  Name = 
REMARK  7 active torsions:
REMARK  status: ('A' for Active; 'I' for Inactive)
REMARK    1  A    between atoms: C_1  and  O_2
REMARK    2  A    between atoms: O_2  and  C_3
REMARK    3  A    between atoms: C_3  and  C_5
REMARK    4  A    between atoms: N_7  and  C_8
REMARK    5  A    between atoms: C_8  and  C_9
REMARK    6  A    between atoms: C_10  and  C_11
REMARK    7  A    between atoms: C_10  and  C_12
REMARK                            x       y       z     vdW  Elec       q    Type
REMARK                         _______ _______ _______ _____ _____    ______ ____
ROOT
ATOM      1  C   UNL     1       6.287   5.402  17.754  0.00  0.00    +0.000 A 
ATOM      2  C   UNL     1       5.033   5.927  18.006  0.00  0.00    +0.000 A 
ATOM      3  N   UNL     1       4.560   5.178  19.041  0.00  0.00    +0.000 N 
ATOM      4  N   UNL     1       5.456   4.250  19.424  0.00  0.00    +0.000 NA
ATOM      5  N   UNL     1       6.519   4.377  18.641  0.00  0.00    +0.000 NA
ENDROOT
BRANCH   1   6
ATOM      6  C   UNL     1       7.229   5.822  16.730  0.00  0.00    +0.000 C 
ATOM      7  O   UNL     1       7.634   6.974  16.620  0.00  0.00    +0.000 OA
BRANCH   6   9
ATOM      8  C   UNL     1       6.755   4.593  14.782  0.00  0.00    +0.000 C 
ATOM      9  O   UNL     1       7.604   4.795  15.911  0.00  0.00    +0.000 OA
ENDBRANCH   6   9
ENDBRANCH   1   6
BRANCH   3  10
ATOM     10  C   UNL     1       3.243   5.230  19.661  0.00  0.00    +0.000 C 
BRANCH  10  11
ATOM     11  C   UNL     1       2.272   4.260  19.041  0.00  0.00    +0.000 C 
ATOM     12  C   UNL     1       1.531   3.336  19.685  0.00  0.00    +0.000 C 
ATOM     13  C   UNL     1       1.530   3.119  21.175  0.00  0.00    +0.000 C 
ATOM     14  C   UNL     1       0.583   2.440  18.931  0.00  0.00    +0.000 C 
ENDBRANCH  10  11
ENDBRANCH   3  10
TORSDOF 4
ENDMDL
MODEL 2
REMARK VINA RESULT:      -6.1      1.012      1.589
REMARK  Name = 
REMARK  7 active torsions:
REMARK  status: ('A' for Active; 'I' for Inactive)
REMARK    1  A    between atoms: C_1  and  O_2
REMARK    2  A    between atoms: O_2  and  C_3
REMARK    3  A    between atoms: C_3  and  C_5
REMARK    4  A    between atoms: N_7  and  C_8
REMARK    5  A    between atoms: C_8  and  C_9
REMARK    6  A    between atoms: C_10  and  C_11
REMARK    7  A    between atoms: C_10  and  C_12
REMARK                            x       y       z     vdW  Elec       q    Type
REMARK                         _______ _______ _______ _____ _____    ______ ____
ROOT
ATOM      1  C   UNL     1       6.067   5.442  17.972  0.00  0.00    +0.000 A 
ATOM      2  C   UNL     1       4.782   5.752  17.567  0.00  0.00    +0.000 A 
ATOM      3  N   UNL     1       4.030   5.587  18.690  0.00  0.00    +0.000 N 
ATOM      4  N   UNL     1       4.787   5.209  19.736  0.00  0.00    +0.000 NA
ATOM      5  N   UNL     1       6.039   5.116  19.308  0.00  0.00    +0.000 NA
ENDROOT
BRANCH   1   6
ATOM      6  C   UNL     1       7.271   5.437  17.158  0.00  0.00    +0.000 C 
ATOM      7  O   UNL     1       7.976   4.446  17.004  0.00  0.00    +0.000 OA
BRANCH   6   9
ATOM      8  C   UNL     1       7.755   7.709  17.526  0.00  0.00    +0.000 C 
ATOM      9  O   UNL     1       7.524   6.654  16.592  0.00  0.00    +0.000 OA
ENDBRANCH   6   9
ENDBRANCH   1   6
BRANCH   3  10
ATOM     10  C   UNL     1       2.583   5.689  18.828  0.00  0.00    +0.000 C 
BRANCH  10  11
ATOM     11  C   UNL     1       1.875   4.410  18.467  0.00  0.00    +0.000 C 
ATOM     12  C   UNL     1       1.329   3.520  19.320  0.00  0.00    +0.000 C 
ATOM     13  C   UNL     1       1.316   3.661  20.819  0.00  0.00    +0.000 C 
ATOM     14  C   UNL     1       0.634   2.285  18.812  0.00  0.00    +0.000 C 
ENDBRANCH  10  11
ENDBRANCH   3  10
TORSDOF 4
ENDMDL
MODEL 3
REMARK VINA RESULT:      -6.1      1.446      2.136
REMARK  Name = 
REMARK  7 active torsions:
REMARK  status: ('A' for Active; 'I' for Inactive)
REMARK    1  A    between atoms: C_1  and  O_2
REMARK    2  A    between atoms: O_2  and  C_3
REMARK    3  A    between atoms: C_3  and  C_5
REMARK    4  A    between atoms: N_7  and  C_8
REMARK    5  A    between atoms: C_8  and  C_9
REMARK    6  A    between atoms: C_10  and  C_11
REMARK    7  A    between atoms: C_10  and  C_12
REMARK                            x       y       z     vdW  Elec       q    Type
REMARK                         _______ _______ _______ _____ _____    ______ ____
ROOT
ATOM      1  C   UNL     1       6.300   5.104  17.865  0.00  0.00    +0.000 A 
ATOM      2  C   UNL     1       5.171   4.520  17.324  0.00  0.00    +0.000 A 
ATOM      3  N   UNL     1       4.685   3.739  18.329  0.00  0.00    +0.000 N 
ATOM      4  N   UNL     1       5.448   3.831  19.433  0.00  0.00    +0.000 NA
ATOM      5  N   UNL     1       6.443   4.665  19.161  0.00  0.00    +0.000 NA
ENDROOT
BRANCH   1   6
ATOM      6  C   UNL     1       7.217   6.023  17.211  0.00  0.00    +0.000 C 
ATOM      7  O   UNL     1       7.435   6.012  16.004  0.00  0.00    +0.000 OA
BRANCH   6   9
ATOM      8  C   UNL     1       7.818   8.252  17.658  0.00  0.00    +0.000 C 
ATOM      9  O   UNL     1       7.801   6.891  18.089  0.00  0.00    +0.000 OA
ENDBRANCH   6   9
ENDBRANCH   1   6
BRANCH   3  10
ATOM     10  C   UNL     1       3.556   2.819  18.288  0.00  0.00    +0.000 C 
BRANCH  10  11
ATOM     11  C   UNL     1       3.044   2.469  19.660  0.00  0.00    +0.000 C 
ATOM     12  C   UNL     1       2.029   3.063  20.320  0.00  0.00    +0.000 C 
ATOM     13  C   UNL     1       1.199   4.197  19.780  0.00  0.00    +0.000 C 
ATOM     14  C   UNL     1       1.614   2.593  21.689  0.00  0.00    +0.000 C 
ENDBRANCH  10  11
ENDBRANCH   3  10
TORSDOF 4
ENDMDL
MODEL 4
REMARK VINA RESULT:      -6.0      1.609      2.013
REMARK  Name = 
REMARK  7 active torsions:
REMARK  status: ('A' for Active; 'I' for Inactive)
REMARK    1  A    between atoms: C_1  and  O_2
REMARK    2  A    between atoms: O_2  and  C_3
REMARK    3  A    between atoms: C_3  and  C_5
REMARK    4  A    between atoms: N_7  and  C_8
REMARK    5  A    between atoms: C_8  and  C_9
REMARK    6  A    between atoms: C_10  and  C_11
REMARK    7  A    between atoms: C_10  and  C_12
REMARK                            x       y       z     vdW  Elec       q    Type
REMARK                         _______ _______ _______ _____ _____    ______ ____
ROOT
ATOM      1  C   UNL     1       6.656   4.577  16.108  0.00  0.00    +0.000 A 
ATOM      2  C   UNL     1       5.447   4.417  16.758  0.00  0.00    +0.000 A 
ATOM      3  N   UNL     1       5.782   4.361  18.077  0.00  0.00    +0.000 N 
ATOM      4  N   UNL     1       7.111   4.488  18.250  0.00  0.00    +0.000 NA
ATOM      5  N   UNL     1       7.658   4.620  17.049  0.00  0.00    +0.000 NA
ENDROOT
BRANCH   1   6
ATOM      6  C   UNL     1       6.880   4.677  14.675  0.00  0.00    +0.000 C 
ATOM      7  O   UNL     1       7.733   5.403  14.176  0.00  0.00    +0.000 OA
BRANCH   6   9
ATOM      8  C   UNL     1       6.437   3.652  12.607  0.00  0.00    +0.000 C 
ATOM      9  O   UNL     1       6.036   3.878  13.957  0.00  0.00    +0.000 OA
ENDBRANCH   6   9
ENDBRANCH   1   6
BRANCH   3  10
ATOM     10  C   UNL     1       4.912   4.108  19.218  0.00  0.00    +0.000 C 
BRANCH  10  11
ATOM     11  C   UNL     1       3.609   3.467  18.822  0.00  0.00    +0.000 C 
ATOM     12  C   UNL     1       2.408   3.652  19.407  0.00  0.00    +0.000 C 
ATOM     13  C   UNL     1       2.150   4.566  20.575  0.00  0.00    +0.000 C 
ATOM     14  C   UNL     1       1.178   2.952  18.889  0.00  0.00    +0.000 C 
ENDBRANCH  10  11
ENDBRANCH   3  10
TORSDOF 4
ENDMDL
MODEL 5
REMARK VINA RESULT:      -6.0      0.681      1.136
REMARK  Name = 
REMARK  7 active torsions:
REMARK  status: ('A' for Active; 'I' for Inactive)
REMARK    1  A    between atoms: C_1  and  O_2
REMARK    2  A    between atoms: O_2  and  C_3
REMARK    3  A    between atoms: C_3  and  C_5
REMARK    4  A    between atoms: N_7  and  C_8
REMARK    5  A    between atoms: C_8  and  C_9
REMARK    6  A    between atoms: C_10  and  C_11
REMARK    7  A    between atoms: C_10  and  C_12
REMARK                            x       y       z     vdW  Elec       q    Type
REMARK                         _______ _______ _______ _____ _____    ______ ____
ROOT
ATOM      1  C   UNL     1       6.138   5.669  17.897  0.00  0.00    +0.000 A 
ATOM      2  C   UNL     1       4.809   6.039  17.804  0.00  0.00    +0.000 A 
ATOM      3  N   UNL     1       4.256   5.593  18.966  0.00  0.00    +0.000 N 
ATOM      4  N   UNL     1       5.174   4.992  19.745  0.00  0.00    +0.000 NA
ATOM      5  N   UNL     1       6.332   5.031  19.100  0.00  0.00    +0.000 NA
ENDROOT
BRANCH   1   6
ATOM      6  C   UNL     1       7.185   5.887  16.913  0.00  0.00    +0.000 C 
ATOM      7  O   UNL     1       7.700   6.981  16.709  0.00  0.00    +0.000 OA
BRANCH   6   9
ATOM      8  C   UNL     1       6.838   4.550  15.011  0.00  0.00    +0.000 C 
ATOM      9  O   UNL     1       7.523   4.743  16.247  0.00  0.00    +0.000 OA
ENDBRANCH   6   9
ENDBRANCH   1   6
BRANCH   3  10
ATOM     10  C   UNL     1       2.857   5.627  19.368  0.00  0.00    +0.000 C 
BRANCH  10  11
ATOM     11  C   UNL     1       2.553   4.673  20.492  0.00  0.00    +0.000 C 
ATOM     12  C   UNL     1       1.748   3.592  20.439  0.00  0.00    +0.000 C 
ATOM     13  C   UNL     1       1.009   3.129  19.212  0.00  0.00    +0.000 C 
ATOM     14  C   UNL     1       1.550   2.713  21.646  0.00  0.00    +0.000 C 
ENDBRANCH  10  11
ENDBRANCH   3  10
TORSDOF 4
ENDMDL
MODEL 6
REMARK VINA RESULT:      -6.0      1.624      2.388
REMARK  Name = 
REMARK  7 active torsions:
REMARK  status: ('A' for Active; 'I' for Inactive)
REMARK    1  A    between atoms: C_1  and  O_2
REMARK    2  A    between atoms: O_2  and  C_3
REMARK    3  A    between atoms: C_3  and  C_5
REMARK    4  A    between atoms: N_7  and  C_8
REMARK    5  A    between atoms: C_8  and  C_9
REMARK    6  A    between atoms: C_10  and  C_11
REMARK    7  A    between atoms: C_10  and  C_12
REMARK                            x       y       z     vdW  Elec       q    Type
REMARK                         _______ _______ _______ _____ _____    ______ ____
ROOT
ATOM      1  C   UNL     1       5.804   5.138  17.377  0.00  0.00    +0.000 A 
ATOM      2  C   UNL     1       4.704   4.364  17.694  0.00  0.00    +0.000 A 
ATOM      3  N   UNL     1       3.656   5.231  17.628  0.00  0.00    +0.000 N 
ATOM      4  N   UNL     1       4.063   6.466  17.283  0.00  0.00    +0.000 NA
ATOM      5  N   UNL     1       5.380   6.422  17.127  0.00  0.00    +0.000 NA
ENDROOT
BRANCH   1   6
ATOM      6  C   UNL     1       7.193   4.714  17.316  0.00  0.00    +0.000 C 
ATOM      7  O   UNL     1       7.795   4.531  16.263  0.00  0.00    +0.000 OA
BRANCH   6   9
ATOM      8  C   UNL     1       7.908   5.744  19.304  0.00  0.00    +0.000 C 
ATOM      9  O   UNL     1       7.742   4.542  18.554  0.00  0.00    +0.000 OA
ENDBRANCH   6   9
ENDBRANCH   1   6
BRANCH   3  10
ATOM     10  C   UNL     1       2.259   4.982  17.959  0.00  0.00    +0.000 C 
BRANCH  10  11
ATOM     11  C   UNL     1       2.075   4.495  19.371  0.00  0.00    +0.000 C 
ATOM     12  C   UNL     1       1.433   3.375  19.762  0.00  0.00    +0.000 C 
ATOM     13  C   UNL     1       0.788   2.383  18.833  0.00  0.00    +0.000 C 
ATOM     14  C   UNL     1       1.342   3.004  21.220  0.00  0.00    +0.000 C 
ENDBRANCH  10  11
ENDBRANCH   3  10
TORSDOF 4
ENDMDL
MODEL 7
REMARK VINA RESULT:      -6.0      1.238      1.647
REMARK  Name = 
REMARK  7 active torsions:
REMARK  status: ('A' for Active; 'I' for Inactive)
REMARK    1  A    between atoms: C_1  and  O_2
REMARK    2  A    between atoms: O_2  and  C_3
REMARK    3  A    between atoms: C_3  and  C_5
REMARK    4  A    between atoms: N_7  and  C_8
REMARK    5  A    between atoms: C_8  and  C_9
REMARK    6  A    between atoms: C_10  and  C_11
REMARK    7  A    between atoms: C_10  and  C_12
REMARK                            x       y       z     vdW  Elec       q    Type
REMARK                         _______ _______ _______ _____ _____    ______ ____
ROOT
ATOM      1  C   UNL     1       6.394   4.733  16.819  0.00  0.00    +0.000 A 
ATOM      2  C   UNL     1       5.104   5.043  17.205  0.00  0.00    +0.000 A 
ATOM      3  N   UNL     1       5.141   4.994  18.566  0.00  0.00    +0.000 N 
ATOM      4  N   UNL     1       6.373   4.685  19.011  0.00  0.00    +0.000 NA
ATOM      5  N   UNL     1       7.151   4.522  17.948  0.00  0.00    +0.000 NA
ENDROOT
BRANCH   1   6
ATOM      6  C   UNL     1       6.908   4.628  15.464  0.00  0.00    +0.000 C 
ATOM      7  O   UNL     1       7.744   5.396  14.998  0.00  0.00    +0.000 OA
BRANCH   6   9
ATOM      8  C   UNL     1       6.198   3.814  13.375  0.00  0.00    +0.000 C 
ATOM      9  O   UNL     1       6.356   3.586  14.775  0.00  0.00    +0.000 OA
ENDBRANCH   6   9
ENDBRANCH   1   6
BRANCH   3  10
ATOM     10  C   UNL     1       4.037   5.146  19.503  0.00  0.00    +0.000 C 
BRANCH  10  11
ATOM     11  C   UNL     1       3.180   3.912  19.595  0.00  0.00    +0.000 C 
ATOM     12  C   UNL     1       2.084   3.633  18.859  0.00  0.00    +0.000 C 
ATOM     13  C   UNL     1       1.523   4.519  17.780  0.00  0.00    +0.000 C 
ATOM     14  C   UNL     1       1.331   2.342  19.051  0.00  0.00    +0.000 C 
ENDBRANCH  10  11
ENDBRANCH   3  10
TORSDOF 4
ENDMDL
MODEL 8
REMARK VINA RESULT:      -6.0      1.744      2.442
REMARK  Name = 
REMARK  7 active torsions:
REMARK  status: ('A' for Active; 'I' for Inactive)
REMARK    1  A    between atoms: C_1  and  O_2
REMARK    2  A    between atoms: O_2  and  C_3
REMARK    3  A    between atoms: C_3  and  C_5
REMARK    4  A    between atoms: N_7  and  C_8
REMARK    5  A    between atoms: C_8  and  C_9
REMARK    6  A    between atoms: C_10  and  C_11
REMARK    7  A    between atoms: C_10  and  C_12
REMARK                            x       y       z     vdW  Elec       q    Type
REMARK                         _______ _______ _______ _____ _____    ______ ____
ROOT
ATOM      1  C   UNL     1       5.447   4.882  17.460  0.00  0.00    +0.000 A 
ATOM      2  C   UNL     1       4.458   3.916  17.476  0.00  0.00    +0.000 A 
ATOM      3  N   UNL     1       3.300   4.627  17.568  0.00  0.00    +0.000 N 
ATOM      4  N   UNL     1       3.538   5.951  17.598  0.00  0.00    +0.000 NA
ATOM      5  N   UNL     1       4.853   6.120  17.533  0.00  0.00    +0.000 NA
ENDROOT
BRANCH   1   6
ATOM      6  C   UNL     1       6.883   4.672  17.389  0.00  0.00    +0.000 C 
ATOM      7  O   UNL     1       7.506   4.626  16.333  0.00  0.00    +0.000 OA
BRANCH   6   9
ATOM      8  C   UNL     1       7.882   5.750  19.224  0.00  0.00    +0.000 C 
ATOM      9  O   UNL     1       7.453   4.530  18.622  0.00  0.00    +0.000 OA
ENDBRANCH   6   9
ENDBRANCH   1   6
BRANCH   3  10
ATOM     10  C   UNL     1       1.942   4.120  17.716  0.00  0.00    +0.000 C 
BRANCH  10  11
ATOM     11  C   UNL     1       1.770   3.274  18.949  0.00  0.00    +0.000 C 
ATOM     12  C   UNL     1       1.604   3.713  20.213  0.00  0.00    +0.000 C 
ATOM     13  C   UNL     1       1.544   5.160  20.621  0.00  0.00    +0.000 C 
ATOM     14  C   UNL     1       1.427   2.743  21.353  0.00  0.00    +0.000 C 
ENDBRANCH  10  11
ENDBRANCH   3  10
TORSDOF 4
ENDMDL
MODEL 9
REMARK VINA RESULT:      -5.9      3.099      5.873
REMARK  Name = 
REMARK  7 active torsions:
REMARK  status: ('A' for Active; 'I' for Inactive)
REMARK    1  A    between atoms: C_1  and  O_2
REMARK    2  A    between atoms: O_2  and  C_3
REMARK    3  A    between atoms: C_3  and  C_5
REMARK    4  A    between atoms: N_7  and  C_8
REMARK    5  A    between atoms: C_8  and  C_9
REMARK    6  A    between atoms: C_10  and  C_11
REMARK    7  A    between atoms: C_10  and  C_12
REMARK                            x       y       z     vdW  Elec       q    Type
REMARK                         _______ _______ _______ _____ _____    ______ ____
ROOT
ATOM      1  C   UNL     1       6.264   4.837  17.212  0.00  0.00    +0.000 A 
ATOM      2  C   UNL     1       5.400   4.518  16.180  0.00  0.00    +0.000 A 
ATOM      3  N   UNL     1       6.117   4.781  15.052  0.00  0.00    +0.000 N 
ATOM      4  N   UNL     1       7.352   5.226  15.349  0.00  0.00    +0.000 NA
ATOM      5  N   UNL     1       7.454   5.265  16.671  0.00  0.00    +0.000 NA
ENDROOT
BRANCH   1   6
ATOM      6  C   UNL     1       6.000   4.758  18.639  0.00  0.00    +0.000 C 
ATOM      7  O   UNL     1       6.853   4.970  19.494  0.00  0.00    +0.000 OA
BRANCH   6   9
ATOM      8  C   UNL     1       4.537   3.131  19.499  0.00  0.00    +0.000 C 
ATOM      9  O   UNL     1       4.705   4.421  18.913  0.00  0.00    +0.000 OA
ENDBRANCH   6   9
ENDBRANCH   1   6
BRANCH   3  10
ATOM     10  C   UNL     1       5.671   4.716  13.667  0.00  0.00    +0.000 C 
BRANCH  10  11
ATOM     11  C   UNL     1       6.164   3.484  12.956  0.00  0.00    +0.000 C 
ATOM     12  C   UNL     1       5.553   2.835  11.945  0.00  0.00    +0.000 C 
ATOM     13  C   UNL     1       4.246   3.249  11.322  0.00  0.00    +0.000 C 
ATOM     14  C   UNL     1       6.177   1.616  11.316  0.00  0.00    +0.000 C 
ENDBRANCH  10  11
ENDBRANCH   3  10
TORSDOF 4
ENDMDL
