MODEL 1
REMARK VINA RESULT:      -8.1      0.000      0.000
REMARK  Name = 
REMARK  9 active torsions:
REMARK  status: ('A' for Active; 'I' for Inactive)
REMARK    1  A    between atoms: C_1  and  O_2
REMARK    2  A    between atoms: O_2  and  C_3
REMARK    3  A    between atoms: C_11  and  C_13
REMARK    4  A    between atoms: C_13  and  C_14
REMARK    5  A    between atoms: C_13  and  C_15
REMARK    6  A    between atoms: N_20  and  C_21
REMARK    7  A    between atoms: N_20  and  C_22
REMARK    8  A    between atoms: C_26  and  O_27
REMARK    9  A    between atoms: O_27  and  C_28
REMARK                            x       y       z     vdW  Elec       q    Type
REMARK                         _______ _______ _______ _____ _____    ______ ____
ROOT
ATOM      1  C   UNL     1       6.008   6.536  16.900  0.00  0.00    +0.000 A 
ATOM      2  C   UNL     1       5.057   6.792  17.882  0.00  0.00    +0.000 A 
ATOM      3  C   UNL     1       4.005   5.898  18.166  0.00  0.00    +0.000 A 
ATOM      4  C   UNL     1       2.866   6.233  18.922  0.00  0.00    +0.000 A 
ATOM      5  N   UNL     1       2.548   7.553  19.231  0.00  0.00    +0.000 N 
ATOM      6  C   UNL     1       2.763   8.655  18.273  0.00  0.00    +0.000 C 
ATOM      7  C   UNL     1       1.504   9.482  18.005  0.00  0.00    +0.000 C 
ATOM      8  N   UNL     1       0.835   9.869  19.246  0.00  0.00    +0.000 N 
ATOM      9  C   UNL     1       0.653  11.220  19.514  0.00  0.00    +0.000 C 
ATOM     10  O   UNL     1       1.056  12.086  18.732  0.00  0.00    +0.000 OA
ATOM     11  C   UNL     1       0.513   8.718  20.104  0.00  0.00    +0.000 C 
ATOM     12  C   UNL     1       1.763   7.870  20.430  0.00  0.00    +0.000 C 
ATOM     13  N   UNL     1       2.016   5.270  19.316  0.00  0.00    +0.000 NA
ATOM     14  C   UNL     1       2.202   4.003  18.889  0.00  0.00    +0.000 A 
ATOM     15  N   UNL     1       1.353   3.022  19.347  0.00  0.00    +0.000 N 
ATOM     16  C   UNL     1       0.349   3.308  20.353  0.00  0.00    +0.000 C 
ATOM     17  C   UNL     1       1.488   1.648  18.905  0.00  0.00    +0.000 C 
ATOM     18  N   UNL     1       3.181   3.672  18.031  0.00  0.00    +0.000 NA
ATOM     19  C   UNL     1       4.076   4.602  17.670  0.00  0.00    +0.000 A 
ATOM     20  C   UNL     1       5.116   4.301  16.779  0.00  0.00    +0.000 A 
ATOM     21  C   UNL     1       6.077   5.251  16.372  0.00  0.00    +0.000 A 
ENDROOT
BRANCH   9  22
ATOM     22  C   UNL     1      -0.114  11.610  20.774  0.00  0.00    +0.000 C 
ATOM     23  C   UNL     1       0.460  12.890  21.386  0.00  0.00    +0.000 C 
ATOM     24  C   UNL     1      -1.593  11.807  20.448  0.00  0.00    +0.000 C 
ENDBRANCH   9  22
BRANCH   1  26
ATOM     25  C   UNL     1       7.685   8.141  17.403  0.00  0.00    +0.000 C 
ATOM     26  O   UNL     1       6.823   7.531  16.439  0.00  0.00    +0.000 OA
ENDBRANCH   1  26
BRANCH  21  27
ATOM     27  O   UNL     1       6.973   4.795  15.438  0.00  0.00    +0.000 OA
BRANCH  27  28
ATOM     28  C   UNL     1       6.662   4.953  14.050  0.00  0.00    +0.000 C 
ATOM     29  C   UNL     1       7.905   5.082  13.174  0.00  0.00    +0.000 C 
ATOM     30  C   UNL     1       7.511   4.498  11.829  0.00  0.00    +0.000 C 
ATOM     31  C   UNL     1       6.482   3.420  12.132  0.00  0.00    +0.000 C 
ATOM     32  C   UNL     1       5.980   3.673  13.550  0.00  0.00    +0.000 C 
ENDBRANCH  27  28
ENDBRANCH  21  27
TORSDOF 4
ENDMDL
MODEL 2
REMARK VINA RESULT:      -6.8      4.514      8.054
REMARK  Name = 
REMARK  9 active torsions:
REMARK  status: ('A' for Active; 'I' for Inactive)
REMARK    1  A    between atoms: C_1  and  O_2
REMARK    2  A    between atoms: O_2  and  C_3
REMARK    3  A    between atoms: C_11  and  C_13
REMARK    4  A    between atoms: C_13  and  C_14
REMARK    5  A    between atoms: C_13  and  C_15
REMARK    6  A    between atoms: N_20  and  C_21
REMARK    7  A    between atoms: N_20  and  C_22
REMARK    8  A    between atoms: C_26  and  O_27
REMARK    9  A    between atoms: O_27  and  C_28
REMARK                            x       y       z     vdW  Elec       q    Type
REMARK                         _______ _______ _______ _____ _____    ______ ____
ROOT
ATOM      1  C   UNL     1       0.727  10.285  20.607  0.00  0.00    +0.000 A 
ATOM      2  C   UNL     1      -0.520  10.888  20.734  0.00  0.00    +0.000 A 
ATOM      3  C   UNL     1      -1.354  11.139  19.627  0.00  0.00    +0.000 A 
ATOM      4  C   UNL     1      -2.468  11.999  19.655  0.00  0.00    +0.000 A 
ATOM      5  N   UNL     1      -2.689  12.885  20.706  0.00  0.00    +0.000 N 
ATOM      6  C   UNL     1      -1.582  13.599  21.374  0.00  0.00    +0.000 C 
ATOM      7  C   UNL     1      -1.764  15.118  21.395  0.00  0.00    +0.000 C 
ATOM      8  N   UNL     1      -3.101  15.498  21.848  0.00  0.00    +0.000 N 
ATOM      9  C   UNL     1      -3.221  16.307  22.970  0.00  0.00    +0.000 C 
ATOM     10  O   UNL     1      -2.226  16.693  23.590  0.00  0.00    +0.000 OA
ATOM     11  C   UNL     1      -4.171  14.871  21.057  0.00  0.00    +0.000 C 
ATOM     12  C   UNL     1      -4.048  13.330  21.034  0.00  0.00    +0.000 C 
ATOM     13  N   UNL     1      -3.324  12.022  18.620  0.00  0.00    +0.000 NA
ATOM     14  C   UNL     1      -3.048  11.302  17.512  0.00  0.00    +0.000 A 
ATOM     15  N   UNL     1      -3.963  11.296  16.484  0.00  0.00    +0.000 N 
ATOM     16  C   UNL     1      -5.249  11.951  16.621  0.00  0.00    +0.000 C 
ATOM     17  C   UNL     1      -3.710  10.562  15.261  0.00  0.00    +0.000 C 
ATOM     18  N   UNL     1      -1.911  10.599  17.379  0.00  0.00    +0.000 NA
ATOM     19  C   UNL     1      -1.070  10.513  18.419  0.00  0.00    +0.000 A 
ATOM     20  C   UNL     1       0.128   9.789  18.326  0.00  0.00    +0.000 A 
ATOM     21  C   UNL     1       1.041   9.675  19.397  0.00  0.00    +0.000 A 
ENDROOT
BRANCH   9  22
ATOM     22  C   UNL     1      -4.618  16.761  23.388  0.00  0.00    +0.000 C 
ATOM     23  C   UNL     1      -4.765  16.737  24.912  0.00  0.00    +0.000 C 
ATOM     24  C   UNL     1      -4.892  18.168  22.861  0.00  0.00    +0.000 C 
ENDBRANCH   9  22
BRANCH   1  26
ATOM     25  C   UNL     1       1.528   9.289  22.609  0.00  0.00    +0.000 C 
ATOM     26  O   UNL     1       1.632  10.326  21.630  0.00  0.00    +0.000 OA
ENDBRANCH   1  26
BRANCH  21  27
ATOM     27  O   UNL     1       2.191   8.991  19.097  0.00  0.00    +0.000 OA
BRANCH  27  28
ATOM     28  C   UNL     1       2.098   7.606  18.744  0.00  0.00    +0.000 C 
ATOM     29  C   UNL     1       3.250   7.140  17.859  0.00  0.00    +0.000 C 
ATOM     30  C   UNL     1       3.444   5.671  18.192  0.00  0.00    +0.000 C 
ATOM     31  C   UNL     1       3.043   5.522  19.651  0.00  0.00    +0.000 C 
ATOM     32  C   UNL     1       2.237   6.764  20.019  0.00  0.00    +0.000 C 
ENDBRANCH  27  28
ENDBRANCH  21  27
TORSDOF 4
ENDMDL
MODEL 3
REMARK VINA RESULT:      -6.7      1.805      8.435
REMARK  Name = 
REMARK  9 active torsions:
REMARK  status: ('A' for Active; 'I' for Inactive)
REMARK    1  A    between atoms: C_1  and  O_2
REMARK    2  A    between atoms: O_2  and  C_3
REMARK    3  A    between atoms: C_11  and  C_13
REMARK    4  A    between atoms: C_13  and  C_14
REMARK    5  A    between atoms: C_13  and  C_15
REMARK    6  A    between atoms: N_20  and  C_21
REMARK    7  A    between atoms: N_20  and  C_22
REMARK    8  A    between atoms: C_26  and  O_27
REMARK    9  A    between atoms: O_27  and  C_28
REMARK                            x       y       z     vdW  Elec       q    Type
REMARK                         _______ _______ _______ _____ _____    ______ ____
ROOT
ATOM      1  C   UNL     1       2.065   8.714  19.065  0.00  0.00    +0.000 A 
ATOM      2  C   UNL     1       2.283   7.540  18.352  0.00  0.00    +0.000 A 
ATOM      3  C   UNL     1       2.362   6.280  18.976  0.00  0.00    +0.000 A 
ATOM      4  C   UNL     1       2.870   5.122  18.359  0.00  0.00    +0.000 A 
ATOM      5  N   UNL     1       3.587   5.177  17.166  0.00  0.00    +0.000 N 
ATOM      6  C   UNL     1       4.538   6.268  16.874  0.00  0.00    +0.000 C 
ATOM      7  C   UNL     1       5.940   5.772  16.513  0.00  0.00    +0.000 C 
ATOM      8  N   UNL     1       5.898   4.710  15.511  0.00  0.00    +0.000 N 
ATOM      9  C   UNL     1       6.565   4.900  14.307  0.00  0.00    +0.000 C 
ATOM     10  O   UNL     1       7.173   5.948  14.072  0.00  0.00    +0.000 OA
ATOM     11  C   UNL     1       5.048   3.578  15.912  0.00  0.00    +0.000 C 
ATOM     12  C   UNL     1       3.610   4.026  16.256  0.00  0.00    +0.000 C 
ATOM     13  N   UNL     1       2.719   3.925  18.950  0.00  0.00    +0.000 NA
ATOM     14  C   UNL     1       2.181   3.857  20.186  0.00  0.00    +0.000 A 
ATOM     15  N   UNL     1       1.985   2.618  20.752  0.00  0.00    +0.000 N 
ATOM     16  C   UNL     1       2.242   1.402  20.005  0.00  0.00    +0.000 C 
ATOM     17  C   UNL     1       1.434   2.483  22.085  0.00  0.00    +0.000 C 
ATOM     18  N   UNL     1       1.836   4.955  20.879  0.00  0.00    +0.000 NA
ATOM     19  C   UNL     1       1.922   6.155  20.289  0.00  0.00    +0.000 A 
ATOM     20  C   UNL     1       1.571   7.327  20.973  0.00  0.00    +0.000 A 
ATOM     21  C   UNL     1       1.649   8.610  20.388  0.00  0.00    +0.000 A 
ENDROOT
BRANCH   9  22
ATOM     22  C   UNL     1       6.579   3.754  13.299  0.00  0.00    +0.000 C 
ATOM     23  C   UNL     1       5.170   3.481  12.765  0.00  0.00    +0.000 C 
ATOM     24  C   UNL     1       7.518   4.084  12.141  0.00  0.00    +0.000 C 
ENDBRANCH   9  22
BRANCH   1  26
ATOM     25  C   UNL     1       1.162  10.569  17.888  0.00  0.00    +0.000 C 
ATOM     26  O   UNL     1       2.291   9.934  18.493  0.00  0.00    +0.000 OA
ENDBRANCH   1  26
BRANCH  21  27
ATOM     27  O   UNL     1       1.337   9.644  21.234  0.00  0.00    +0.000 OA
BRANCH  27  28
ATOM     28  C   UNL     1      -0.041   9.909  21.519  0.00  0.00    +0.000 C 
ATOM     29  C   UNL     1      -0.344   9.936  23.015  0.00  0.00    +0.000 C 
ATOM     30  C   UNL     1      -1.502  10.905  23.174  0.00  0.00    +0.000 C 
ATOM     31  C   UNL     1      -1.338  11.930  22.062  0.00  0.00    +0.000 C 
ATOM     32  C   UNL     1      -0.378  11.328  21.041  0.00  0.00    +0.000 C 
ENDBRANCH  27  28
ENDBRANCH  21  27
TORSDOF 4
ENDMDL
MODEL 4
REMARK VINA RESULT:      -6.3      4.225      7.374
REMARK  Name = 
REMARK  9 active torsions:
REMARK  status: ('A' for Active; 'I' for Inactive)
REMARK    1  A    between atoms: C_1  and  O_2
REMARK    2  A    between atoms: O_2  and  C_3
REMARK    3  A    between atoms: C_11  and  C_13
REMARK    4  A    between atoms: C_13  and  C_14
REMARK    5  A    between atoms: C_13  and  C_15
REMARK    6  A    between atoms: N_20  and  C_21
REMARK    7  A    between atoms: N_20  and  C_22
REMARK    8  A    between atoms: C_26  and  O_27
REMARK    9  A    between atoms: O_27  and  C_28
REMARK                            x       y       z     vdW  Elec       q    Type
REMARK                         _______ _______ _______ _____ _____    ______ ____
ROOT
ATOM      1  C   UNL     1       1.084   9.404  20.153  0.00  0.00    +0.000 A 
ATOM      2  C   UNL     1      -0.118  10.081  20.329  0.00  0.00    +0.000 A 
ATOM      3  C   UNL     1      -0.932  10.470  19.247  0.00  0.00    +0.000 A 
ATOM      4  C   UNL     1      -1.982  11.402  19.342  0.00  0.00    +0.000 A 
ATOM      5  N   UNL     1      -2.142  12.222  20.457  0.00  0.00    +0.000 N 
ATOM      6  C   UNL     1      -0.989  12.806  21.170  0.00  0.00    +0.000 C 
ATOM      7  C   UNL     1      -1.063  14.328  21.303  0.00  0.00    +0.000 C 
ATOM      8  N   UNL     1      -2.371  14.766  21.788  0.00  0.00    +0.000 N 
ATOM      9  C   UNL     1      -2.436  15.497  22.967  0.00  0.00    +0.000 C 
ATOM     10  O   UNL     1      -1.417  15.766  23.610  0.00  0.00    +0.000 OA
ATOM     11  C   UNL     1      -3.482  14.275  20.958  0.00  0.00    +0.000 C 
ATOM     12  C   UNL     1      -3.467  12.735  20.821  0.00  0.00    +0.000 C 
ATOM     13  N   UNL     1      -2.834  11.560  18.315  0.00  0.00    +0.000 NA
ATOM     14  C   UNL     1      -2.607  10.906  17.157  0.00  0.00    +0.000 A 
ATOM     15  N   UNL     1      -3.520  11.039  16.135  0.00  0.00    +0.000 N 
ATOM     16  C   UNL     1      -4.757  11.771  16.324  0.00  0.00    +0.000 C 
ATOM     17  C   UNL     1      -3.318  10.381  14.860  0.00  0.00    +0.000 C 
ATOM     18  N   UNL     1      -1.522  10.137  16.968  0.00  0.00    +0.000 NA
ATOM     19  C   UNL     1      -0.690   9.916  17.995  0.00  0.00    +0.000 A 
ATOM     20  C   UNL     1       0.453   9.119  17.845  0.00  0.00    +0.000 A 
ATOM     21  C   UNL     1       1.355   8.864  18.900  0.00  0.00    +0.000 A 
ENDROOT
BRANCH   9  22
ATOM     22  C   UNL     1      -3.798  16.015  23.422  0.00  0.00    +0.000 C 
ATOM     23  C   UNL     1      -3.873  16.080  24.950  0.00  0.00    +0.000 C 
ATOM     24  C   UNL     1      -4.057  17.399  22.830  0.00  0.00    +0.000 C 
ENDBRANCH   9  22
BRANCH   1  26
ATOM     25  C   UNL     1       1.448   9.256  22.496  0.00  0.00    +0.000 C 
ATOM     26  O   UNL     1       1.988   9.306  21.172  0.00  0.00    +0.000 OA
ENDBRANCH   1  26
BRANCH  21  27
ATOM     27  O   UNL     1       2.456   8.124  18.547  0.00  0.00    +0.000 OA
BRANCH  27  28
ATOM     28  C   UNL     1       2.528   6.756  18.961  0.00  0.00    +0.000 C 
ATOM     29  C   UNL     1       1.755   5.815  18.041  0.00  0.00    +0.000 C 
ATOM     30  C   UNL     1       2.492   4.489  18.112  0.00  0.00    +0.000 C 
ATOM     31  C   UNL     1       3.951   4.839  18.359  0.00  0.00    +0.000 C 
ATOM     32  C   UNL     1       3.984   6.284  18.847  0.00  0.00    +0.000 C 
ENDBRANCH  27  28
ENDBRANCH  21  27
TORSDOF 4
ENDMDL
MODEL 5
REMARK VINA RESULT:      -6.3      4.747      8.742
REMARK  Name = 
REMARK  9 active torsions:
REMARK  status: ('A' for Active; 'I' for Inactive)
REMARK    1  A    between atoms: C_1  and  O_2
REMARK    2  A    between atoms: O_2  and  C_3
REMARK    3  A    between atoms: C_11  and  C_13
REMARK    4  A    between atoms: C_13  and  C_14
REMARK    5  A    between atoms: C_13  and  C_15
REMARK    6  A    between atoms: N_20  and  C_21
REMARK    7  A    between atoms: N_20  and  C_22
REMARK    8  A    between atoms: C_26  and  O_27
REMARK    9  A    between atoms: O_27  and  C_28
REMARK                            x       y       z     vdW  Elec       q    Type
REMARK                         _______ _______ _______ _____ _____    ______ ____
ROOT
ATOM      1  C   UNL     1      -0.724  10.460  18.124  0.00  0.00    +0.000 A 
ATOM      2  C   UNL     1      -1.121  11.678  18.665  0.00  0.00    +0.000 A 
ATOM      3  C   UNL     1      -0.313  12.406  19.561  0.00  0.00    +0.000 A 
ATOM      4  C   UNL     1      -0.775  13.470  20.357  0.00  0.00    +0.000 A 
ATOM      5  N   UNL     1      -2.134  13.726  20.529  0.00  0.00    +0.000 N 
ATOM      6  C   UNL     1      -3.125  12.639  20.652  0.00  0.00    +0.000 C 
ATOM      7  C   UNL     1      -3.984  12.738  21.914  0.00  0.00    +0.000 C 
ATOM      8  N   UNL     1      -4.522  14.085  22.099  0.00  0.00    +0.000 N 
ATOM      9  C   UNL     1      -5.900  14.251  22.159  0.00  0.00    +0.000 C 
ATOM     10  O   UNL     1      -6.666  13.290  22.045  0.00  0.00    +0.000 OA
ATOM     11  C   UNL     1      -3.478  15.121  22.113  0.00  0.00    +0.000 C 
ATOM     12  C   UNL     1      -2.604  15.081  20.839  0.00  0.00    +0.000 C 
ATOM     13  N   UNL     1       0.101  14.237  21.026  0.00  0.00    +0.000 NA
ATOM     14  C   UNL     1       1.411  13.912  21.018  0.00  0.00    +0.000 A 
ATOM     15  N   UNL     1       2.300  14.741  21.664  0.00  0.00    +0.000 N 
ATOM     16  C   UNL     1       1.868  15.996  22.247  0.00  0.00    +0.000 C 
ATOM     17  C   UNL     1       3.715  14.432  21.711  0.00  0.00    +0.000 C 
ATOM     18  N   UNL     1       1.872  12.808  20.408  0.00  0.00    +0.000 NA
ATOM     19  C   UNL     1       1.027  12.060  19.685  0.00  0.00    +0.000 A 
ATOM     20  C   UNL     1       1.465  10.900  19.029  0.00  0.00    +0.000 A 
ATOM     21  C   UNL     1       0.608  10.084  18.260  0.00  0.00    +0.000 A 
ENDROOT
BRANCH   9  22
ATOM     22  C   UNL     1      -6.448  15.650  22.429  0.00  0.00    +0.000 C 
ATOM     23  C   UNL     1      -6.970  16.289  21.138  0.00  0.00    +0.000 C 
ATOM     24  C   UNL     1      -7.568  15.583  23.465  0.00  0.00    +0.000 C 
ENDBRANCH   9  22
BRANCH   1  26
ATOM     25  C   UNL     1      -2.965  10.137  17.404  0.00  0.00    +0.000 C 
ATOM     26  O   UNL     1      -1.628   9.639  17.511  0.00  0.00    +0.000 OA
ENDBRANCH   1  26
BRANCH  21  27
ATOM     27  O   UNL     1       1.196   8.952  17.756  0.00  0.00    +0.000 OA
BRANCH  27  28
ATOM     28  C   UNL     1       2.279   8.357  18.479  0.00  0.00    +0.000 C 
ATOM     29  C   UNL     1       1.821   7.272  19.449  0.00  0.00    +0.000 C 
ATOM     30  C   UNL     1       2.979   6.293  19.534  0.00  0.00    +0.000 C 
ATOM     31  C   UNL     1       3.663   6.344  18.177  0.00  0.00    +0.000 C 
ATOM     32  C   UNL     1       3.186   7.617  17.486  0.00  0.00    +0.000 C 
ENDBRANCH  27  28
ENDBRANCH  21  27
TORSDOF 4
ENDMDL
MODEL 6
REMARK VINA RESULT:      -6.1      6.512     10.246
REMARK  Name = 
REMARK  9 active torsions:
REMARK  status: ('A' for Active; 'I' for Inactive)
REMARK    1  A    between atoms: C_1  and  O_2
REMARK    2  A    between atoms: O_2  and  C_3
REMARK    3  A    between atoms: C_11  and  C_13
REMARK    4  A    between atoms: C_13  and  C_14
REMARK    5  A    between atoms: C_13  and  C_15
REMARK    6  A    between atoms: N_20  and  C_21
REMARK    7  A    between atoms: N_20  and  C_22
REMARK    8  A    between atoms: C_26  and  O_27
REMARK    9  A    between atoms: O_27  and  C_28
REMARK                            x       y       z     vdW  Elec       q    Type
REMARK                         _______ _______ _______ _____ _____    ______ ____
ROOT
ATOM      1  C   UNL     1       0.590  11.403  19.158  0.00  0.00    +0.000 A 
ATOM      2  C   UNL     1       1.542  12.176  19.814  0.00  0.00    +0.000 A 
ATOM      3  C   UNL     1       1.202  13.325  20.555  0.00  0.00    +0.000 A 
ATOM      4  C   UNL     1       2.129  14.296  20.979  0.00  0.00    +0.000 A 
ATOM      5  N   UNL     1       3.426  14.346  20.474  0.00  0.00    +0.000 N 
ATOM      6  C   UNL     1       3.727  14.059  19.058  0.00  0.00    +0.000 C 
ATOM      7  C   UNL     1       4.498  15.181  18.360  0.00  0.00    +0.000 C 
ATOM      8  N   UNL     1       5.643  15.626  19.153  0.00  0.00    +0.000 N 
ATOM      9  C   UNL     1       6.913  15.543  18.597  0.00  0.00    +0.000 C 
ATOM     10  O   UNL     1       7.086  15.092  17.461  0.00  0.00    +0.000 OA
ATOM     11  C   UNL     1       5.269  16.038  20.515  0.00  0.00    +0.000 C 
ATOM     12  C   UNL     1       4.514  14.922  21.272  0.00  0.00    +0.000 C 
ATOM     13  N   UNL     1       1.754  15.246  21.851  0.00  0.00    +0.000 NA
ATOM     14  C   UNL     1       0.460  15.329  22.229  0.00  0.00    +0.000 A 
ATOM     15  N   UNL     1       0.106  16.275  23.164  0.00  0.00    +0.000 N 
ATOM     16  C   UNL     1       1.107  17.092  23.821  0.00  0.00    +0.000 C 
ATOM     17  C   UNL     1      -1.270  16.428  23.590  0.00  0.00    +0.000 C 
ATOM     18  N   UNL     1      -0.489  14.527  21.719  0.00  0.00    +0.000 NA
ATOM     19  C   UNL     1      -0.130  13.534  20.892  0.00  0.00    +0.000 A 
ATOM     20  C   UNL     1      -1.086  12.671  20.338  0.00  0.00    +0.000 A 
ATOM     21  C   UNL     1      -0.751  11.615  19.463  0.00  0.00    +0.000 A 
ENDROOT
BRANCH   9  22
ATOM     22  C   UNL     1       8.091  16.082  19.404  0.00  0.00    +0.000 C 
ATOM     23  C   UNL     1       9.237  15.067  19.438  0.00  0.00    +0.000 C 
ATOM     24  C   UNL     1       8.581  17.398  18.802  0.00  0.00    +0.000 C 
ENDBRANCH   9  22
BRANCH   1  26
ATOM     25  C   UNL     1       1.508   9.261  18.699  0.00  0.00    +0.000 C 
ATOM     26  O   UNL     1       0.961  10.489  18.212  0.00  0.00    +0.000 OA
ENDBRANCH   1  26
BRANCH  21  27
ATOM     27  O   UNL     1      -1.825  10.924  18.962  0.00  0.00    +0.000 OA
BRANCH  27  28
ATOM     28  C   UNL     1      -2.309  11.254  17.656  0.00  0.00    +0.000 C 
ATOM     29  C   UNL     1      -2.221  10.086  16.677  0.00  0.00    +0.000 C 
ATOM     30  C   UNL     1      -3.366  10.293  15.701  0.00  0.00    +0.000 C 
ATOM     31  C   UNL     1      -4.462  10.992  16.491  0.00  0.00    +0.000 C 
ATOM     32  C   UNL     1      -3.811  11.556  17.750  0.00  0.00    +0.000 C 
ENDBRANCH  27  28
ENDBRANCH  21  27
TORSDOF 4
ENDMDL
MODEL 7
REMARK VINA RESULT:      -6.1      5.141      9.003
REMARK  Name = 
REMARK  9 active torsions:
REMARK  status: ('A' for Active; 'I' for Inactive)
REMARK    1  A    between atoms: C_1  and  O_2
REMARK    2  A    between atoms: O_2  and  C_3
REMARK    3  A    between atoms: C_11  and  C_13
REMARK    4  A    between atoms: C_13  and  C_14
REMARK    5  A    between atoms: C_13  and  C_15
REMARK    6  A    between atoms: N_20  and  C_21
REMARK    7  A    between atoms: N_20  and  C_22
REMARK    8  A    between atoms: C_26  and  O_27
REMARK    9  A    between atoms: O_27  and  C_28
REMARK                            x       y       z     vdW  Elec       q    Type
REMARK                         _______ _______ _______ _____ _____    ______ ____
ROOT
ATOM      1  C   UNL     1      -0.461  10.702  18.576  0.00  0.00    +0.000 A 
ATOM      2  C   UNL     1      -0.738  12.014  18.944  0.00  0.00    +0.000 A 
ATOM      3  C   UNL     1       0.275  12.936  19.275  0.00  0.00    +0.000 A 
ATOM      4  C   UNL     1       0.047  14.159  19.931  0.00  0.00    +0.000 A 
ATOM      5  N   UNL     1      -1.167  14.449  20.551  0.00  0.00    +0.000 N 
ATOM      6  C   UNL     1      -1.936  13.423  21.282  0.00  0.00    +0.000 C 
ATOM      7  C   UNL     1      -2.267  13.822  22.722  0.00  0.00    +0.000 C 
ATOM      8  N   UNL     1      -2.820  15.173  22.796  0.00  0.00    +0.000 N 
ATOM      9  C   UNL     1      -4.085  15.348  23.343  0.00  0.00    +0.000 C 
ATOM     10  O   UNL     1      -4.745  14.387  23.748  0.00  0.00    +0.000 OA
ATOM     11  C   UNL     1      -1.946  16.183  22.178  0.00  0.00    +0.000 C 
ATOM     12  C   UNL     1      -1.611  15.838  20.709  0.00  0.00    +0.000 C 
ATOM     13  N   UNL     1       1.034  15.066  20.023  0.00  0.00    +0.000 NA
ATOM     14  C   UNL     1       2.271  14.749  19.585  0.00  0.00    +0.000 A 
ATOM     15  N   UNL     1       3.255  15.709  19.639  0.00  0.00    +0.000 N 
ATOM     16  C   UNL     1       2.958  17.067  20.049  0.00  0.00    +0.000 C 
ATOM     17  C   UNL     1       4.607  15.420  19.205  0.00  0.00    +0.000 C 
ATOM     18  N   UNL     1       2.571  13.531  19.105  0.00  0.00    +0.000 NA
ATOM     19  C   UNL     1       1.591  12.630  18.948  0.00  0.00    +0.000 A 
ATOM     20  C   UNL     1       1.857  11.347  18.448  0.00  0.00    +0.000 A 
ATOM     21  C   UNL     1       0.855  10.370  18.270  0.00  0.00    +0.000 A 
ENDROOT
BRANCH   9  22
ATOM     22  C   UNL     1      -4.620  16.770  23.486  0.00  0.00    +0.000 C 
ATOM     23  C   UNL     1      -5.889  16.961  22.651  0.00  0.00    +0.000 C 
ATOM     24  C   UNL     1      -4.912  17.076  24.953  0.00  0.00    +0.000 C 
ENDBRANCH   9  22
BRANCH   1  26
ATOM     25  C   UNL     1      -2.545  10.007  17.674  0.00  0.00    +0.000 C 
ATOM     26  O   UNL     1      -1.448   9.757  18.556  0.00  0.00    +0.000 OA
ENDBRANCH   1  26
BRANCH  21  27
ATOM     27  O   UNL     1       1.315   9.150  17.842  0.00  0.00    +0.000 OA
BRANCH  27  28
ATOM     28  C   UNL     1       2.190   8.405  18.696  0.00  0.00    +0.000 C 
ATOM     29  C   UNL     1       1.518   7.963  19.993  0.00  0.00    +0.000 C 
ATOM     30  C   UNL     1       2.206   6.665  20.379  0.00  0.00    +0.000 C 
ATOM     31  C   UNL     1       2.617   6.010  19.070  0.00  0.00    +0.000 C 
ATOM     32  C   UNL     1       2.559   7.091  17.995  0.00  0.00    +0.000 C 
ENDBRANCH  27  28
ENDBRANCH  21  27
TORSDOF 4
ENDMDL
MODEL 8
REMARK VINA RESULT:      -6.1      5.367      9.346
REMARK  Name = 
REMARK  9 active torsions:
REMARK  status: ('A' for Active; 'I' for Inactive)
REMARK    1  A    between atoms: C_1  and  O_2
REMARK    2  A    between atoms: O_2  and  C_3
REMARK    3  A    between atoms: C_11  and  C_13
REMARK    4  A    between atoms: C_13  and  C_14
REMARK    5  A    between atoms: C_13  and  C_15
REMARK    6  A    between atoms: N_20  and  C_21
REMARK    7  A    between atoms: N_20  and  C_22
REMARK    8  A    between atoms: C_26  and  O_27
REMARK    9  A    between atoms: O_27  and  C_28
REMARK                            x       y       z     vdW  Elec       q    Type
REMARK                         _______ _______ _______ _____ _____    ______ ____
ROOT
ATOM      1  C   UNL     1      -0.247  11.228  18.513  0.00  0.00    +0.000 A 
ATOM      2  C   UNL     1      -0.944  12.287  19.084  0.00  0.00    +0.000 A 
ATOM      3  C   UNL     1      -0.329  13.223  19.939  0.00  0.00    +0.000 A 
ATOM      4  C   UNL     1      -1.031  14.118  20.768  0.00  0.00    +0.000 A 
ATOM      5  N   UNL     1      -2.395  13.977  21.016  0.00  0.00    +0.000 N 
ATOM      6  C   UNL     1      -3.027  12.654  21.185  0.00  0.00    +0.000 C 
ATOM      7  C   UNL     1      -3.807  12.515  22.494  0.00  0.00    +0.000 C 
ATOM      8  N   UNL     1      -4.696  13.653  22.718  0.00  0.00    +0.000 N 
ATOM      9  C   UNL     1      -6.059  13.420  22.855  0.00  0.00    +0.000 C 
ATOM     10  O   UNL     1      -6.524  12.280  22.777  0.00  0.00    +0.000 OA
ATOM     11  C   UNL     1      -3.992  14.945  22.682  0.00  0.00    +0.000 C 
ATOM     12  C   UNL     1      -3.214  15.144  21.362  0.00  0.00    +0.000 C 
ATOM     13  N   UNL     1      -0.375  15.109  21.393  0.00  0.00    +0.000 NA
ATOM     14  C   UNL     1       0.971  15.171  21.310  0.00  0.00    +0.000 A 
ATOM     15  N   UNL     1       1.620  16.225  21.912  0.00  0.00    +0.000 N 
ATOM     16  C   UNL     1       0.881  17.309  22.527  0.00  0.00    +0.000 C 
ATOM     17  C   UNL     1       3.065  16.332  21.878  0.00  0.00    +0.000 C 
ATOM     18  N   UNL     1       1.694  14.239  20.667  0.00  0.00    +0.000 NA
ATOM     19  C   UNL     1       1.059  13.274  19.987  0.00  0.00    +0.000 A 
ATOM     20  C   UNL     1       1.772  12.282  19.299  0.00  0.00    +0.000 A 
ATOM     21  C   UNL     1       1.143  11.249  18.573  0.00  0.00    +0.000 A 
ENDROOT
BRANCH   9  22
ATOM     22  C   UNL     1      -6.968  14.607  23.165  0.00  0.00    +0.000 C 
ATOM     23  C   UNL     1      -7.773  15.014  21.928  0.00  0.00    +0.000 C 
ATOM     24  C   UNL     1      -7.916  14.256  24.309  0.00  0.00    +0.000 C 
ENDBRANCH   9  22
BRANCH   1  26
ATOM     25  C   UNL     1      -2.105  10.499  17.225  0.00  0.00    +0.000 C 
ATOM     26  O   UNL     1      -0.911  10.178  17.944  0.00  0.00    +0.000 OA
ENDBRANCH   1  26
BRANCH  21  27
ATOM     27  O   UNL     1       2.001  10.327  18.028  0.00  0.00    +0.000 OA
BRANCH  27  28
ATOM     28  C   UNL     1       1.692   8.935  18.160  0.00  0.00    +0.000 C 
ATOM     29  C   UNL     1       2.778   8.029  17.585  0.00  0.00    +0.000 C 
ATOM     30  C   UNL     1       2.720   6.757  18.413  0.00  0.00    +0.000 C 
ATOM     31  C   UNL     1       2.258   7.186  19.797  0.00  0.00    +0.000 C 
ATOM     32  C   UNL     1       1.656   8.580  19.652  0.00  0.00    +0.000 C 
ENDBRANCH  27  28
ENDBRANCH  21  27
TORSDOF 4
ENDMDL
MODEL 9
REMARK VINA RESULT:      -6.0      4.878      8.709
REMARK  Name = 
REMARK  9 active torsions:
REMARK  status: ('A' for Active; 'I' for Inactive)
REMARK    1  A    between atoms: C_1  and  O_2
REMARK    2  A    between atoms: O_2  and  C_3
REMARK    3  A    between atoms: C_11  and  C_13
REMARK    4  A    between atoms: C_13  and  C_14
REMARK    5  A    between atoms: C_13  and  C_15
REMARK    6  A    between atoms: N_20  and  C_21
REMARK    7  A    between atoms: N_20  and  C_22
REMARK    8  A    between atoms: C_26  and  O_27
REMARK    9  A    between atoms: O_27  and  C_28
REMARK                            x       y       z     vdW  Elec       q    Type
REMARK                         _______ _______ _______ _____ _____    ______ ____
ROOT
ATOM      1  C   UNL     1      -0.106  10.760  18.694  0.00  0.00    +0.000 A 
ATOM      2  C   UNL     1      -0.175  12.126  18.944  0.00  0.00    +0.000 A 
ATOM      3  C   UNL     1       0.970  12.947  18.973  0.00  0.00    +0.000 A 
ATOM      4  C   UNL     1       0.996  14.249  19.507  0.00  0.00    +0.000 A 
ATOM      5  N   UNL     1      -0.041  14.743  20.295  0.00  0.00    +0.000 N 
ATOM      6  C   UNL     1      -0.754  13.897  21.271  0.00  0.00    +0.000 C 
ATOM      7  C   UNL     1      -0.761  14.475  22.688  0.00  0.00    +0.000 C 
ATOM      8  N   UNL     1      -1.151  15.884  22.696  0.00  0.00    +0.000 N 
ATOM      9  C   UNL     1      -2.264  16.265  23.435  0.00  0.00    +0.000 C 
ATOM     10  O   UNL     1      -2.927  15.437  24.066  0.00  0.00    +0.000 OA
ATOM     11  C   UNL     1      -0.316  16.713  21.813  0.00  0.00    +0.000 C 
ATOM     12  C   UNL     1      -0.304  16.185  20.361  0.00  0.00    +0.000 C 
ATOM     13  N   UNL     1       2.069  15.033  19.310  0.00  0.00    +0.000 NA
ATOM     14  C   UNL     1       3.160  14.527  18.699  0.00  0.00    +0.000 A 
ATOM     15  N   UNL     1       4.228  15.361  18.458  0.00  0.00    +0.000 N 
ATOM     16  C   UNL     1       4.152  16.779  18.748  0.00  0.00    +0.000 C 
ATOM     17  C   UNL     1       5.436  14.868  17.827  0.00  0.00    +0.000 C 
ATOM     18  N   UNL     1       3.239  13.239  18.323  0.00  0.00    +0.000 NA
ATOM     19  C   UNL     1       2.161  12.453  18.455  0.00  0.00    +0.000 A 
ATOM     20  C   UNL     1       2.197  11.104  18.075  0.00  0.00    +0.000 A 
ATOM     21  C   UNL     1       1.086  10.242  18.199  0.00  0.00    +0.000 A 
ENDROOT
BRANCH   9  22
ATOM     22  C   UNL     1      -2.616  17.749  23.498  0.00  0.00    +0.000 C 
ATOM     23  C   UNL     1      -3.713  18.092  22.487  0.00  0.00    +0.000 C 
ATOM     24  C   UNL     1      -3.074  18.120  24.907  0.00  0.00    +0.000 C 
ENDBRANCH   9  22
BRANCH   1  26
ATOM     25  C   UNL     1      -2.268  10.013  18.054  0.00  0.00    +0.000 C 
ATOM     26  O   UNL     1      -1.169   9.945  18.965  0.00  0.00    +0.000 OA
ENDBRANCH   1  26
BRANCH  21  27
ATOM     27  O   UNL     1       1.330   8.938  17.846  0.00  0.00    +0.000 OA
BRANCH  27  28
ATOM     28  C   UNL     1       2.408   8.243  18.483  0.00  0.00    +0.000 C 
ATOM     29  C   UNL     1       1.943   7.360  19.638  0.00  0.00    +0.000 C 
ATOM     30  C   UNL     1       2.933   6.209  19.687  0.00  0.00    +0.000 C 
ATOM     31  C   UNL     1       3.394   5.999  18.253  0.00  0.00    +0.000 C 
ATOM     32  C   UNL     1       3.020   7.258  17.478  0.00  0.00    +0.000 C 
ENDBRANCH  27  28
ENDBRANCH  21  27
TORSDOF 4
ENDMDL
