MODEL 1
REMARK VINA RESULT:      -8.4      0.000      0.000
REMARK  Name = 
REMARK  7 active torsions:
REMARK  status: ('A' for Active; 'I' for Inactive)
REMARK    1  A    between atoms: C_1  and  C_2
REMARK    2  A    between atoms: C_9  and  C_10
REMARK    3  A    between atoms: N_12  and  C_13
REMARK    4  A    between atoms: C_14  and  C_15
REMARK    5  A    between atoms: N_16  and  C_17
REMARK    6  A    between atoms: N_18  and  C_19
REMARK    7  A    between atoms: C_29  and  C_30
REMARK                            x       y       z     vdW  Elec       q    Type
REMARK                         _______ _______ _______ _____ _____    ______ ____
ROOT
ATOM      1  C   UNL     1       1.758   9.106  18.417  0.00  0.00    +0.000 C 
ATOM      2  O   UNL     1       1.930  10.047  17.643  0.00  0.00    +0.000 OA
ATOM      3  N   UNL     1       0.904   9.137  19.493  0.00  0.00    +0.000 N 
ATOM      4  H   UNL     1       1.136   8.514  20.263  0.00  0.00    +0.000 HD
ENDROOT
BRANCH   1  13
ATOM      5  C   UNL     1       3.456   2.239  20.802  0.00  0.00    +0.000 C 
ATOM      6  C   UNL     1       3.653   3.410  19.873  0.00  0.00    +0.000 A 
ATOM      7  C   UNL     1       4.699   3.348  18.938  0.00  0.00    +0.000 A 
ATOM      8  C   UNL     1       4.924   4.401  18.060  0.00  0.00    +0.000 A 
ATOM      9  C   UNL     1       4.118   5.537  18.126  0.00  0.00    +0.000 A 
ATOM     10  C   UNL     1       4.369   6.656  17.200  0.00  0.00    +0.000 A 
ATOM     11  O   UNL     1       5.234   6.606  16.337  0.00  0.00    +0.000 OA
ATOM     12  C   UNL     1       3.533   7.838  17.367  0.00  0.00    +0.000 A 
ATOM     13  C   UNL     1       2.579   7.849  18.309  0.00  0.00    +0.000 A 
ATOM     14  O   UNL     1       2.305   6.779  19.154  0.00  0.00    +0.000 OA
ATOM     15  C   UNL     1       3.079   5.637  19.052  0.00  0.00    +0.000 A 
ATOM     16  C   UNL     1       2.813   4.554  19.918  0.00  0.00    +0.000 A 
ATOM     17  C   UNL     1       1.649   4.583  20.874  0.00  0.00    +0.000 C 
ENDBRANCH   1  13
BRANCH   3  18
ATOM     18  C   UNL     1       0.106  10.203  19.829  0.00  0.00    +0.000 A 
ATOM     19  C   UNL     1      -1.036  10.704  19.314  0.00  0.00    +0.000 A 
ATOM     20  C   UNL     1      -1.800  10.215  18.127  0.00  0.00    +0.000 C 
ATOM     21  N   UNL     1      -1.544  11.744  20.109  0.00  0.00    +0.000 N 
ATOM     22  C   UNL     1      -2.445  12.792  19.641  0.00  0.00    +0.000 C 
ATOM     23  N   UNL     1      -0.530  12.069  21.039  0.00  0.00    +0.000 N 
ATOM     24  C   UNL     1       0.476  11.111  20.963  0.00  0.00    +0.000 A 
ATOM     25  O   UNL     1       1.488  10.964  21.634  0.00  0.00    +0.000 OA
BRANCH  23  26
ATOM     26  C   UNL     1      -0.623  13.117  21.965  0.00  0.00    +0.000 A 
ATOM     27  C   UNL     1       0.112  14.292  21.772  0.00  0.00    +0.000 A 
ATOM     28  C   UNL     1      -0.049  15.374  22.643  0.00  0.00    +0.000 A 
ATOM     29  C   UNL     1      -0.904  15.267  23.739  0.00  0.00    +0.000 A 
ATOM     30  C   UNL     1      -1.603  14.082  23.963  0.00  0.00    +0.000 A 
ATOM     31  C   UNL     1      -1.473  13.015  23.073  0.00  0.00    +0.000 A 
ENDBRANCH  23  26
ENDBRANCH   3  18
TORSDOF 3
ENDMDL
MODEL 2
REMARK VINA RESULT:      -8.3      1.083      2.448
REMARK  Name = 
REMARK  7 active torsions:
REMARK  status: ('A' for Active; 'I' for Inactive)
REMARK    1  A    between atoms: C_1  and  C_2
REMARK    2  A    between atoms: C_9  and  C_10
REMARK    3  A    between atoms: N_12  and  C_13
REMARK    4  A    between atoms: C_14  and  C_15
REMARK    5  A    between atoms: N_16  and  C_17
REMARK    6  A    between atoms: N_18  and  C_19
REMARK    7  A    between atoms: C_29  and  C_30
REMARK                            x       y       z     vdW  Elec       q    Type
REMARK                         _______ _______ _______ _____ _____    ______ ____
ROOT
ATOM      1  C   UNL     1       1.757   8.861  18.693  0.00  0.00    +0.000 C 
ATOM      2  O   UNL     1       2.094   9.783  17.950  0.00  0.00    +0.000 OA
ATOM      3  N   UNL     1       0.798   8.968  19.671  0.00  0.00    +0.000 N 
ATOM      4  H   UNL     1       0.890   8.327  20.456  0.00  0.00    +0.000 HD
ENDROOT
BRANCH   1  13
ATOM      5  C   UNL     1       6.284   4.004  15.280  0.00  0.00    +0.000 C 
ATOM      6  C   UNL     1       5.400   4.415  16.431  0.00  0.00    +0.000 A 
ATOM      7  C   UNL     1       5.171   3.485  17.458  0.00  0.00    +0.000 A 
ATOM      8  C   UNL     1       4.363   3.814  18.540  0.00  0.00    +0.000 A 
ATOM      9  C   UNL     1       3.758   5.070  18.591  0.00  0.00    +0.000 A 
ATOM     10  C   UNL     1       2.893   5.408  19.735  0.00  0.00    +0.000 A 
ATOM     11  O   UNL     1       2.721   4.642  20.673  0.00  0.00    +0.000 OA
ATOM     12  C   UNL     1       2.240   6.711  19.693  0.00  0.00    +0.000 A 
ATOM     13  C   UNL     1       2.469   7.535  18.661  0.00  0.00    +0.000 A 
ATOM     14  O   UNL     1       3.322   7.241  17.602  0.00  0.00    +0.000 OA
ATOM     15  C   UNL     1       3.955   6.012  17.580  0.00  0.00    +0.000 A 
ATOM     16  C   UNL     1       4.809   5.704  16.500  0.00  0.00    +0.000 A 
ATOM     17  C   UNL     1       5.119   6.721  15.432  0.00  0.00    +0.000 C 
ENDBRANCH   1  13
BRANCH   3  18
ATOM     18  C   UNL     1       0.068  10.102  19.931  0.00  0.00    +0.000 A 
ATOM     19  C   UNL     1      -0.986  10.683  19.323  0.00  0.00    +0.000 A 
ATOM     20  C   UNL     1      -1.695  10.236  18.087  0.00  0.00    +0.000 C 
ATOM     21  N   UNL     1      -1.466  11.777  20.063  0.00  0.00    +0.000 N 
ATOM     22  C   UNL     1      -2.239  12.885  19.512  0.00  0.00    +0.000 C 
ATOM     23  N   UNL     1      -0.504  12.035  21.064  0.00  0.00    +0.000 N 
ATOM     24  C   UNL     1       0.424  10.998  21.079  0.00  0.00    +0.000 A 
ATOM     25  O   UNL     1       1.365  10.782  21.828  0.00  0.00    +0.000 OA
BRANCH  23  26
ATOM     26  C   UNL     1      -0.580  13.106  21.967  0.00  0.00    +0.000 A 
ATOM     27  C   UNL     1       0.194  14.253  21.763  0.00  0.00    +0.000 A 
ATOM     28  C   UNL     1       0.052  15.358  22.609  0.00  0.00    +0.000 A 
ATOM     29  C   UNL     1      -0.826  15.300  23.692  0.00  0.00    +0.000 A 
ATOM     30  C   UNL     1      -1.565  14.141  23.926  0.00  0.00    +0.000 A 
ATOM     31  C   UNL     1      -1.453  13.052  23.061  0.00  0.00    +0.000 A 
ENDBRANCH  23  26
ENDBRANCH   3  18
TORSDOF 3
ENDMDL
MODEL 3
REMARK VINA RESULT:      -8.3      2.353      9.474
REMARK  Name = 
REMARK  7 active torsions:
REMARK  status: ('A' for Active; 'I' for Inactive)
REMARK    1  A    between atoms: C_1  and  C_2
REMARK    2  A    between atoms: C_9  and  C_10
REMARK    3  A    between atoms: N_12  and  C_13
REMARK    4  A    between atoms: C_14  and  C_15
REMARK    5  A    between atoms: N_16  and  C_17
REMARK    6  A    between atoms: N_18  and  C_19
REMARK    7  A    between atoms: C_29  and  C_30
REMARK                            x       y       z     vdW  Elec       q    Type
REMARK                         _______ _______ _______ _____ _____    ______ ____
ROOT
ATOM      1  C   UNL     1       1.450   8.174  19.518  0.00  0.00    +0.000 C 
ATOM      2  O   UNL     1       1.426   8.339  18.299  0.00  0.00    +0.000 OA
ATOM      3  N   UNL     1       2.000   7.079  20.139  0.00  0.00    +0.000 N 
ATOM      4  H   UNL     1       1.617   6.847  21.053  0.00  0.00    +0.000 HD
ENDROOT
BRANCH   1  13
ATOM      5  C   UNL     1      -2.727  14.260  20.631  0.00  0.00    +0.000 C 
ATOM      6  C   UNL     1      -1.943  13.076  21.136  0.00  0.00    +0.000 A 
ATOM      7  C   UNL     1      -1.785  12.926  22.523  0.00  0.00    +0.000 A 
ATOM      8  C   UNL     1      -1.071  11.853  23.040  0.00  0.00    +0.000 A 
ATOM      9  C   UNL     1      -0.487  10.931  22.171  0.00  0.00    +0.000 A 
ATOM     10  C   UNL     1       0.279   9.801  22.725  0.00  0.00    +0.000 A 
ATOM     11  O   UNL     1       0.385   9.612  23.929  0.00  0.00    +0.000 OA
ATOM     12  C   UNL     1       0.917   8.913  21.760  0.00  0.00    +0.000 A 
ATOM     13  C   UNL     1       0.761   9.137  20.448  0.00  0.00    +0.000 A 
ATOM     14  O   UNL     1      -0.001  10.173  19.918  0.00  0.00    +0.000 OA
ATOM     15  C   UNL     1      -0.615  11.058  20.787  0.00  0.00    +0.000 A 
ATOM     16  C   UNL     1      -1.377  12.119  20.253  0.00  0.00    +0.000 A 
ATOM     17  C   UNL     1      -1.612  12.246  18.770  0.00  0.00    +0.000 C 
ENDBRANCH   1  13
BRANCH   3  18
ATOM     18  C   UNL     1       2.621   6.040  19.491  0.00  0.00    +0.000 A 
ATOM     19  C   UNL     1       2.487   4.699  19.550  0.00  0.00    +0.000 A 
ATOM     20  C   UNL     1       1.571   3.905  20.422  0.00  0.00    +0.000 C 
ATOM     21  N   UNL     1       3.270   4.062  18.572  0.00  0.00    +0.000 N 
ATOM     22  C   UNL     1       3.735   2.681  18.642  0.00  0.00    +0.000 C 
ATOM     23  N   UNL     1       4.123   5.052  18.036  0.00  0.00    +0.000 N 
ATOM     24  C   UNL     1       3.723   6.299  18.508  0.00  0.00    +0.000 A 
ATOM     25  O   UNL     1       4.128   7.420  18.237  0.00  0.00    +0.000 OA
BRANCH  23  26
ATOM     26  C   UNL     1       5.116   4.796  17.079  0.00  0.00    +0.000 A 
ATOM     27  C   UNL     1       4.763   4.570  15.744  0.00  0.00    +0.000 A 
ATOM     28  C   UNL     1       5.755   4.406  14.772  0.00  0.00    +0.000 A 
ATOM     29  C   UNL     1       7.101   4.415  15.139  0.00  0.00    +0.000 A 
ATOM     30  C   UNL     1       7.456   4.593  16.475  0.00  0.00    +0.000 A 
ATOM     31  C   UNL     1       6.469   4.795  17.440  0.00  0.00    +0.000 A 
ENDBRANCH  23  26
ENDBRANCH   3  18
TORSDOF 3
ENDMDL
MODEL 4
REMARK VINA RESULT:      -7.9      1.861      3.279
REMARK  Name = 
REMARK  7 active torsions:
REMARK  status: ('A' for Active; 'I' for Inactive)
REMARK    1  A    between atoms: C_1  and  C_2
REMARK    2  A    between atoms: C_9  and  C_10
REMARK    3  A    between atoms: N_12  and  C_13
REMARK    4  A    between atoms: C_14  and  C_15
REMARK    5  A    between atoms: N_16  and  C_17
REMARK    6  A    between atoms: N_18  and  C_19
REMARK    7  A    between atoms: C_29  and  C_30
REMARK                            x       y       z     vdW  Elec       q    Type
REMARK                         _______ _______ _______ _____ _____    ______ ____
ROOT
ATOM      1  C   UNL     1       1.835   8.164  20.189  0.00  0.00    +0.000 C 
ATOM      2  O   UNL     1       1.829   8.415  21.393  0.00  0.00    +0.000 OA
ATOM      3  N   UNL     1       1.308   8.990  19.225  0.00  0.00    +0.000 N 
ATOM      4  H   UNL     1       0.998   8.534  18.370  0.00  0.00    +0.000 HD
ENDROOT
BRANCH   1  13
ATOM      5  C   UNL     1       5.699   4.192  15.187  0.00  0.00    +0.000 C 
ATOM      6  C   UNL     1       4.841   4.300  16.422  0.00  0.00    +0.000 A 
ATOM      7  C   UNL     1       4.428   3.114  17.050  0.00  0.00    +0.000 A 
ATOM      8  C   UNL     1       3.635   3.159  18.189  0.00  0.00    +0.000 A 
ATOM      9  C   UNL     1       3.229   4.392  18.698  0.00  0.00    +0.000 A 
ATOM     10  C   UNL     1       2.378   4.432  19.901  0.00  0.00    +0.000 A 
ATOM     11  O   UNL     1       2.051   3.419  20.503  0.00  0.00    +0.000 OA
ATOM     12  C   UNL     1       1.936   5.750  20.341  0.00  0.00    +0.000 A 
ATOM     13  C   UNL     1       2.334   6.841  19.670  0.00  0.00    +0.000 A 
ATOM     14  O   UNL     1       3.176   6.814  18.564  0.00  0.00    +0.000 OA
ATOM     15  C   UNL     1       3.612   5.589  18.091  0.00  0.00    +0.000 A 
ATOM     16  C   UNL     1       4.454   5.556  16.960  0.00  0.00    +0.000 A 
ATOM     17  C   UNL     1       4.962   6.824  16.323  0.00  0.00    +0.000 C 
ENDBRANCH   1  13
BRANCH   3  18
ATOM     18  C   UNL     1       0.737  10.214  19.470  0.00  0.00    +0.000 A 
ATOM     19  C   UNL     1       1.072  11.476  19.130  0.00  0.00    +0.000 A 
ATOM     20  C   UNL     1       2.262  11.934  18.352  0.00  0.00    +0.000 C 
ATOM     21  N   UNL     1       0.076  12.391  19.512  0.00  0.00    +0.000 N 
ATOM     22  C   UNL     1       0.291  13.816  19.738  0.00  0.00    +0.000 C 
ATOM     23  N   UNL     1      -0.815  11.685  20.351  0.00  0.00    +0.000 N 
ATOM     24  C   UNL     1      -0.502  10.330  20.305  0.00  0.00    +0.000 A 
ATOM     25  O   UNL     1      -1.060   9.366  20.810  0.00  0.00    +0.000 OA
BRANCH  23  26
ATOM     26  C   UNL     1      -1.910  12.272  21.002  0.00  0.00    +0.000 A 
ATOM     27  C   UNL     1      -3.036  12.663  20.269  0.00  0.00    +0.000 A 
ATOM     28  C   UNL     1      -4.164  13.164  20.926  0.00  0.00    +0.000 A 
ATOM     29  C   UNL     1      -4.152  13.323  22.312  0.00  0.00    +0.000 A 
ATOM     30  C   UNL     1      -3.015  12.979  23.041  0.00  0.00    +0.000 A 
ATOM     31  C   UNL     1      -1.903  12.443  22.392  0.00  0.00    +0.000 A 
ENDBRANCH  23  26
ENDBRANCH   3  18
TORSDOF 3
ENDMDL
MODEL 5
REMARK VINA RESULT:      -7.8      2.005      3.545
REMARK  Name = 
REMARK  7 active torsions:
REMARK  status: ('A' for Active; 'I' for Inactive)
REMARK    1  A    between atoms: C_1  and  C_2
REMARK    2  A    between atoms: C_9  and  C_10
REMARK    3  A    between atoms: N_12  and  C_13
REMARK    4  A    between atoms: C_14  and  C_15
REMARK    5  A    between atoms: N_16  and  C_17
REMARK    6  A    between atoms: N_18  and  C_19
REMARK    7  A    between atoms: C_29  and  C_30
REMARK                            x       y       z     vdW  Elec       q    Type
REMARK                         _______ _______ _______ _____ _____    ______ ____
ROOT
ATOM      1  C   UNL     1       1.618   8.417  20.919  0.00  0.00    +0.000 C 
ATOM      2  O   UNL     1       1.829   8.605  22.116  0.00  0.00    +0.000 OA
ATOM      3  N   UNL     1       1.027   9.335  20.084  0.00  0.00    +0.000 N 
ATOM      4  H   UNL     1       0.541   8.953  19.276  0.00  0.00    +0.000 HD
ENDROOT
BRANCH   1  13
ATOM      5  C   UNL     1       5.059   4.297  15.731  0.00  0.00    +0.000 C 
ATOM      6  C   UNL     1       4.136   4.445  16.914  0.00  0.00    +0.000 A 
ATOM      7  C   UNL     1       3.451   3.306  17.369  0.00  0.00    +0.000 A 
ATOM      8  C   UNL     1       2.588   3.390  18.454  0.00  0.00    +0.000 A 
ATOM      9  C   UNL     1       2.384   4.619  19.080  0.00  0.00    +0.000 A 
ATOM     10  C   UNL     1       1.458   4.703  20.224  0.00  0.00    +0.000 A 
ATOM     11  O   UNL     1       0.892   3.719  20.679  0.00  0.00    +0.000 OA
ATOM     12  C   UNL     1       1.241   6.030  20.788  0.00  0.00    +0.000 A 
ATOM     13  C   UNL     1       1.896   7.083  20.279  0.00  0.00    +0.000 A 
ATOM     14  O   UNL     1       2.808   7.003  19.232  0.00  0.00    +0.000 OA
ATOM     15  C   UNL     1       3.039   5.772  18.645  0.00  0.00    +0.000 A 
ATOM     16  C   UNL     1       3.953   5.690  17.572  0.00  0.00    +0.000 A 
ATOM     17  C   UNL     1       4.746   6.890  17.125  0.00  0.00    +0.000 C 
ENDBRANCH   1  13
BRANCH   3  18
ATOM     18  C   UNL     1       0.625  10.592  20.463  0.00  0.00    +0.000 A 
ATOM     19  C   UNL     1      -0.136  11.055  21.476  0.00  0.00    +0.000 A 
ATOM     20  C   UNL     1      -0.829  10.266  22.539  0.00  0.00    +0.000 C 
ATOM     21  N   UNL     1      -0.143  12.459  21.512  0.00  0.00    +0.000 N 
ATOM     22  C   UNL     1      -1.184  13.275  22.129  0.00  0.00    +0.000 C 
ATOM     23  N   UNL     1       0.452  12.893  20.307  0.00  0.00    +0.000 N 
ATOM     24  C   UNL     1       1.007  11.796  19.656  0.00  0.00    +0.000 A 
ATOM     25  O   UNL     1       1.677  11.732  18.635  0.00  0.00    +0.000 OA
BRANCH  23  26
ATOM     26  C   UNL     1       0.564  14.239  19.929  0.00  0.00    +0.000 A 
ATOM     27  C   UNL     1       1.610  15.024  20.427  0.00  0.00    +0.000 A 
ATOM     28  C   UNL     1       1.777  16.339  19.981  0.00  0.00    +0.000 A 
ATOM     29  C   UNL     1       0.871  16.890  19.075  0.00  0.00    +0.000 A 
ATOM     30  C   UNL     1      -0.200  16.126  18.612  0.00  0.00    +0.000 A 
ATOM     31  C   UNL     1      -0.346  14.803  19.026  0.00  0.00    +0.000 A 
ENDBRANCH  23  26
ENDBRANCH   3  18
TORSDOF 3
ENDMDL
MODEL 6
REMARK VINA RESULT:      -7.8      1.332      1.954
REMARK  Name = 
REMARK  7 active torsions:
REMARK  status: ('A' for Active; 'I' for Inactive)
REMARK    1  A    between atoms: C_1  and  C_2
REMARK    2  A    between atoms: C_9  and  C_10
REMARK    3  A    between atoms: N_12  and  C_13
REMARK    4  A    between atoms: C_14  and  C_15
REMARK    5  A    between atoms: N_16  and  C_17
REMARK    6  A    between atoms: N_18  and  C_19
REMARK    7  A    between atoms: C_29  and  C_30
REMARK                            x       y       z     vdW  Elec       q    Type
REMARK                         _______ _______ _______ _____ _____    ______ ____
ROOT
ATOM      1  C   UNL     1       1.492   8.964  18.469  0.00  0.00    +0.000 C 
ATOM      2  O   UNL     1       0.859   9.360  17.491  0.00  0.00    +0.000 OA
ATOM      3  N   UNL     1       1.500   9.593  19.691  0.00  0.00    +0.000 N 
ATOM      4  H   UNL     1       2.328   9.444  20.262  0.00  0.00    +0.000 HD
ENDROOT
BRANCH   1  13
ATOM      5  C   UNL     1       3.662   2.193  20.744  0.00  0.00    +0.000 C 
ATOM      6  C   UNL     1       3.803   3.407  19.860  0.00  0.00    +0.000 A 
ATOM      7  C   UNL     1       4.896   3.466  18.981  0.00  0.00    +0.000 A 
ATOM      8  C   UNL     1       5.072   4.563  18.147  0.00  0.00    +0.000 A 
ATOM      9  C   UNL     1       4.167   5.623  18.202  0.00  0.00    +0.000 A 
ATOM     10  C   UNL     1       4.366   6.789  17.323  0.00  0.00    +0.000 A 
ATOM     11  O   UNL     1       5.274   6.843  16.506  0.00  0.00    +0.000 OA
ATOM     12  C   UNL     1       3.422   7.889  17.480  0.00  0.00    +0.000 A 
ATOM     13  C   UNL     1       2.424   7.786  18.369  0.00  0.00    +0.000 A 
ATOM     14  O   UNL     1       2.202   6.669  19.168  0.00  0.00    +0.000 OA
ATOM     15  C   UNL     1       3.077   5.602  19.074  0.00  0.00    +0.000 A 
ATOM     16  C   UNL     1       2.864   4.472  19.893  0.00  0.00    +0.000 A 
ATOM     17  C   UNL     1       1.655   4.369  20.786  0.00  0.00    +0.000 C 
ENDBRANCH   1  13
BRANCH   3  18
ATOM     18  C   UNL     1       0.782  10.724  19.994  0.00  0.00    +0.000 A 
ATOM     19  C   UNL     1       0.935  12.028  19.687  0.00  0.00    +0.000 A 
ATOM     20  C   UNL     1       2.027  12.661  18.887  0.00  0.00    +0.000 C 
ATOM     21  N   UNL     1      -0.158  12.791  20.129  0.00  0.00    +0.000 N 
ATOM     22  C   UNL     1      -0.124  14.226  20.395  0.00  0.00    +0.000 C 
ATOM     23  N   UNL     1      -0.918  11.950  20.972  0.00  0.00    +0.000 N 
ATOM     24  C   UNL     1      -0.431  10.650  20.871  0.00  0.00    +0.000 A 
ATOM     25  O   UNL     1      -0.839   9.607  21.362  0.00  0.00    +0.000 OA
BRANCH  23  26
ATOM     26  C   UNL     1      -2.056  12.368  21.677  0.00  0.00    +0.000 A 
ATOM     27  C   UNL     1      -3.229  12.693  20.986  0.00  0.00    +0.000 A 
ATOM     28  C   UNL     1      -4.392  13.022  21.690  0.00  0.00    +0.000 A 
ATOM     29  C   UNL     1      -4.373  13.076  23.084  0.00  0.00    +0.000 A 
ATOM     30  C   UNL     1      -3.194  12.798  23.774  0.00  0.00    +0.000 A 
ATOM     31  C   UNL     1      -2.043  12.433  23.075  0.00  0.00    +0.000 A 
ENDBRANCH  23  26
ENDBRANCH   3  18
TORSDOF 3
ENDMDL
MODEL 7
REMARK VINA RESULT:      -7.8      2.012      3.022
REMARK  Name = 
REMARK  7 active torsions:
REMARK  status: ('A' for Active; 'I' for Inactive)
REMARK    1  A    between atoms: C_1  and  C_2
REMARK    2  A    between atoms: C_9  and  C_10
REMARK    3  A    between atoms: N_12  and  C_13
REMARK    4  A    between atoms: C_14  and  C_15
REMARK    5  A    between atoms: N_16  and  C_17
REMARK    6  A    between atoms: N_18  and  C_19
REMARK    7  A    between atoms: C_29  and  C_30
REMARK                            x       y       z     vdW  Elec       q    Type
REMARK                         _______ _______ _______ _____ _____    ______ ____
ROOT
ATOM      1  C   UNL     1       1.697   8.719  19.119  0.00  0.00    +0.000 C 
ATOM      2  O   UNL     1       1.458   8.743  20.325  0.00  0.00    +0.000 OA
ATOM      3  N   UNL     1       1.205   9.631  18.215  0.00  0.00    +0.000 N 
ATOM      4  H   UNL     1       1.113   9.301  17.257  0.00  0.00    +0.000 HD
ENDROOT
BRANCH   1  13
ATOM      5  C   UNL     1       3.201   1.432  18.515  0.00  0.00    +0.000 C 
ATOM      6  C   UNL     1       3.429   2.873  18.132  0.00  0.00    +0.000 A 
ATOM      7  C   UNL     1       4.467   3.165  17.233  0.00  0.00    +0.000 A 
ATOM      8  C   UNL     1       4.719   4.476  16.849  0.00  0.00    +0.000 A 
ATOM      9  C   UNL     1       3.948   5.510  17.380  0.00  0.00    +0.000 A 
ATOM     10  C   UNL     1       4.228   6.900  16.977  0.00  0.00    +0.000 A 
ATOM     11  O   UNL     1       5.087   7.180  16.153  0.00  0.00    +0.000 OA
ATOM     12  C   UNL     1       3.428   7.936  17.619  0.00  0.00    +0.000 A 
ATOM     13  C   UNL     1       2.479   7.591  18.501  0.00  0.00    +0.000 A 
ATOM     14  O   UNL     1       2.177   6.278  18.849  0.00  0.00    +0.000 OA
ATOM     15  C   UNL     1       2.916   5.255  18.284  0.00  0.00    +0.000 A 
ATOM     16  C   UNL     1       2.622   3.922  18.646  0.00  0.00    +0.000 A 
ATOM     17  C   UNL     1       1.464   3.593  19.552  0.00  0.00    +0.000 C 
ENDBRANCH   1  13
BRANCH   3  18
ATOM     18  C   UNL     1       0.412  10.704  18.539  0.00  0.00    +0.000 A 
ATOM     19  C   UNL     1       0.666  12.011  18.753  0.00  0.00    +0.000 A 
ATOM     20  C   UNL     1       1.987  12.708  18.719  0.00  0.00    +0.000 C 
ATOM     21  N   UNL     1      -0.521  12.743  18.926  0.00  0.00    +0.000 N 
ATOM     22  C   UNL     1      -0.623  14.021  19.622  0.00  0.00    +0.000 C 
ATOM     23  N   UNL     1      -1.558  11.794  19.067  0.00  0.00    +0.000 N 
ATOM     24  C   UNL     1      -1.059  10.530  18.768  0.00  0.00    +0.000 A 
ATOM     25  O   UNL     1      -1.625   9.449  18.688  0.00  0.00    +0.000 OA
BRANCH  23  26
ATOM     26  C   UNL     1      -2.894  12.127  19.335  0.00  0.00    +0.000 A 
ATOM     27  C   UNL     1      -3.877  11.927  18.360  0.00  0.00    +0.000 A 
ATOM     28  C   UNL     1      -5.222  12.172  18.655  0.00  0.00    +0.000 A 
ATOM     29  C   UNL     1      -5.582  12.667  19.909  0.00  0.00    +0.000 A 
ATOM     30  C   UNL     1      -4.601  12.912  20.868  0.00  0.00    +0.000 A 
ATOM     31  C   UNL     1      -3.264  12.632  20.588  0.00  0.00    +0.000 A 
ENDBRANCH  23  26
ENDBRANCH   3  18
TORSDOF 3
ENDMDL
MODEL 8
REMARK VINA RESULT:      -7.8      1.105      1.192
REMARK  Name = 
REMARK  7 active torsions:
REMARK  status: ('A' for Active; 'I' for Inactive)
REMARK    1  A    between atoms: C_1  and  C_2
REMARK    2  A    between atoms: C_9  and  C_10
REMARK    3  A    between atoms: N_12  and  C_13
REMARK    4  A    between atoms: C_14  and  C_15
REMARK    5  A    between atoms: N_16  and  C_17
REMARK    6  A    between atoms: N_18  and  C_19
REMARK    7  A    between atoms: C_29  and  C_30
REMARK                            x       y       z     vdW  Elec       q    Type
REMARK                         _______ _______ _______ _____ _____    ______ ____
ROOT
ATOM      1  C   UNL     1       1.352   8.327  19.883  0.00  0.00    +0.000 C 
ATOM      2  O   UNL     1       1.001   8.098  21.039  0.00  0.00    +0.000 OA
ATOM      3  N   UNL     1       0.942   9.417  19.152  0.00  0.00    +0.000 N 
ATOM      4  H   UNL     1       0.943   9.300  18.142  0.00  0.00    +0.000 HD
ENDROOT
BRANCH   1  13
ATOM      5  C   UNL     1       3.580   1.325  18.563  0.00  0.00    +0.000 C 
ATOM      6  C   UNL     1       3.616   2.807  18.284  0.00  0.00    +0.000 A 
ATOM      7  C   UNL     1       4.535   3.282  17.334  0.00  0.00    +0.000 A 
ATOM      8  C   UNL     1       4.609   4.638  17.042  0.00  0.00    +0.000 A 
ATOM      9  C   UNL     1       3.779   5.534  17.714  0.00  0.00    +0.000 A 
ATOM     10  C   UNL     1       3.871   6.973  17.408  0.00  0.00    +0.000 A 
ATOM     11  O   UNL     1       4.620   7.410  16.545  0.00  0.00    +0.000 OA
ATOM     12  C   UNL     1       3.022   7.860  18.194  0.00  0.00    +0.000 A 
ATOM     13  C   UNL     1       2.196   7.344  19.115  0.00  0.00    +0.000 A 
ATOM     14  O   UNL     1       2.069   5.984  19.376  0.00  0.00    +0.000 OA
ATOM     15  C   UNL     1       2.863   5.096  18.672  0.00  0.00    +0.000 A 
ATOM     16  C   UNL     1       2.748   3.716  18.944  0.00  0.00    +0.000 A 
ATOM     17  C   UNL     1       1.715   3.191  19.907  0.00  0.00    +0.000 C 
ENDBRANCH   1  13
BRANCH   3  18
ATOM     18  C   UNL     1       0.116  10.408  19.621  0.00  0.00    +0.000 A 
ATOM     19  C   UNL     1      -1.137  10.795  19.307  0.00  0.00    +0.000 A 
ATOM     20  C   UNL     1      -2.040  10.223  18.263  0.00  0.00    +0.000 C 
ATOM     21  N   UNL     1      -1.600  11.793  20.180  0.00  0.00    +0.000 N 
ATOM     22  C   UNL     1      -2.661  12.747  19.874  0.00  0.00    +0.000 C 
ATOM     23  N   UNL     1      -0.481  12.220  20.929  0.00  0.00    +0.000 N 
ATOM     24  C   UNL     1       0.584  11.359  20.681  0.00  0.00    +0.000 A 
ATOM     25  O   UNL     1       1.703  11.314  21.173  0.00  0.00    +0.000 OA
BRANCH  23  26
ATOM     26  C   UNL     1      -0.515  13.267  21.862  0.00  0.00    +0.000 A 
ATOM     27  C   UNL     1       0.184  14.453  21.613  0.00  0.00    +0.000 A 
ATOM     28  C   UNL     1       0.078  15.531  22.497  0.00  0.00    +0.000 A 
ATOM     29  C   UNL     1      -0.686  15.410  23.658  0.00  0.00    +0.000 A 
ATOM     30  C   UNL     1      -1.347  14.214  23.933  0.00  0.00    +0.000 A 
ATOM     31  C   UNL     1      -1.272  13.150  23.034  0.00  0.00    +0.000 A 
ENDBRANCH  23  26
ENDBRANCH   3  18
TORSDOF 3
ENDMDL
MODEL 9
REMARK VINA RESULT:      -7.6      1.696      3.136
REMARK  Name = 
REMARK  7 active torsions:
REMARK  status: ('A' for Active; 'I' for Inactive)
REMARK    1  A    between atoms: C_1  and  C_2
REMARK    2  A    between atoms: C_9  and  C_10
REMARK    3  A    between atoms: N_12  and  C_13
REMARK    4  A    between atoms: C_14  and  C_15
REMARK    5  A    between atoms: N_16  and  C_17
REMARK    6  A    between atoms: N_18  and  C_19
REMARK    7  A    between atoms: C_29  and  C_30
REMARK                            x       y       z     vdW  Elec       q    Type
REMARK                         _______ _______ _______ _____ _____    ______ ____
ROOT
ATOM      1  C   UNL     1       1.698   8.800  18.485  0.00  0.00    +0.000 C 
ATOM      2  O   UNL     1       1.328   9.322  17.434  0.00  0.00    +0.000 OA
ATOM      3  N   UNL     1       1.493   9.343  19.731  0.00  0.00    +0.000 N 
ATOM      4  H   UNL     1       2.162   9.073  20.449  0.00  0.00    +0.000 HD
ENDROOT
BRANCH   1  13
ATOM      5  C   UNL     1       6.596   4.264  15.144  0.00  0.00    +0.000 C 
ATOM      6  C   UNL     1       5.696   4.631  16.297  0.00  0.00    +0.000 A 
ATOM      7  C   UNL     1       5.570   3.719  17.358  0.00  0.00    +0.000 A 
ATOM      8  C   UNL     1       4.753   4.009  18.443  0.00  0.00    +0.000 A 
ATOM      9  C   UNL     1       4.036   5.205  18.466  0.00  0.00    +0.000 A 
ATOM     10  C   UNL     1       3.161   5.501  19.615  0.00  0.00    +0.000 A 
ATOM     11  O   UNL     1       3.076   4.754  20.580  0.00  0.00    +0.000 OA
ATOM     12  C   UNL     1       2.391   6.737  19.544  0.00  0.00    +0.000 A 
ATOM     13  C   UNL     1       2.527   7.544  18.482  0.00  0.00    +0.000 A 
ATOM     14  O   UNL     1       3.386   7.294  17.417  0.00  0.00    +0.000 OA
ATOM     15  C   UNL     1       4.129   6.127  17.422  0.00  0.00    +0.000 A 
ATOM     16  C   UNL     1       4.991   5.863  16.337  0.00  0.00    +0.000 A 
ATOM     17  C   UNL     1       5.189   6.867  15.231  0.00  0.00    +0.000 C 
ENDBRANCH   1  13
BRANCH   3  18
ATOM     18  C   UNL     1       0.823  10.517  19.973  0.00  0.00    +0.000 A 
ATOM     19  C   UNL     1       1.026  11.794  19.590  0.00  0.00    +0.000 A 
ATOM     20  C   UNL     1       2.135  12.336  18.749  0.00  0.00    +0.000 C 
ATOM     21  N   UNL     1      -0.032  12.625  19.995  0.00  0.00    +0.000 N 
ATOM     22  C   UNL     1       0.061  14.070  20.178  0.00  0.00    +0.000 C 
ATOM     23  N   UNL     1      -0.817  11.865  20.890  0.00  0.00    +0.000 N 
ATOM     24  C   UNL     1      -0.384  10.542  20.861  0.00  0.00    +0.000 A 
ATOM     25  O   UNL     1      -0.829   9.547  21.413  0.00  0.00    +0.000 OA
BRANCH  23  26
ATOM     26  C   UNL     1      -1.932  12.368  21.577  0.00  0.00    +0.000 A 
ATOM     27  C   UNL     1      -3.101  12.689  20.878  0.00  0.00    +0.000 A 
ATOM     28  C   UNL     1      -4.243  13.104  21.570  0.00  0.00    +0.000 A 
ATOM     29  C   UNL     1      -4.205  13.249  22.957  0.00  0.00    +0.000 A 
ATOM     30  C   UNL     1      -3.029  12.974  23.652  0.00  0.00    +0.000 A 
ATOM     31  C   UNL     1      -1.900  12.524  22.967  0.00  0.00    +0.000 A 
ENDBRANCH  23  26
ENDBRANCH   3  18
TORSDOF 3
ENDMDL
