MODEL 1
REMARK VINA RESULT:      -7.6      0.000      0.000
REMARK  Name = 
REMARK  4 active torsions:
REMARK  status: ('A' for Active; 'I' for Inactive)
REMARK    1  A    between atoms: C_1  and  N_2
REMARK    2  A    between atoms: N_7  and  C_8
REMARK    3  A    between atoms: C_11  and  C_12
REMARK    4  A    between atoms: C_22  and  C_23
REMARK                            x       y       z     vdW  Elec       q    Type
REMARK                         _______ _______ _______ _____ _____    ______ ____
ROOT
ATOM      1  C   UNL     1      -1.101  17.719  18.680  0.00  0.00    +0.000 C 
ATOM      2  N   UNL     1      -0.236  16.574  18.936  0.00  0.00    +0.000 N 
ATOM      3  C   UNL     1      -0.642  15.485  19.695  0.00  0.00    +0.000 A 
ATOM      4  C   UNL     1       0.221  14.467  19.903  0.00  0.00    +0.000 A 
ATOM      5  C   UNL     1       1.606  14.557  19.399  0.00  0.00    +0.000 A 
ATOM      6  O   UNL     1       2.458  13.759  19.784  0.00  0.00    +0.000 OA
ATOM      7  N   UNL     1       1.862  15.577  18.511  0.00  0.00    +0.000 N 
ATOM      8  C   UNL     1       3.169  15.649  17.884  0.00  0.00    +0.000 C 
ATOM      9  C   UNL     1       1.007  16.641  18.304  0.00  0.00    +0.000 A 
ATOM     10  O   UNL     1       1.331  17.608  17.609  0.00  0.00    +0.000 OA
ATOM     11  C   UNL     1      -0.149  13.207  20.685  0.00  0.00    +0.000 C 
ATOM     12  C   UNL     1      -1.516  13.314  21.346  0.00  0.00    +0.000 C 
ATOM     13  C   UNL     1      -2.321  14.364  21.104  0.00  0.00    +0.000 C 
ATOM     14  C   UNL     1      -3.695  14.505  21.711  0.00  0.00    +0.000 C 
ATOM     15  C   UNL     1      -4.275  13.161  22.167  0.00  0.00    +0.000 C 
ATOM     16  C   UNL     1      -3.264  12.398  23.017  0.00  0.00    +0.000 C 
ATOM     17  C   UNL     1      -1.929  12.264  22.321  0.00  0.00    +0.000 C 
ATOM     18  O   UNL     1      -1.163  11.350  22.620  0.00  0.00    +0.000 OA
ATOM     19  N   UNL     1      -1.905  15.380  20.262  0.00  0.00    +0.000 N 
ATOM     20  H   UNL     1      -2.515  16.185  20.207  0.00  0.00    +0.000 HD
ENDROOT
BRANCH  11  21
ATOM     21  C   UNL     1      -0.079  11.965  19.792  0.00  0.00    +0.000 A 
ATOM     22  C   UNL     1       0.973  11.047  19.958  0.00  0.00    +0.000 A 
ATOM     23  C   UNL     1       1.048   9.895  19.174  0.00  0.00    +0.000 A 
ATOM     24  C   UNL     1       0.075   9.646  18.209  0.00  0.00    +0.000 A 
ATOM     25  C   UNL     1      -0.973  10.550  18.034  0.00  0.00    +0.000 A 
ATOM     26 BR   UNL     1      -2.297  10.211  16.730  0.00  0.00    +0.000 Br
ATOM     27  C   UNL     1      -1.054  11.704  18.814  0.00  0.00    +0.000 A 
ENDBRANCH  11  21
BRANCH  15  28
ATOM     28  C   UNL     1      -5.551  13.366  22.914  0.00  0.00    +0.000 A 
ATOM     29  C   UNL     1      -6.170  14.478  23.449  0.00  0.00    +0.000 A 
ATOM     30  C   UNL     1      -7.371  14.015  24.042  0.00  0.00    +0.000 A 
ATOM     31  C   UNL     1      -7.407  12.658  23.830  0.00  0.00    +0.000 A 
ATOM     32  O   UNL     1      -6.304  12.256  23.148  0.00  0.00    +0.000 OA
ENDBRANCH  15  28
TORSDOF 2
ENDMDL
MODEL 2
REMARK VINA RESULT:      -7.3      3.765      7.401
REMARK  Name = 
REMARK  4 active torsions:
REMARK  status: ('A' for Active; 'I' for Inactive)
REMARK    1  A    between atoms: C_1  and  N_2
REMARK    2  A    between atoms: N_7  and  C_8
REMARK    3  A    between atoms: C_11  and  C_12
REMARK    4  A    between atoms: C_22  and  C_23
REMARK                            x       y       z     vdW  Elec       q    Type
REMARK                         _______ _______ _______ _____ _____    ______ ____
ROOT
ATOM      1  C   UNL     1      -5.523  12.528  17.833  0.00  0.00    +0.000 C 
ATOM      2  N   UNL     1      -5.291  12.888  19.225  0.00  0.00    +0.000 N 
ATOM      3  C   UNL     1      -4.131  12.539  19.905  0.00  0.00    +0.000 A 
ATOM      4  C   UNL     1      -3.993  12.894  21.200  0.00  0.00    +0.000 A 
ATOM      5  C   UNL     1      -5.102  13.569  21.905  0.00  0.00    +0.000 A 
ATOM      6  O   UNL     1      -5.083  13.679  23.128  0.00  0.00    +0.000 OA
ATOM      7  N   UNL     1      -6.128  14.034  21.114  0.00  0.00    +0.000 N 
ATOM      8  C   UNL     1      -7.188  14.813  21.726  0.00  0.00    +0.000 C 
ATOM      9  C   UNL     1      -6.303  13.662  19.795  0.00  0.00    +0.000 A 
ATOM     10  O   UNL     1      -7.311  13.984  19.159  0.00  0.00    +0.000 OA
ATOM     11  C   UNL     1      -2.735  12.597  22.017  0.00  0.00    +0.000 C 
ATOM     12  C   UNL     1      -1.753  11.707  21.267  0.00  0.00    +0.000 C 
ATOM     13  C   UNL     1      -1.960  11.382  19.978  0.00  0.00    +0.000 C 
ATOM     14  C   UNL     1      -1.004  10.528  19.182  0.00  0.00    +0.000 C 
ATOM     15  C   UNL     1       0.409  10.519  19.777  0.00  0.00    +0.000 C 
ATOM     16  C   UNL     1       0.363  10.222  21.272  0.00  0.00    +0.000 C 
ATOM     17  C   UNL     1      -0.583  11.147  22.002  0.00  0.00    +0.000 C 
ATOM     18  O   UNL     1      -0.436  11.362  23.204  0.00  0.00    +0.000 OA
ATOM     19  N   UNL     1      -3.087  11.835  19.319  0.00  0.00    +0.000 N 
ATOM     20  H   UNL     1      -3.231  11.469  18.387  0.00  0.00    +0.000 HD
ENDROOT
BRANCH  11  21
ATOM     21  C   UNL     1      -2.054  13.891  22.468  0.00  0.00    +0.000 A 
ATOM     22  C   UNL     1      -1.563  14.792  21.507  0.00  0.00    +0.000 A 
ATOM     23  C   UNL     1      -0.959  15.989  21.891  0.00  0.00    +0.000 A 
ATOM     24  C   UNL     1      -0.833  16.303  23.242  0.00  0.00    +0.000 A 
ATOM     25  C   UNL     1      -1.315  15.417  24.205  0.00  0.00    +0.000 A 
ATOM     26 BR   UNL     1      -1.150  15.844  26.039  0.00  0.00    +0.000 Br
ATOM     27  C   UNL     1      -1.919  14.218  23.829  0.00  0.00    +0.000 A 
ENDBRANCH  11  21
BRANCH  15  28
ATOM     28  C   UNL     1       1.272   9.531  19.064  0.00  0.00    +0.000 A 
ATOM     29  C   UNL     1       1.850   9.505  17.810  0.00  0.00    +0.000 A 
ATOM     30  C   UNL     1       2.559   8.281  17.728  0.00  0.00    +0.000 A 
ATOM     31  C   UNL     1       2.370   7.644  18.931  0.00  0.00    +0.000 A 
ATOM     32  O   UNL     1       1.589   8.396  19.746  0.00  0.00    +0.000 OA
ENDBRANCH  15  28
TORSDOF 2
ENDMDL
MODEL 3
REMARK VINA RESULT:      -7.3      0.942      1.278
REMARK  Name = 
REMARK  4 active torsions:
REMARK  status: ('A' for Active; 'I' for Inactive)
REMARK    1  A    between atoms: C_1  and  N_2
REMARK    2  A    between atoms: N_7  and  C_8
REMARK    3  A    between atoms: C_11  and  C_12
REMARK    4  A    between atoms: C_22  and  C_23
REMARK                            x       y       z     vdW  Elec       q    Type
REMARK                         _______ _______ _______ _____ _____    ______ ____
ROOT
ATOM      1  C   UNL     1      -0.980  17.763  18.825  0.00  0.00    +0.000 C 
ATOM      2  N   UNL     1      -0.186  16.554  18.998  0.00  0.00    +0.000 N 
ATOM      3  C   UNL     1      -0.643  15.455  19.712  0.00  0.00    +0.000 A 
ATOM      4  C   UNL     1       0.157  14.375  19.844  0.00  0.00    +0.000 A 
ATOM      5  C   UNL     1       1.532  14.402  19.306  0.00  0.00    +0.000 A 
ATOM      6  O   UNL     1       2.339  13.532  19.626  0.00  0.00    +0.000 OA
ATOM      7  N   UNL     1       1.832  15.448  18.464  0.00  0.00    +0.000 N 
ATOM      8  C   UNL     1       3.124  15.470  17.805  0.00  0.00    +0.000 C 
ATOM      9  C   UNL     1       1.042  16.574  18.335  0.00  0.00    +0.000 A 
ATOM     10  O   UNL     1       1.411  17.554  17.681  0.00  0.00    +0.000 OA
ATOM     11  C   UNL     1      -0.275  13.101  20.572  0.00  0.00    +0.000 C 
ATOM     12  C   UNL     1      -1.616  13.261  21.276  0.00  0.00    +0.000 C 
ATOM     13  C   UNL     1      -2.356  14.372  21.110  0.00  0.00    +0.000 C 
ATOM     14  C   UNL     1      -3.702  14.568  21.762  0.00  0.00    +0.000 C 
ATOM     15  C   UNL     1      -4.356  13.242  22.167  0.00  0.00    +0.000 C 
ATOM     16  C   UNL     1      -3.377  12.372  22.947  0.00  0.00    +0.000 C 
ATOM     17  C   UNL     1      -2.071  12.190  22.208  0.00  0.00    +0.000 C 
ATOM     18  O   UNL     1      -1.359  11.215  22.439  0.00  0.00    +0.000 OA
ATOM     19  N   UNL     1      -1.896  15.401  20.309  0.00  0.00    +0.000 N 
ATOM     20  H   UNL     1      -2.452  16.245  20.312  0.00  0.00    +0.000 HD
ENDROOT
BRANCH  11  21
ATOM     21  C   UNL     1      -0.308  11.906  19.615  0.00  0.00    +0.000 A 
ATOM     22  C   UNL     1      -1.352  11.790  18.681  0.00  0.00    +0.000 A 
ATOM     23  C   UNL     1      -1.393  10.723  17.783  0.00  0.00    +0.000 A 
ATOM     24  C   UNL     1      -0.394   9.754  17.807  0.00  0.00    +0.000 A 
ATOM     25  C   UNL     1       0.646   9.857  18.730  0.00  0.00    +0.000 A 
ATOM     26 BR   UNL     1       2.007   8.546  18.761  0.00  0.00    +0.000 Br
ATOM     27  C   UNL     1       0.694  10.920  19.632  0.00  0.00    +0.000 A 
ENDBRANCH  11  21
BRANCH  15  28
ATOM     28  C   UNL     1      -5.597  13.489  22.959  0.00  0.00    +0.000 A 
ATOM     29  C   UNL     1      -6.164  14.622  23.509  0.00  0.00    +0.000 A 
ATOM     30  C   UNL     1      -7.355  14.198  24.148  0.00  0.00    +0.000 A 
ATOM     31  C   UNL     1      -7.438  12.841  23.947  0.00  0.00    +0.000 A 
ATOM     32  O   UNL     1      -6.374  12.404  23.228  0.00  0.00    +0.000 OA
ENDBRANCH  15  28
TORSDOF 2
ENDMDL
MODEL 4
REMARK VINA RESULT:      -7.2      3.338      7.227
REMARK  Name = 
REMARK  4 active torsions:
REMARK  status: ('A' for Active; 'I' for Inactive)
REMARK    1  A    between atoms: C_1  and  N_2
REMARK    2  A    between atoms: N_7  and  C_8
REMARK    3  A    between atoms: C_11  and  C_12
REMARK    4  A    between atoms: C_22  and  C_23
REMARK                            x       y       z     vdW  Elec       q    Type
REMARK                         _______ _______ _______ _____ _____    ______ ____
ROOT
ATOM      1  C   UNL     1      -5.269  11.580  17.080  0.00  0.00    +0.000 C 
ATOM      2  N   UNL     1      -5.032  12.268  18.342  0.00  0.00    +0.000 N 
ATOM      3  C   UNL     1      -3.862  12.110  19.072  0.00  0.00    +0.000 A 
ATOM      4  C   UNL     1      -3.720  12.769  20.242  0.00  0.00    +0.000 A 
ATOM      5  C   UNL     1      -4.835  13.578  20.776  0.00  0.00    +0.000 A 
ATOM      6  O   UNL     1      -4.809  13.979  21.937  0.00  0.00    +0.000 OA
ATOM      7  N   UNL     1      -5.874  13.823  19.908  0.00  0.00    +0.000 N 
ATOM      8  C   UNL     1      -6.943  14.711  20.326  0.00  0.00    +0.000 C 
ATOM      9  C   UNL     1      -6.053  13.142  18.720  0.00  0.00    +0.000 A 
ATOM     10  O   UNL     1      -7.071  13.286  18.036  0.00  0.00    +0.000 OA
ATOM     11  C   UNL     1      -2.452  12.696  21.093  0.00  0.00    +0.000 C 
ATOM     12  C   UNL     1      -1.460  11.666  20.568  0.00  0.00    +0.000 C 
ATOM     13  C   UNL     1      -1.671  11.036  19.398  0.00  0.00    +0.000 C 
ATOM     14  C   UNL     1      -0.707  10.030  18.821  0.00  0.00    +0.000 C 
ATOM     15  C   UNL     1       0.710  10.185  19.385  0.00  0.00    +0.000 C 
ATOM     16  C   UNL     1       0.681  10.257  20.908  0.00  0.00    +0.000 C 
ATOM     17  C   UNL     1      -0.275  11.317  21.404  0.00  0.00    +0.000 C 
ATOM     18  O   UNL     1      -0.123  11.818  22.516  0.00  0.00    +0.000 OA
ATOM     19  N   UNL     1      -2.811  11.301  18.662  0.00  0.00    +0.000 N 
ATOM     20  H   UNL     1      -2.955  10.719  17.847  0.00  0.00    +0.000 HD
ENDROOT
BRANCH  11  21
ATOM     21  C   UNL     1      -1.789  14.071  21.212  0.00  0.00    +0.000 A 
ATOM     22  C   UNL     1      -1.681  14.685  22.471  0.00  0.00    +0.000 A 
ATOM     23  C   UNL     1      -1.061  15.927  22.611  0.00  0.00    +0.000 A 
ATOM     24  C   UNL     1      -0.541  16.575  21.493  0.00  0.00    +0.000 A 
ATOM     25  C   UNL     1      -0.643  15.976  20.238  0.00  0.00    +0.000 A 
ATOM     26 BR   UNL     1       0.066  16.851  18.720  0.00  0.00    +0.000 Br
ATOM     27  C   UNL     1      -1.263  14.735  20.090  0.00  0.00    +0.000 A 
ENDBRANCH  11  21
BRANCH  15  28
ATOM     28  C   UNL     1       1.585   9.068  18.921  0.00  0.00    +0.000 A 
ATOM     29  C   UNL     1       2.268   8.820  17.747  0.00  0.00    +0.000 A 
ATOM     30  C   UNL     1       2.923   7.577  17.926  0.00  0.00    +0.000 A 
ATOM     31  C   UNL     1       2.601   7.150  19.192  0.00  0.00    +0.000 A 
ATOM     32  O   UNL     1       1.788   8.049  19.801  0.00  0.00    +0.000 OA
ENDBRANCH  15  28
TORSDOF 2
ENDMDL
MODEL 5
REMARK VINA RESULT:      -7.0      3.316      6.515
REMARK  Name = 
REMARK  4 active torsions:
REMARK  status: ('A' for Active; 'I' for Inactive)
REMARK    1  A    between atoms: C_1  and  N_2
REMARK    2  A    between atoms: N_7  and  C_8
REMARK    3  A    between atoms: C_11  and  C_12
REMARK    4  A    between atoms: C_22  and  C_23
REMARK                            x       y       z     vdW  Elec       q    Type
REMARK                         _______ _______ _______ _____ _____    ______ ____
ROOT
ATOM      1  C   UNL     1      -6.004  14.268  20.863  0.00  0.00    +0.000 C 
ATOM      2  N   UNL     1      -4.707  13.858  21.382  0.00  0.00    +0.000 N 
ATOM      3  C   UNL     1      -3.805  13.110  20.637  0.00  0.00    +0.000 A 
ATOM      4  C   UNL     1      -2.626  12.753  21.191  0.00  0.00    +0.000 A 
ATOM      5  C   UNL     1      -2.342  13.085  22.602  0.00  0.00    +0.000 A 
ATOM      6  O   UNL     1      -1.391  12.564  23.181  0.00  0.00    +0.000 OA
ATOM      7  N   UNL     1      -3.203  13.976  23.200  0.00  0.00    +0.000 N 
ATOM      8  C   UNL     1      -2.912  14.439  24.544  0.00  0.00    +0.000 C 
ATOM      9  C   UNL     1      -4.425  14.333  22.664  0.00  0.00    +0.000 A 
ATOM     10  O   UNL     1      -5.233  15.023  23.293  0.00  0.00    +0.000 OA
ATOM     11  C   UNL     1      -1.552  11.971  20.435  0.00  0.00    +0.000 C 
ATOM     12  C   UNL     1      -2.034  11.489  19.074  0.00  0.00    +0.000 C 
ATOM     13  C   UNL     1      -3.228  11.874  18.587  0.00  0.00    +0.000 C 
ATOM     14  C   UNL     1      -3.740  11.450  17.233  0.00  0.00    +0.000 C 
ATOM     15  C   UNL     1      -2.613  11.012  16.291  0.00  0.00    +0.000 C 
ATOM     16  C   UNL     1      -1.690  10.012  16.980  0.00  0.00    +0.000 C 
ATOM     17  C   UNL     1      -1.188  10.530  18.308  0.00  0.00    +0.000 C 
ATOM     18  O   UNL     1      -0.140  10.099  18.785  0.00  0.00    +0.000 OA
ATOM     19  N   UNL     1      -4.049  12.700  19.333  0.00  0.00    +0.000 N 
ATOM     20  H   UNL     1      -4.972  12.865  18.953  0.00  0.00    +0.000 HD
ENDROOT
BRANCH  11  21
ATOM     21  C   UNL     1      -0.269  12.795  20.293  0.00  0.00    +0.000 A 
ATOM     22  C   UNL     1       0.943  12.286  20.788  0.00  0.00    +0.000 A 
ATOM     23  C   UNL     1       2.131  13.005  20.650  0.00  0.00    +0.000 A 
ATOM     24  C   UNL     1       2.123  14.246  20.018  0.00  0.00    +0.000 A 
ATOM     25  C   UNL     1       0.926  14.762  19.523  0.00  0.00    +0.000 A 
ATOM     26 BR   UNL     1       0.914  16.443  18.659  0.00  0.00    +0.000 Br
ATOM     27  C   UNL     1      -0.265  14.049  19.658  0.00  0.00    +0.000 A 
ENDBRANCH  11  21
BRANCH  15  28
ATOM     28  C   UNL     1      -3.174  10.439  15.032  0.00  0.00    +0.000 A 
ATOM     29  C   UNL     1      -4.459  10.239  14.569  0.00  0.00    +0.000 A 
ATOM     30  C   UNL     1      -4.330   9.648  13.288  0.00  0.00    +0.000 A 
ATOM     31  C   UNL     1      -2.982   9.527  13.053  0.00  0.00    +0.000 A 
ATOM     32  O   UNL     1      -2.273  10.003  14.108  0.00  0.00    +0.000 OA
ENDBRANCH  15  28
TORSDOF 2
ENDMDL
MODEL 6
REMARK VINA RESULT:      -7.0      3.651      7.457
REMARK  Name = 
REMARK  4 active torsions:
REMARK  status: ('A' for Active; 'I' for Inactive)
REMARK    1  A    between atoms: C_1  and  N_2
REMARK    2  A    between atoms: N_7  and  C_8
REMARK    3  A    between atoms: C_11  and  C_12
REMARK    4  A    between atoms: C_22  and  C_23
REMARK                            x       y       z     vdW  Elec       q    Type
REMARK                         _______ _______ _______ _____ _____    ______ ____
ROOT
ATOM      1  C   UNL     1      -4.499  11.054  16.330  0.00  0.00    +0.000 C 
ATOM      2  N   UNL     1      -4.374  11.702  17.629  0.00  0.00    +0.000 N 
ATOM      3  C   UNL     1      -3.280  11.506  18.461  0.00  0.00    +0.000 A 
ATOM      4  C   UNL     1      -3.241  12.129  19.659  0.00  0.00    +0.000 A 
ATOM      5  C   UNL     1      -4.391  12.938  20.109  0.00  0.00    +0.000 A 
ATOM      6  O   UNL     1      -4.470  13.306  21.279  0.00  0.00    +0.000 OA
ATOM      7  N   UNL     1      -5.341  13.224  19.155  0.00  0.00    +0.000 N 
ATOM      8  C   UNL     1      -6.433  14.116  19.497  0.00  0.00    +0.000 C 
ATOM      9  C   UNL     1      -5.415  12.580  17.936  0.00  0.00    +0.000 A 
ATOM     10  O   UNL     1      -6.362  12.759  17.164  0.00  0.00    +0.000 OA
ATOM     11  C   UNL     1      -2.059  12.012  20.622  0.00  0.00    +0.000 C 
ATOM     12  C   UNL     1      -1.035  10.983  20.162  0.00  0.00    +0.000 C 
ATOM     13  C   UNL     1      -1.143  10.390  18.959  0.00  0.00    +0.000 C 
ATOM     14  C   UNL     1      -0.141   9.386  18.445  0.00  0.00    +0.000 C 
ATOM     15  C   UNL     1       1.219   9.504  19.144  0.00  0.00    +0.000 C 
ATOM     16  C   UNL     1       1.046   9.532  20.659  0.00  0.00    +0.000 C 
ATOM     17  C   UNL     1       0.061  10.592  21.095  0.00  0.00    +0.000 C 
ATOM     18  O   UNL     1       0.113  11.058  22.231  0.00  0.00    +0.000 OA
ATOM     19  N   UNL     1      -2.204  10.693  18.127  0.00  0.00    +0.000 N 
ATOM     20  H   UNL     1      -2.279  10.137  17.286  0.00  0.00    +0.000 HD
ENDROOT
BRANCH  11  21
ATOM     21  C   UNL     1      -1.394  13.372  20.844  0.00  0.00    +0.000 A 
ATOM     22  C   UNL     1      -0.791  14.037  19.762  0.00  0.00    +0.000 A 
ATOM     23  C   UNL     1      -0.198  15.289  19.932  0.00  0.00    +0.000 A 
ATOM     24  C   UNL     1      -0.196  15.893  21.187  0.00  0.00    +0.000 A 
ATOM     25  C   UNL     1      -0.789  15.242  22.268  0.00  0.00    +0.000 A 
ATOM     26 BR   UNL     1      -0.791  16.063  23.971  0.00  0.00    +0.000 Br
ATOM     27  C   UNL     1      -1.383  13.991  22.106  0.00  0.00    +0.000 A 
ENDBRANCH  11  21
BRANCH  15  28
ATOM     28  C   UNL     1       2.119   8.387  18.731  0.00  0.00    +0.000 A 
ATOM     29  C   UNL     1       2.920   8.170  17.628  0.00  0.00    +0.000 A 
ATOM     30  C   UNL     1       3.531   6.908  17.824  0.00  0.00    +0.000 A 
ATOM     31  C   UNL     1       3.067   6.439  19.030  0.00  0.00    +0.000 A 
ATOM     32  O   UNL     1       2.208   7.330  19.585  0.00  0.00    +0.000 OA
ENDBRANCH  15  28
TORSDOF 2
ENDMDL
MODEL 7
REMARK VINA RESULT:      -7.0      3.505      7.263
REMARK  Name = 
REMARK  4 active torsions:
REMARK  status: ('A' for Active; 'I' for Inactive)
REMARK    1  A    between atoms: C_1  and  N_2
REMARK    2  A    between atoms: N_7  and  C_8
REMARK    3  A    between atoms: C_11  and  C_12
REMARK    4  A    between atoms: C_22  and  C_23
REMARK                            x       y       z     vdW  Elec       q    Type
REMARK                         _______ _______ _______ _____ _____    ______ ____
ROOT
ATOM      1  C   UNL     1      -5.398  12.404  17.731  0.00  0.00    +0.000 C 
ATOM      2  N   UNL     1      -5.151  12.781  19.116  0.00  0.00    +0.000 N 
ATOM      3  C   UNL     1      -3.984  12.443  19.787  0.00  0.00    +0.000 A 
ATOM      4  C   UNL     1      -3.831  12.814  21.076  0.00  0.00    +0.000 A 
ATOM      5  C   UNL     1      -4.933  13.496  21.784  0.00  0.00    +0.000 A 
ATOM      6  O   UNL     1      -4.901  13.621  23.006  0.00  0.00    +0.000 OA
ATOM      7  N   UNL     1      -5.968  13.950  20.999  0.00  0.00    +0.000 N 
ATOM      8  C   UNL     1      -7.023  14.735  21.613  0.00  0.00    +0.000 C 
ATOM      9  C   UNL     1      -6.158  13.561  19.687  0.00  0.00    +0.000 A 
ATOM     10  O   UNL     1      -7.173  13.874  19.058  0.00  0.00    +0.000 OA
ATOM     11  C   UNL     1      -2.564  12.528  21.882  0.00  0.00    +0.000 C 
ATOM     12  C   UNL     1      -1.589  11.630  21.133  0.00  0.00    +0.000 C 
ATOM     13  C   UNL     1      -1.810  11.288  19.850  0.00  0.00    +0.000 C 
ATOM     14  C   UNL     1      -0.862  10.426  19.054  0.00  0.00    +0.000 C 
ATOM     15  C   UNL     1       0.557  10.426  19.633  0.00  0.00    +0.000 C 
ATOM     16  C   UNL     1       0.529  10.148  21.133  0.00  0.00    +0.000 C 
ATOM     17  C   UNL     1      -0.410  11.081  21.862  0.00  0.00    +0.000 C 
ATOM     18  O   UNL     1      -0.250  11.311  23.059  0.00  0.00    +0.000 OA
ATOM     19  N   UNL     1      -2.945  11.733  19.198  0.00  0.00    +0.000 N 
ATOM     20  H   UNL     1      -3.099  11.354  18.272  0.00  0.00    +0.000 HD
ENDROOT
BRANCH  11  21
ATOM     21  C   UNL     1      -1.879  13.828  22.310  0.00  0.00    +0.000 A 
ATOM     22  C   UNL     1      -1.584  14.046  23.667  0.00  0.00    +0.000 A 
ATOM     23  C   UNL     1      -0.939  15.212  24.081  0.00  0.00    +0.000 A 
ATOM     24  C   UNL     1      -0.583  16.180  23.146  0.00  0.00    +0.000 A 
ATOM     25  C   UNL     1      -0.872  15.976  21.797  0.00  0.00    +0.000 A 
ATOM     26 BR   UNL     1      -0.385  17.286  20.525  0.00  0.00    +0.000 Br
ATOM     27  C   UNL     1      -1.517  14.813  21.375  0.00  0.00    +0.000 A 
ENDBRANCH  11  21
BRANCH  15  28
ATOM     28  C   UNL     1       1.414   9.431  18.924  0.00  0.00    +0.000 A 
ATOM     29  C   UNL     1       1.965   9.383  17.659  0.00  0.00    +0.000 A 
ATOM     30  C   UNL     1       2.683   8.163  17.586  0.00  0.00    +0.000 A 
ATOM     31  C   UNL     1       2.525   7.550  18.806  0.00  0.00    +0.000 A 
ATOM     32  O   UNL     1       1.754   8.313  19.622  0.00  0.00    +0.000 OA
ENDBRANCH  15  28
TORSDOF 2
ENDMDL
MODEL 8
REMARK VINA RESULT:      -7.0      1.624      1.823
REMARK  Name = 
REMARK  4 active torsions:
REMARK  status: ('A' for Active; 'I' for Inactive)
REMARK    1  A    between atoms: C_1  and  N_2
REMARK    2  A    between atoms: N_7  and  C_8
REMARK    3  A    between atoms: C_11  and  C_12
REMARK    4  A    between atoms: C_22  and  C_23
REMARK                            x       y       z     vdW  Elec       q    Type
REMARK                         _______ _______ _______ _____ _____    ______ ____
ROOT
ATOM      1  C   UNL     1      -0.021  17.875  20.283  0.00  0.00    +0.000 C 
ATOM      2  N   UNL     1       0.637  16.594  20.505  0.00  0.00    +0.000 N 
ATOM      3  C   UNL     1      -0.020  15.500  21.050  0.00  0.00    +0.000 A 
ATOM      4  C   UNL     1       0.660  14.349  21.241  0.00  0.00    +0.000 A 
ATOM      5  C   UNL     1       2.107  14.289  20.954  0.00  0.00    +0.000 A 
ATOM      6  O   UNL     1       2.777  13.336  21.346  0.00  0.00    +0.000 OA
ATOM      7  N   UNL     1       2.630  15.351  20.253  0.00  0.00    +0.000 N 
ATOM      8  C   UNL     1       4.017  15.299  19.831  0.00  0.00    +0.000 C 
ATOM      9  C   UNL     1       1.962  16.546  20.069  0.00  0.00    +0.000 A 
ATOM     10  O   UNL     1       2.514  17.526  19.559  0.00  0.00    +0.000 OA
ATOM     11  C   UNL     1       0.011  13.078  21.791  0.00  0.00    +0.000 C 
ATOM     12  C   UNL     1      -1.418  13.313  22.262  0.00  0.00    +0.000 C 
ATOM     13  C   UNL     1      -2.032  14.491  22.049  0.00  0.00    +0.000 C 
ATOM     14  C   UNL     1      -3.454  14.765  22.469  0.00  0.00    +0.000 C 
ATOM     15  C   UNL     1      -4.268  13.479  22.659  0.00  0.00    +0.000 C 
ATOM     16  C   UNL     1      -3.511  12.486  23.534  0.00  0.00    +0.000 C 
ATOM     17  C   UNL     1      -2.112  12.234  23.022  0.00  0.00    +0.000 C 
ATOM     18  O   UNL     1      -1.527  11.189  23.303  0.00  0.00    +0.000 OA
ATOM     19  N   UNL     1      -1.360  15.520  21.415  0.00  0.00    +0.000 N 
ATOM     20  H   UNL     1      -1.844  16.408  21.380  0.00  0.00    +0.000 HD
ENDROOT
BRANCH  11  21
ATOM     21  C   UNL     1       0.060  11.946  20.761  0.00  0.00    +0.000 A 
ATOM     22  C   UNL     1      -0.522  12.131  19.495  0.00  0.00    +0.000 A 
ATOM     23  C   UNL     1      -0.470  11.124  18.530  0.00  0.00    +0.000 A 
ATOM     24  C   UNL     1       0.161   9.916  18.818  0.00  0.00    +0.000 A 
ATOM     25  C   UNL     1       0.741   9.721  20.071  0.00  0.00    +0.000 A 
ATOM     26 BR   UNL     1       1.603   8.085  20.461  0.00  0.00    +0.000 Br
ATOM     27  C   UNL     1       0.693  10.722  21.041  0.00  0.00    +0.000 A 
ENDBRANCH  11  21
BRANCH  15  28
ATOM     28  C   UNL     1      -5.608  13.787  23.239  0.00  0.00    +0.000 A 
ATOM     29  C   UNL     1      -6.320  14.956  23.418  0.00  0.00    +0.000 A 
ATOM     30  C   UNL     1      -7.542  14.584  24.032  0.00  0.00    +0.000 A 
ATOM     31  C   UNL     1      -7.497  13.219  24.185  0.00  0.00    +0.000 A 
ATOM     32  O   UNL     1      -6.325  12.728  23.709  0.00  0.00    +0.000 OA
ENDBRANCH  15  28
TORSDOF 2
ENDMDL
MODEL 9
REMARK VINA RESULT:      -6.9      3.566      7.361
REMARK  Name = 
REMARK  4 active torsions:
REMARK  status: ('A' for Active; 'I' for Inactive)
REMARK    1  A    between atoms: C_1  and  N_2
REMARK    2  A    between atoms: N_7  and  C_8
REMARK    3  A    between atoms: C_11  and  C_12
REMARK    4  A    between atoms: C_22  and  C_23
REMARK                            x       y       z     vdW  Elec       q    Type
REMARK                         _______ _______ _______ _____ _____    ______ ____
ROOT
ATOM      1  C   UNL     1      -5.597  11.776  17.414  0.00  0.00    +0.000 C 
ATOM      2  N   UNL     1      -5.317  12.478  18.659  0.00  0.00    +0.000 N 
ATOM      3  C   UNL     1      -4.111  12.353  19.335  0.00  0.00    +0.000 A 
ATOM      4  C   UNL     1      -3.930  13.024  20.492  0.00  0.00    +0.000 A 
ATOM      5  C   UNL     1      -5.036  13.811  21.073  0.00  0.00    +0.000 A 
ATOM      6  O   UNL     1      -4.965  14.221  22.229  0.00  0.00    +0.000 OA
ATOM      7  N   UNL     1      -6.120  14.026  20.253  0.00  0.00    +0.000 N 
ATOM      8  C   UNL     1      -7.189  14.892  20.715  0.00  0.00    +0.000 C 
ATOM      9  C   UNL     1      -6.339  13.332  19.079  0.00  0.00    +0.000 A 
ATOM     10  O   UNL     1      -7.391  13.448  18.443  0.00  0.00    +0.000 OA
ATOM     11  C   UNL     1      -2.621  12.985  21.282  0.00  0.00    +0.000 C 
ATOM     12  C   UNL     1      -1.632  11.974  20.719  0.00  0.00    +0.000 C 
ATOM     13  C   UNL     1      -1.883  11.331  19.564  0.00  0.00    +0.000 C 
ATOM     14  C   UNL     1      -0.924  10.343  18.948  0.00  0.00    +0.000 C 
ATOM     15  C   UNL     1       0.514  10.534  19.443  0.00  0.00    +0.000 C 
ATOM     16  C   UNL     1       0.555  10.617  20.966  0.00  0.00    +0.000 C 
ATOM     17  C   UNL     1      -0.401  11.659  21.499  0.00  0.00    +0.000 C 
ATOM     18  O   UNL     1      -0.209  12.171  22.600  0.00  0.00    +0.000 OA
ATOM     19  N   UNL     1      -3.062  11.565  18.880  0.00  0.00    +0.000 N 
ATOM     20  H   UNL     1      -3.231  10.973  18.077  0.00  0.00    +0.000 HD
ENDROOT
BRANCH  11  21
ATOM     21  C   UNL     1      -1.985  14.376  21.361  0.00  0.00    +0.000 A 
ATOM     22  C   UNL     1      -1.628  15.046  20.178  0.00  0.00    +0.000 A 
ATOM     23  C   UNL     1      -1.069  16.324  20.221  0.00  0.00    +0.000 A 
ATOM     24  C   UNL     1      -0.854  16.949  21.446  0.00  0.00    +0.000 A 
ATOM     25  C   UNL     1      -1.203  16.293  22.627  0.00  0.00    +0.000 A 
ATOM     26 BR   UNL     1      -0.917  17.142  24.291  0.00  0.00    +0.000 Br
ATOM     27  C   UNL     1      -1.761  15.016  22.592  0.00  0.00    +0.000 A 
ENDBRANCH  11  21
BRANCH  15  28
ATOM     28  C   UNL     1       1.392   9.433  18.946  0.00  0.00    +0.000 A 
ATOM     29  C   UNL     1       2.109   9.242  17.783  0.00  0.00    +0.000 A 
ATOM     30  C   UNL     1       2.745   7.983  17.912  0.00  0.00    +0.000 A 
ATOM     31  C   UNL     1       2.377   7.491  19.142  0.00  0.00    +0.000 A 
ATOM     32  O   UNL     1       1.554   8.364  19.774  0.00  0.00    +0.000 OA
ENDBRANCH  15  28
TORSDOF 2
ENDMDL
