MODEL 1
REMARK VINA RESULT:      -9.1      0.000      0.000
REMARK  Name = 
REMARK  3 active torsions:
REMARK  status: ('A' for Active; 'I' for Inactive)
REMARK    1  A    between atoms: C_7  and  C_8
REMARK    2  A    between atoms: C_11  and  C_12
REMARK    3  A    between atoms: C_22  and  C_23
REMARK                            x       y       z     vdW  Elec       q    Type
REMARK                         _______ _______ _______ _____ _____    ______ ____
ROOT
ATOM      1  O   UNL     1       5.132   4.066  17.997  0.00  0.00    +0.000 OA
ATOM      2  C   UNL     1       4.530   5.108  18.223  0.00  0.00    +0.000 C 
ATOM      3  N   UNL     1       3.861   5.337  19.430  0.00  0.00    +0.000 N 
ATOM      4  C   UNL     1       3.060   6.474  19.368  0.00  0.00    +0.000 A 
ATOM      5  C   UNL     1       2.256   6.916  20.398  0.00  0.00    +0.000 A 
ATOM      6  C   UNL     1       1.500   8.059  20.166  0.00  0.00    +0.000 A 
ATOM      7  C   UNL     1       1.543   8.742  18.925  0.00  0.00    +0.000 A 
ATOM      8  C   UNL     1       2.371   8.234  17.881  0.00  0.00    +0.000 A 
ATOM      9  C   UNL     1       3.153   7.101  18.118  0.00  0.00    +0.000 A 
ATOM     10  C   UNL     1       4.151   6.295  17.349  0.00  0.00    +0.000 C 
ATOM     11  C   UNL     1       4.722   6.522  16.147  0.00  0.00    +0.000 C 
ATOM     12  H   UNL     1       3.909   4.707  20.210  0.00  0.00    +0.000 HD
ENDROOT
BRANCH  11  13
ATOM     13  C   UNL     1       5.728   5.643  15.643  0.00  0.00    +0.000 A 
ATOM     14  N   UNL     1       7.053   5.927  15.976  0.00  0.00    +0.000 N 
ATOM     15  C   UNL     1       7.877   5.087  15.261  0.00  0.00    +0.000 A 
ATOM     16  C   UNL     1       7.152   4.803  14.141  0.00  0.00    +0.000 A 
ATOM     17  C   UNL     1       7.626   4.427  12.896  0.00  0.00    +0.000 A 
ATOM     18  C   UNL     1       6.580   3.858  12.145  0.00  0.00    +0.000 A 
ATOM     19  C   UNL     1       5.265   3.592  12.679  0.00  0.00    +0.000 A 
ATOM     20  C   UNL     1       4.800   4.043  13.943  0.00  0.00    +0.000 A 
ATOM     21  C   UNL     1       5.814   4.712  14.618  0.00  0.00    +0.000 A 
ATOM     22  H   UNL     1       7.352   6.841  16.284  0.00  0.00    +0.000 HD
ENDBRANCH  11  13
BRANCH   7  23
ATOM     23  C   UNL     1       0.726   9.964  18.821  0.00  0.00    +0.000 A 
ATOM     24  C   UNL     1       1.173  11.252  19.031  0.00  0.00    +0.000 A 
ATOM     25  S   UNL     1      -0.105  12.374  18.807  0.00  0.00    +0.000 S 
ATOM     26  C   UNL     1      -1.187  11.088  18.404  0.00  0.00    +0.000 A 
ATOM     27  N   UNL     1      -0.631   9.892  18.470  0.00  0.00    +0.000 NA
BRANCH  26  28
ATOM     28  C   UNL     1      -2.606  11.360  18.066  0.00  0.00    +0.000 A 
ATOM     29  C   UNL     1      -3.156  11.051  16.807  0.00  0.00    +0.000 A 
ATOM     30  C   UNL     1      -4.499  11.321  16.505  0.00  0.00    +0.000 A 
ATOM     31  C   UNL     1      -5.323  11.905  17.461  0.00  0.00    +0.000 A 
ATOM     32  C   UNL     1      -4.806  12.213  18.716  0.00  0.00    +0.000 A 
ATOM     33  C   UNL     1      -3.462  11.938  19.017  0.00  0.00    +0.000 A 
ENDBRANCH  26  28
ENDBRANCH   7  23
TORSDOF 3
ENDMDL
MODEL 2
REMARK VINA RESULT:      -9.0      0.967      1.432
REMARK  Name = 
REMARK  3 active torsions:
REMARK  status: ('A' for Active; 'I' for Inactive)
REMARK    1  A    between atoms: C_7  and  C_8
REMARK    2  A    between atoms: C_11  and  C_12
REMARK    3  A    between atoms: C_22  and  C_23
REMARK                            x       y       z     vdW  Elec       q    Type
REMARK                         _______ _______ _______ _____ _____    ______ ____
ROOT
ATOM      1  O   UNL     1       4.446   4.489  19.052  0.00  0.00    +0.000 OA
ATOM      2  C   UNL     1       3.836   5.546  19.158  0.00  0.00    +0.000 C 
ATOM      3  N   UNL     1       3.048   5.844  20.274  0.00  0.00    +0.000 N 
ATOM      4  C   UNL     1       2.272   6.981  20.068  0.00  0.00    +0.000 A 
ATOM      5  C   UNL     1       1.371   7.484  20.985  0.00  0.00    +0.000 A 
ATOM      6  C   UNL     1       0.655   8.616  20.614  0.00  0.00    +0.000 A 
ATOM      7  C   UNL     1       0.834   9.230  19.350  0.00  0.00    +0.000 A 
ATOM      8  C   UNL     1       1.760   8.661  18.426  0.00  0.00    +0.000 A 
ATOM      9  C   UNL     1       2.500   7.539  18.804  0.00  0.00    +0.000 A 
ATOM     10  C   UNL     1       3.563   6.686  18.187  0.00  0.00    +0.000 C 
ATOM     11  C   UNL     1       4.258   6.844  17.039  0.00  0.00    +0.000 C 
ATOM     12  H   UNL     1       3.009   5.258  21.088  0.00  0.00    +0.000 HD
ENDROOT
BRANCH  11  13
ATOM     13  C   UNL     1       5.300   5.932  16.691  0.00  0.00    +0.000 A 
ATOM     14  N   UNL     1       6.565   6.169  17.229  0.00  0.00    +0.000 N 
ATOM     15  C   UNL     1       7.462   5.304  16.644  0.00  0.00    +0.000 A 
ATOM     16  C   UNL     1       6.913   5.049  15.422  0.00  0.00    +0.000 A 
ATOM     17  C   UNL     1       7.563   4.663  14.263  0.00  0.00    +0.000 A 
ATOM     18  C   UNL     1       6.628   4.134  13.352  0.00  0.00    +0.000 A 
ATOM     19  C   UNL     1       5.238   3.911  13.671  0.00  0.00    +0.000 A 
ATOM     20  C   UNL     1       4.596   4.373  14.851  0.00  0.00    +0.000 A 
ATOM     21  C   UNL     1       5.514   5.003  15.683  0.00  0.00    +0.000 A 
ATOM     22  H   UNL     1       6.843   7.071  17.589  0.00  0.00    +0.000 HD
ENDBRANCH  11  13
BRANCH   7  23
ATOM     23  C   UNL     1       0.047  10.450  19.096  0.00  0.00    +0.000 A 
ATOM     24  C   UNL     1       0.562  11.712  18.884  0.00  0.00    +0.000 A 
ATOM     25  S   UNL     1      -0.704  12.841  18.629  0.00  0.00    +0.000 S 
ATOM     26  C   UNL     1      -1.879  11.583  18.778  0.00  0.00    +0.000 A 
ATOM     27  N   UNL     1      -1.354  10.400  19.038  0.00  0.00    +0.000 NA
BRANCH  26  28
ATOM     28  C   UNL     1      -3.330  11.874  18.657  0.00  0.00    +0.000 A 
ATOM     29  C   UNL     1      -4.056  12.533  19.669  0.00  0.00    +0.000 A 
ATOM     30  C   UNL     1      -5.428  12.793  19.539  0.00  0.00    +0.000 A 
ATOM     31  C   UNL     1      -6.104  12.400  18.389  0.00  0.00    +0.000 A 
ATOM     32  C   UNL     1      -5.409  11.754  17.371  0.00  0.00    +0.000 A 
ATOM     33  C   UNL     1      -4.034  11.498  17.502  0.00  0.00    +0.000 A 
ENDBRANCH  26  28
ENDBRANCH   7  23
TORSDOF 3
ENDMDL
MODEL 3
REMARK VINA RESULT:      -8.9      0.529      1.084
REMARK  Name = 
REMARK  3 active torsions:
REMARK  status: ('A' for Active; 'I' for Inactive)
REMARK    1  A    between atoms: C_7  and  C_8
REMARK    2  A    between atoms: C_11  and  C_12
REMARK    3  A    between atoms: C_22  and  C_23
REMARK                            x       y       z     vdW  Elec       q    Type
REMARK                         _______ _______ _______ _____ _____    ______ ____
ROOT
ATOM      1  O   UNL     1       4.885   4.043  17.975  0.00  0.00    +0.000 OA
ATOM      2  C   UNL     1       4.337   5.108  18.233  0.00  0.00    +0.000 C 
ATOM      3  N   UNL     1       3.622   5.312  19.418  0.00  0.00    +0.000 N 
ATOM      4  C   UNL     1       2.897   6.500  19.384  0.00  0.00    +0.000 A 
ATOM      5  C   UNL     1       2.070   6.935  20.399  0.00  0.00    +0.000 A 
ATOM      6  C   UNL     1       1.397   8.134  20.198  0.00  0.00    +0.000 A 
ATOM      7  C   UNL     1       1.546   8.881  19.003  0.00  0.00    +0.000 A 
ATOM      8  C   UNL     1       2.394   8.379  17.971  0.00  0.00    +0.000 A 
ATOM      9  C   UNL     1       3.092   7.188  18.179  0.00  0.00    +0.000 A 
ATOM     10  C   UNL     1       4.077   6.363  17.412  0.00  0.00    +0.000 C 
ATOM     11  C   UNL     1       4.722   6.620  16.254  0.00  0.00    +0.000 C 
ATOM     12  H   UNL     1       3.592   4.638  20.161  0.00  0.00    +0.000 HD
ENDROOT
BRANCH  11  13
ATOM     13  C   UNL     1       5.696   5.707  15.749  0.00  0.00    +0.000 A 
ATOM     14  N   UNL     1       7.031   5.951  16.072  0.00  0.00    +0.000 N 
ATOM     15  C   UNL     1       7.824   5.082  15.357  0.00  0.00    +0.000 A 
ATOM     16  C   UNL     1       7.084   4.816  14.242  0.00  0.00    +0.000 A 
ATOM     17  C   UNL     1       7.538   4.420  12.996  0.00  0.00    +0.000 A 
ATOM     18  C   UNL     1       6.470   3.881  12.254  0.00  0.00    +0.000 A 
ATOM     19  C   UNL     1       5.151   3.658  12.796  0.00  0.00    +0.000 A 
ATOM     20  C   UNL     1       4.708   4.130  14.061  0.00  0.00    +0.000 A 
ATOM     21  C   UNL     1       5.747   4.769  14.727  0.00  0.00    +0.000 A 
ATOM     22  H   UNL     1       7.361   6.856  16.374  0.00  0.00    +0.000 HD
ENDBRANCH  11  13
BRANCH   7  23
ATOM     23  C   UNL     1       0.811  10.157  18.931  0.00  0.00    +0.000 A 
ATOM     24  C   UNL     1       1.375  11.401  18.743  0.00  0.00    +0.000 A 
ATOM     25  S   UNL     1       0.161  12.613  18.723  0.00  0.00    +0.000 S 
ATOM     26  C   UNL     1      -1.064  11.413  18.930  0.00  0.00    +0.000 A 
ATOM     27  N   UNL     1      -0.587  10.186  19.043  0.00  0.00    +0.000 NA
BRANCH  26  28
ATOM     28  C   UNL     1      -2.498  11.789  19.010  0.00  0.00    +0.000 A 
ATOM     29  C   UNL     1      -3.023  12.546  20.075  0.00  0.00    +0.000 A 
ATOM     30  C   UNL     1      -4.382  12.886  20.136  0.00  0.00    +0.000 A 
ATOM     31  C   UNL     1      -5.247  12.477  19.126  0.00  0.00    +0.000 A 
ATOM     32  C   UNL     1      -4.752  11.736  18.057  0.00  0.00    +0.000 A 
ATOM     33  C   UNL     1      -3.390  11.400  17.997  0.00  0.00    +0.000 A 
ENDBRANCH  26  28
ENDBRANCH   7  23
TORSDOF 3
ENDMDL
MODEL 4
REMARK VINA RESULT:      -8.8      1.972      3.079
REMARK  Name = 
REMARK  3 active torsions:
REMARK  status: ('A' for Active; 'I' for Inactive)
REMARK    1  A    between atoms: C_7  and  C_8
REMARK    2  A    between atoms: C_11  and  C_12
REMARK    3  A    between atoms: C_22  and  C_23
REMARK                            x       y       z     vdW  Elec       q    Type
REMARK                         _______ _______ _______ _____ _____    ______ ____
ROOT
ATOM      1  O   UNL     1       4.939   4.148  18.028  0.00  0.00    +0.000 OA
ATOM      2  C   UNL     1       4.368   5.209  18.245  0.00  0.00    +0.000 C 
ATOM      3  N   UNL     1       3.657   5.446  19.426  0.00  0.00    +0.000 N 
ATOM      4  C   UNL     1       2.903   6.614  19.348  0.00  0.00    +0.000 A 
ATOM      5  C   UNL     1       2.073   7.072  20.350  0.00  0.00    +0.000 A 
ATOM      6  C   UNL     1       1.370   8.245  20.105  0.00  0.00    +0.000 A 
ATOM      7  C   UNL     1       1.490   8.943  18.877  0.00  0.00    +0.000 A 
ATOM      8  C   UNL     1       2.342   8.419  17.861  0.00  0.00    +0.000 A 
ATOM      9  C   UNL     1       3.071   7.254  18.113  0.00  0.00    +0.000 A 
ATOM     10  C   UNL     1       4.070   6.421  17.374  0.00  0.00    +0.000 C 
ATOM     11  C   UNL     1       4.700   6.644  16.200  0.00  0.00    +0.000 C 
ATOM     12  H   UNL     1       3.649   4.805  20.197  0.00  0.00    +0.000 HD
ENDROOT
BRANCH  11  13
ATOM     13  C   UNL     1       5.692   5.734  15.725  0.00  0.00    +0.000 A 
ATOM     14  N   UNL     1       7.019   5.996  16.068  0.00  0.00    +0.000 N 
ATOM     15  C   UNL     1       7.833   5.126  15.380  0.00  0.00    +0.000 A 
ATOM     16  C   UNL     1       7.116   4.835  14.257  0.00  0.00    +0.000 A 
ATOM     17  C   UNL     1       7.596   4.426  13.025  0.00  0.00    +0.000 A 
ATOM     18  C   UNL     1       6.547   3.865  12.272  0.00  0.00    +0.000 A 
ATOM     19  C   UNL     1       5.221   3.636  12.795  0.00  0.00    +0.000 A 
ATOM     20  C   UNL     1       4.750   4.121  14.045  0.00  0.00    +0.000 A 
ATOM     21  C   UNL     1       5.771   4.781  14.719  0.00  0.00    +0.000 A 
ATOM     22  H   UNL     1       7.333   6.910  16.363  0.00  0.00    +0.000 HD
ENDBRANCH  11  13
BRANCH   7  23
ATOM     23  C   UNL     1       0.724  10.197  18.758  0.00  0.00    +0.000 A 
ATOM     24  C   UNL     1      -0.644  10.294  18.620  0.00  0.00    +0.000 A 
ATOM     25  S   UNL     1      -1.121  11.939  18.515  0.00  0.00    +0.000 S 
ATOM     26  C   UNL     1       0.522  12.444  18.694  0.00  0.00    +0.000 A 
ATOM     27  N   UNL     1       1.375  11.440  18.790  0.00  0.00    +0.000 NA
BRANCH  26  28
ATOM     28  C   UNL     1       0.884  13.883  18.689  0.00  0.00    +0.000 A 
ATOM     29  C   UNL     1      -0.078  14.906  18.795  0.00  0.00    +0.000 A 
ATOM     30  C   UNL     1       0.283  16.261  18.783  0.00  0.00    +0.000 A 
ATOM     31  C   UNL     1       1.622  16.622  18.667  0.00  0.00    +0.000 A 
ATOM     32  C   UNL     1       2.593  15.631  18.569  0.00  0.00    +0.000 A 
ATOM     33  C   UNL     1       2.229  14.275  18.585  0.00  0.00    +0.000 A 
ENDBRANCH  26  28
ENDBRANCH   7  23
TORSDOF 3
ENDMDL
MODEL 5
REMARK VINA RESULT:      -8.7      1.681      2.213
REMARK  Name = 
REMARK  3 active torsions:
REMARK  status: ('A' for Active; 'I' for Inactive)
REMARK    1  A    between atoms: C_7  and  C_8
REMARK    2  A    between atoms: C_11  and  C_12
REMARK    3  A    between atoms: C_22  and  C_23
REMARK                            x       y       z     vdW  Elec       q    Type
REMARK                         _______ _______ _______ _____ _____    ______ ____
ROOT
ATOM      1  O   UNL     1       4.900   3.776  17.791  0.00  0.00    +0.000 OA
ATOM      2  C   UNL     1       4.376   4.820  18.158  0.00  0.00    +0.000 C 
ATOM      3  N   UNL     1       3.654   4.913  19.353  0.00  0.00    +0.000 N 
ATOM      4  C   UNL     1       2.959   6.116  19.443  0.00  0.00    +0.000 A 
ATOM      5  C   UNL     1       2.133   6.460  20.493  0.00  0.00    +0.000 A 
ATOM      6  C   UNL     1       1.493   7.692  20.419  0.00  0.00    +0.000 A 
ATOM      7  C   UNL     1       1.673   8.559  19.313  0.00  0.00    +0.000 A 
ATOM      8  C   UNL     1       2.519   8.151  18.240  0.00  0.00    +0.000 A 
ATOM      9  C   UNL     1       3.184   6.926  18.322  0.00  0.00    +0.000 A 
ATOM     10  C   UNL     1       4.157   6.164  17.478  0.00  0.00    +0.000 C 
ATOM     11  C   UNL     1       4.820   6.528  16.359  0.00  0.00    +0.000 C 
ATOM     12  H   UNL     1       3.599   4.164  20.018  0.00  0.00    +0.000 HD
ENDROOT
BRANCH  11  13
ATOM     13  C   UNL     1       5.777   5.650  15.765  0.00  0.00    +0.000 A 
ATOM     14  N   UNL     1       7.126   5.929  15.985  0.00  0.00    +0.000 N 
ATOM     15  C   UNL     1       7.883   5.093  15.196  0.00  0.00    +0.000 A 
ATOM     16  C   UNL     1       7.064   4.818  14.140  0.00  0.00    +0.000 A 
ATOM     17  C   UNL     1       7.428   4.450  12.857  0.00  0.00    +0.000 A 
ATOM     18  C   UNL     1       6.320   3.889  12.195  0.00  0.00    +0.000 A 
ATOM     19  C   UNL     1       5.055   3.621  12.837  0.00  0.00    +0.000 A 
ATOM     20  C   UNL     1       4.701   4.064  14.140  0.00  0.00    +0.000 A 
ATOM     21  C   UNL     1       5.772   4.726  14.730  0.00  0.00    +0.000 A 
ATOM     22  H   UNL     1       7.452   6.841  16.273  0.00  0.00    +0.000 HD
ENDBRANCH  11  13
BRANCH   7  23
ATOM     23  C   UNL     1       0.972   9.855  19.375  0.00  0.00    +0.000 A 
ATOM     24  C   UNL     1       1.172  10.920  18.523  0.00  0.00    +0.000 A 
ATOM     25  S   UNL     1       0.150  12.230  18.950  0.00  0.00    +0.000 S 
ATOM     26  C   UNL     1      -0.538  11.298  20.232  0.00  0.00    +0.000 A 
ATOM     27  N   UNL     1      -0.006  10.094  20.352  0.00  0.00    +0.000 NA
BRANCH  26  28
ATOM     28  C   UNL     1      -1.592  11.864  21.110  0.00  0.00    +0.000 A 
ATOM     29  C   UNL     1      -1.629  11.625  22.498  0.00  0.00    +0.000 A 
ATOM     30  C   UNL     1      -2.637  12.164  23.310  0.00  0.00    +0.000 A 
ATOM     31  C   UNL     1      -3.632  12.959  22.749  0.00  0.00    +0.000 A 
ATOM     32  C   UNL     1      -3.612  13.217  21.382  0.00  0.00    +0.000 A 
ATOM     33  C   UNL     1      -2.600  12.679  20.571  0.00  0.00    +0.000 A 
ENDBRANCH  26  28
ENDBRANCH   7  23
TORSDOF 3
ENDMDL
MODEL 6
REMARK VINA RESULT:      -8.6      3.016      9.877
REMARK  Name = 
REMARK  3 active torsions:
REMARK  status: ('A' for Active; 'I' for Inactive)
REMARK    1  A    between atoms: C_7  and  C_8
REMARK    2  A    between atoms: C_11  and  C_12
REMARK    3  A    between atoms: C_22  and  C_23
REMARK                            x       y       z     vdW  Elec       q    Type
REMARK                         _______ _______ _______ _____ _____    ______ ____
ROOT
ATOM      1  O   UNL     1      -0.241   9.403  21.045  0.00  0.00    +0.000 OA
ATOM      2  C   UNL     1       0.528   8.672  20.434  0.00  0.00    +0.000 C 
ATOM      3  N   UNL     1       0.781   7.355  20.834  0.00  0.00    +0.000 N 
ATOM      4  C   UNL     1       1.854   6.804  20.139  0.00  0.00    +0.000 A 
ATOM      5  C   UNL     1       2.351   5.535  20.356  0.00  0.00    +0.000 A 
ATOM      6  C   UNL     1       3.444   5.143  19.591  0.00  0.00    +0.000 A 
ATOM      7  C   UNL     1       4.031   6.006  18.633  0.00  0.00    +0.000 A 
ATOM      8  C   UNL     1       3.497   7.317  18.460  0.00  0.00    +0.000 A 
ATOM      9  C   UNL     1       2.383   7.706  19.207  0.00  0.00    +0.000 A 
ATOM     10  C   UNL     1       1.515   8.921  19.304  0.00  0.00    +0.000 C 
ATOM     11  C   UNL     1       1.483  10.038  18.545  0.00  0.00    +0.000 C 
ATOM     12  H   UNL     1       0.286   6.906  21.581  0.00  0.00    +0.000 HD
ENDROOT
BRANCH  11  13
ATOM     13  C   UNL     1       0.497  11.044  18.777  0.00  0.00    +0.000 A 
ATOM     14  N   UNL     1      -0.611  11.063  17.929  0.00  0.00    +0.000 N 
ATOM     15  C   UNL     1      -1.348  12.195  18.191  0.00  0.00    +0.000 A 
ATOM     16  C   UNL     1      -0.423  13.077  18.670  0.00  0.00    +0.000 A 
ATOM     17  C   UNL     1      -0.473  14.460  18.640  0.00  0.00    +0.000 A 
ATOM     18  C   UNL     1       0.455  14.985  19.558  0.00  0.00    +0.000 A 
ATOM     19  C   UNL     1       1.219  14.175  20.476  0.00  0.00    +0.000 A 
ATOM     20  C   UNL     1       1.285  12.756  20.438  0.00  0.00    +0.000 A 
ATOM     21  C   UNL     1       0.454  12.263  19.440  0.00  0.00    +0.000 A 
ATOM     22  H   UNL     1      -0.608  10.620  17.021  0.00  0.00    +0.000 HD
ENDBRANCH  11  13
BRANCH   7  23
ATOM     23  C   UNL     1       5.158   5.456  17.858  0.00  0.00    +0.000 A 
ATOM     24  C   UNL     1       6.355   5.016  18.381  0.00  0.00    +0.000 A 
ATOM     25  S   UNL     1       7.386   4.455  17.129  0.00  0.00    +0.000 S 
ATOM     26  C   UNL     1       6.168   4.793  15.951  0.00  0.00    +0.000 A 
ATOM     27  N   UNL     1       5.073   5.327  16.464  0.00  0.00    +0.000 NA
BRANCH  26  28
ATOM     28  C   UNL     1       6.403   4.528  14.510  0.00  0.00    +0.000 A 
ATOM     29  C   UNL     1       5.602   3.642  13.764  0.00  0.00    +0.000 A 
ATOM     30  C   UNL     1       5.843   3.400  12.404  0.00  0.00    +0.000 A 
ATOM     31  C   UNL     1       6.894   4.045  11.758  0.00  0.00    +0.000 A 
ATOM     32  C   UNL     1       7.695   4.932  12.471  0.00  0.00    +0.000 A 
ATOM     33  C   UNL     1       7.448   5.175  13.832  0.00  0.00    +0.000 A 
ENDBRANCH  26  28
ENDBRANCH   7  23
TORSDOF 3
ENDMDL
MODEL 7
REMARK VINA RESULT:      -8.6      3.921      5.067
REMARK  Name = 
REMARK  3 active torsions:
REMARK  status: ('A' for Active; 'I' for Inactive)
REMARK    1  A    between atoms: C_7  and  C_8
REMARK    2  A    between atoms: C_11  and  C_12
REMARK    3  A    between atoms: C_22  and  C_23
REMARK                            x       y       z     vdW  Elec       q    Type
REMARK                         _______ _______ _______ _____ _____    ______ ____
ROOT
ATOM      1  O   UNL     1       3.459   6.149  17.825  0.00  0.00    +0.000 OA
ATOM      2  C   UNL     1       2.720   7.026  18.255  0.00  0.00    +0.000 C 
ATOM      3  N   UNL     1       2.401   8.166  17.509  0.00  0.00    +0.000 N 
ATOM      4  C   UNL     1       1.749   9.122  18.282  0.00  0.00    +0.000 A 
ATOM      5  C   UNL     1       1.354  10.360  17.818  0.00  0.00    +0.000 A 
ATOM      6  C   UNL     1       0.733  11.209  18.726  0.00  0.00    +0.000 A 
ATOM      7  C   UNL     1       0.518  10.829  20.074  0.00  0.00    +0.000 A 
ATOM      8  C   UNL     1       0.965   9.548  20.515  0.00  0.00    +0.000 A 
ATOM      9  C   UNL     1       1.565   8.681  19.599  0.00  0.00    +0.000 A 
ATOM     10  C   UNL     1       2.117   7.291  19.627  0.00  0.00    +0.000 C 
ATOM     11  C   UNL     1       2.078   6.351  20.596  0.00  0.00    +0.000 C 
ATOM     12  H   UNL     1       2.681   8.289  16.553  0.00  0.00    +0.000 HD
ENDROOT
BRANCH  11  13
ATOM     13  C   UNL     1       2.606   5.046  20.362  0.00  0.00    +0.000 A 
ATOM     14  N   UNL     1       3.992   4.924  20.257  0.00  0.00    +0.000 N 
ATOM     15  C   UNL     1       4.293   3.641  19.858  0.00  0.00    +0.000 A 
ATOM     16  C   UNL     1       3.186   3.253  19.161  0.00  0.00    +0.000 A 
ATOM     17  C   UNL     1       3.104   2.302  18.160  0.00  0.00    +0.000 A 
ATOM     18  C   UNL     1       1.760   1.925  17.977  0.00  0.00    +0.000 A 
ATOM     19  C   UNL     1       0.680   2.375  18.823  0.00  0.00    +0.000 A 
ATOM     20  C   UNL     1       0.796   3.396  19.805  0.00  0.00    +0.000 A 
ATOM     21  C   UNL     1       2.110   3.842  19.882  0.00  0.00    +0.000 A 
ATOM     22  H   UNL     1       4.592   5.709  20.047  0.00  0.00    +0.000 HD
ENDBRANCH  11  13
BRANCH   7  23
ATOM     23  C   UNL     1      -0.189  11.803  20.925  0.00  0.00    +0.000 A 
ATOM     24  C   UNL     1       0.331  12.994  21.387  0.00  0.00    +0.000 A 
ATOM     25  S   UNL     1      -0.828  13.823  22.344  0.00  0.00    +0.000 S 
ATOM     26  C   UNL     1      -1.981  12.566  22.066  0.00  0.00    +0.000 A 
ATOM     27  N   UNL     1      -1.512  11.573  21.332  0.00  0.00    +0.000 NA
BRANCH  26  28
ATOM     28  C   UNL     1      -3.340  12.631  22.658  0.00  0.00    +0.000 A 
ATOM     29  C   UNL     1      -4.490  12.891  21.886  0.00  0.00    +0.000 A 
ATOM     30  C   UNL     1      -5.766  12.954  22.464  0.00  0.00    +0.000 A 
ATOM     31  C   UNL     1      -5.919  12.755  23.832  0.00  0.00    +0.000 A 
ATOM     32  C   UNL     1      -4.801  12.488  24.616  0.00  0.00    +0.000 A 
ATOM     33  C   UNL     1      -3.525  12.422  24.034  0.00  0.00    +0.000 A 
ENDBRANCH  26  28
ENDBRANCH   7  23
TORSDOF 3
ENDMDL
MODEL 8
REMARK VINA RESULT:      -8.6      1.890      2.314
REMARK  Name = 
REMARK  3 active torsions:
REMARK  status: ('A' for Active; 'I' for Inactive)
REMARK    1  A    between atoms: C_7  and  C_8
REMARK    2  A    between atoms: C_11  and  C_12
REMARK    3  A    between atoms: C_22  and  C_23
REMARK                            x       y       z     vdW  Elec       q    Type
REMARK                         _______ _______ _______ _____ _____    ______ ____
ROOT
ATOM      1  O   UNL     1       5.059   3.462  17.139  0.00  0.00    +0.000 OA
ATOM      2  C   UNL     1       4.576   4.496  17.581  0.00  0.00    +0.000 C 
ATOM      3  N   UNL     1       3.876   4.535  18.792  0.00  0.00    +0.000 N 
ATOM      4  C   UNL     1       3.223   5.751  18.970  0.00  0.00    +0.000 A 
ATOM      5  C   UNL     1       2.424   6.053  20.054  0.00  0.00    +0.000 A 
ATOM      6  C   UNL     1       1.824   7.307  20.070  0.00  0.00    +0.000 A 
ATOM      7  C   UNL     1       2.015   8.237  19.018  0.00  0.00    +0.000 A 
ATOM      8  C   UNL     1       2.830   7.872  17.906  0.00  0.00    +0.000 A 
ATOM      9  C   UNL     1       3.456   6.624  17.899  0.00  0.00    +0.000 A 
ATOM     10  C   UNL     1       4.390   5.887  16.991  0.00  0.00    +0.000 C 
ATOM     11  C   UNL     1       5.047   6.300  15.886  0.00  0.00    +0.000 C 
ATOM     12  H   UNL     1       3.807   3.747  19.409  0.00  0.00    +0.000 HD
ENDROOT
BRANCH  11  13
ATOM     13  C   UNL     1       5.965   5.433  15.221  0.00  0.00    +0.000 A 
ATOM     14  N   UNL     1       7.321   5.748  15.305  0.00  0.00    +0.000 N 
ATOM     15  C   UNL     1       8.021   4.912  14.464  0.00  0.00    +0.000 A 
ATOM     16  C   UNL     1       7.113   4.596  13.497  0.00  0.00    +0.000 A 
ATOM     17  C   UNL     1       7.363   4.209  12.192  0.00  0.00    +0.000 A 
ATOM     18  C   UNL     1       6.211   3.608  11.649  0.00  0.00    +0.000 A 
ATOM     19  C   UNL     1       5.021   3.325  12.414  0.00  0.00    +0.000 A 
ATOM     20  C   UNL     1       4.781   3.787  13.736  0.00  0.00    +0.000 A 
ATOM     21  C   UNL     1       5.885   4.486  14.208  0.00  0.00    +0.000 A 
ATOM     22  H   UNL     1       7.650   6.672  15.543  0.00  0.00    +0.000 HD
ENDBRANCH  11  13
BRANCH   7  23
ATOM     23  C   UNL     1       1.357   9.548  19.175  0.00  0.00    +0.000 A 
ATOM     24  C   UNL     1       1.563  10.652  18.376  0.00  0.00    +0.000 A 
ATOM     25  S   UNL     1       0.597  11.966  18.908  0.00  0.00    +0.000 S 
ATOM     26  C   UNL     1      -0.077  10.985  20.161  0.00  0.00    +0.000 A 
ATOM     27  N   UNL     1       0.420   9.761  20.197  0.00  0.00    +0.000 NA
BRANCH  26  28
ATOM     28  C   UNL     1      -1.083  11.533  21.104  0.00  0.00    +0.000 A 
ATOM     29  C   UNL     1      -2.065  12.462  20.707  0.00  0.00    +0.000 A 
ATOM     30  C   UNL     1      -3.004  12.973  21.614  0.00  0.00    +0.000 A 
ATOM     31  C   UNL     1      -2.982  12.561  22.943  0.00  0.00    +0.000 A 
ATOM     32  C   UNL     1      -2.028  11.638  23.359  0.00  0.00    +0.000 A 
ATOM     33  C   UNL     1      -1.091  11.125  22.447  0.00  0.00    +0.000 A 
ENDBRANCH  26  28
ENDBRANCH   7  23
TORSDOF 3
ENDMDL
MODEL 9
REMARK VINA RESULT:      -8.6      2.789      9.719
REMARK  Name = 
REMARK  3 active torsions:
REMARK  status: ('A' for Active; 'I' for Inactive)
REMARK    1  A    between atoms: C_7  and  C_8
REMARK    2  A    between atoms: C_11  and  C_12
REMARK    3  A    between atoms: C_22  and  C_23
REMARK                            x       y       z     vdW  Elec       q    Type
REMARK                         _______ _______ _______ _____ _____    ______ ____
ROOT
ATOM      1  O   UNL     1      -0.364   9.676  20.731  0.00  0.00    +0.000 OA
ATOM      2  C   UNL     1       0.422   8.904  20.194  0.00  0.00    +0.000 C 
ATOM      3  N   UNL     1       0.778   7.682  20.772  0.00  0.00    +0.000 N 
ATOM      4  C   UNL     1       1.851   7.092  20.109  0.00  0.00    +0.000 A 
ATOM      5  C   UNL     1       2.439   5.902  20.487  0.00  0.00    +0.000 A 
ATOM      6  C   UNL     1       3.518   5.460  19.730  0.00  0.00    +0.000 A 
ATOM      7  C   UNL     1       4.002   6.198  18.622  0.00  0.00    +0.000 A 
ATOM      8  C   UNL     1       3.377   7.434  18.283  0.00  0.00    +0.000 A 
ATOM      9  C   UNL     1       2.277   7.869  19.024  0.00  0.00    +0.000 A 
ATOM     10  C   UNL     1       1.337   9.033  18.986  0.00  0.00    +0.000 C 
ATOM     11  C   UNL     1       1.198  10.017  18.071  0.00  0.00    +0.000 C 
ATOM     12  H   UNL     1       0.348   7.325  21.606  0.00  0.00    +0.000 HD
ENDROOT
BRANCH  11  13
ATOM     13  C   UNL     1       0.160  10.988  18.203  0.00  0.00    +0.000 A 
ATOM     14  N   UNL     1       0.358  12.017  19.124  0.00  0.00    +0.000 N 
ATOM     15  C   UNL     1      -0.809  12.739  19.237  0.00  0.00    +0.000 A 
ATOM     16  C   UNL     1      -1.779  11.832  18.924  0.00  0.00    +0.000 A 
ATOM     17  C   UNL     1      -3.105  11.837  19.320  0.00  0.00    +0.000 A 
ATOM     18  C   UNL     1      -3.848  10.976  18.491  0.00  0.00    +0.000 A 
ATOM     19  C   UNL     1      -3.304  10.320  17.326  0.00  0.00    +0.000 A 
ATOM     20  C   UNL     1      -1.925  10.295  16.984  0.00  0.00    +0.000 A 
ATOM     21  C   UNL     1      -1.191  11.051  17.890  0.00  0.00    +0.000 A 
ATOM     22  H   UNL     1       1.025  11.949  19.880  0.00  0.00    +0.000 HD
ENDBRANCH  11  13
BRANCH   7  23
ATOM     23  C   UNL     1       5.125   5.600  17.876  0.00  0.00    +0.000 A 
ATOM     24  C   UNL     1       6.293   5.118  18.430  0.00  0.00    +0.000 A 
ATOM     25  S   UNL     1       7.330   4.510  17.206  0.00  0.00    +0.000 S 
ATOM     26  C   UNL     1       6.154   4.888  15.998  0.00  0.00    +0.000 A 
ATOM     27  N   UNL     1       5.069   5.466  16.481  0.00  0.00    +0.000 NA
BRANCH  26  28
ATOM     28  C   UNL     1       6.412   4.606  14.564  0.00  0.00    +0.000 A 
ATOM     29  C   UNL     1       7.453   5.228  13.846  0.00  0.00    +0.000 A 
ATOM     30  C   UNL     1       7.678   4.953  12.490  0.00  0.00    +0.000 A 
ATOM     31  C   UNL     1       6.865   4.043  11.820  0.00  0.00    +0.000 A 
ATOM     32  C   UNL     1       5.835   3.409  12.509  0.00  0.00    +0.000 A 
ATOM     33  C   UNL     1       5.614   3.684  13.868  0.00  0.00    +0.000 A 
ENDBRANCH  26  28
ENDBRANCH   7  23
TORSDOF 3
ENDMDL
