MODEL 1
REMARK VINA RESULT:      -6.1      0.000      0.000
REMARK  Name = 
REMARK  8 active torsions:
REMARK  status: ('A' for Active; 'I' for Inactive)
REMARK    1  A    between atoms: C_1  and  C_2
REMARK    2  A    between atoms: C_2  and  O_3
REMARK    3  A    between atoms: O_3  and  C_4
REMARK    4  A    between atoms: C_6  and  C_7
REMARK    5  A    between atoms: N_8  and  O_9
REMARK    6  A    between atoms: C_13  and  O_14
REMARK    7  A    between atoms: O_14  and  C_15
REMARK    8  A    between atoms: C_15  and  C_16
REMARK                            x       y       z     vdW  Elec       q    Type
REMARK                         _______ _______ _______ _____ _____    ______ ____
ROOT
ATOM      1  C   UNL     1       4.622   4.189  18.810  0.00  0.00    +0.000 A 
ATOM      2  C   UNL     1       5.401   4.213  17.647  0.00  0.00    +0.000 A 
ATOM      3  C   UNL     1       5.275   5.253  16.736  0.00  0.00    +0.000 A 
ATOM      4  C   UNL     1       4.383   6.288  16.985  0.00  0.00    +0.000 A 
ATOM      5  C   UNL     1       3.596   6.295  18.149  0.00  0.00    +0.000 A 
ATOM      6 BR   UNL     1       2.465   7.830  18.243  0.00  0.00    +0.000 Br
ATOM      7  C   UNL     1       3.702   5.244  19.087  0.00  0.00    +0.000 A 
ENDROOT
BRANCH   3   8
ATOM      8  C   UNL     1       6.081   5.275  15.504  0.00  0.00    +0.000 C 
ATOM      9  N   UNL     1       7.339   5.576  15.517  0.00  0.00    +0.000 NA
BRANCH   9  10
ATOM     10  O   UNL     1       7.840   5.504  14.212  0.00  0.00    +0.000 OA
ATOM     11  H   UNL     1       7.646   4.581  13.964  0.00  0.00    +0.000 HD
ENDBRANCH   9  10
ENDBRANCH   3   8
BRANCH   1  12
ATOM     12  O   UNL     1       4.706   3.175  19.740  0.00  0.00    +0.000 OA
BRANCH  12  14
ATOM     13  C   UNL     1       3.267   1.746  18.394  0.00  0.00    +0.000 C 
ATOM     14  C   UNL     1       4.464   1.825  19.327  0.00  0.00    +0.000 C 
ENDBRANCH  12  14
ENDBRANCH   1  12
BRANCH   7  15
ATOM     15  O   UNL     1       3.024   5.065  20.272  0.00  0.00    +0.000 OA
BRANCH  15  16
ATOM     16  C   UNL     1       1.644   4.731  20.287  0.00  0.00    +0.000 C 
ATOM     17  C   UNL     1       1.429   3.419  21.021  0.00  0.00    +0.000 C 
ENDBRANCH  15  16
ENDBRANCH   7  15
TORSDOF 6
ENDMDL
MODEL 2
REMARK VINA RESULT:      -6.1      1.178      1.274
REMARK  Name = 
REMARK  8 active torsions:
REMARK  status: ('A' for Active; 'I' for Inactive)
REMARK    1  A    between atoms: C_1  and  C_2
REMARK    2  A    between atoms: C_2  and  O_3
REMARK    3  A    between atoms: O_3  and  C_4
REMARK    4  A    between atoms: C_6  and  C_7
REMARK    5  A    between atoms: N_8  and  O_9
REMARK    6  A    between atoms: C_13  and  O_14
REMARK    7  A    between atoms: O_14  and  C_15
REMARK    8  A    between atoms: C_15  and  C_16
REMARK                            x       y       z     vdW  Elec       q    Type
REMARK                         _______ _______ _______ _____ _____    ______ ____
ROOT
ATOM      1  C   UNL     1       3.455   3.798  17.532  0.00  0.00    +0.000 A 
ATOM      2  C   UNL     1       4.660   4.001  16.849  0.00  0.00    +0.000 A 
ATOM      3  C   UNL     1       5.140   5.286  16.633  0.00  0.00    +0.000 A 
ATOM      4  C   UNL     1       4.431   6.380  17.113  0.00  0.00    +0.000 A 
ATOM      5  C   UNL     1       3.224   6.206  17.810  0.00  0.00    +0.000 A 
ATOM      6 BR   UNL     1       2.463   7.869  18.358  0.00  0.00    +0.000 Br
ATOM      7  C   UNL     1       2.712   4.908  18.035  0.00  0.00    +0.000 A 
ENDROOT
BRANCH   3   8
ATOM      8  C   UNL     1       6.399   5.505  15.901  0.00  0.00    +0.000 C 
ATOM      9  N   UNL     1       6.519   5.212  14.647  0.00  0.00    +0.000 NA
BRANCH   9  10
ATOM     10  O   UNL     1       7.813   5.535  14.224  0.00  0.00    +0.000 OA
ATOM     11  H   UNL     1       8.253   4.665  14.215  0.00  0.00    +0.000 HD
ENDBRANCH   9  10
ENDBRANCH   3   8
BRANCH   1  12
ATOM     12  O   UNL     1       2.934   2.544  17.765  0.00  0.00    +0.000 OA
BRANCH  12  14
ATOM     13  C   UNL     1       4.253   2.130  19.768  0.00  0.00    +0.000 C 
ATOM     14  C   UNL     1       3.730   1.572  18.454  0.00  0.00    +0.000 C 
ENDBRANCH  12  14
ENDBRANCH   1  12
BRANCH   7  15
ATOM     15  O   UNL     1       1.559   4.529  18.685  0.00  0.00    +0.000 OA
BRANCH  15  16
ATOM     16  C   UNL     1       1.448   4.615  20.098  0.00  0.00    +0.000 C 
ATOM     17  C   UNL     1       0.977   3.288  20.668  0.00  0.00    +0.000 C 
ENDBRANCH  15  16
ENDBRANCH   7  15
TORSDOF 6
ENDMDL
MODEL 3
REMARK VINA RESULT:      -6.0      2.137      3.540
REMARK  Name = 
REMARK  8 active torsions:
REMARK  status: ('A' for Active; 'I' for Inactive)
REMARK    1  A    between atoms: C_1  and  C_2
REMARK    2  A    between atoms: C_2  and  O_3
REMARK    3  A    between atoms: O_3  and  C_4
REMARK    4  A    between atoms: C_6  and  C_7
REMARK    5  A    between atoms: N_8  and  O_9
REMARK    6  A    between atoms: C_13  and  O_14
REMARK    7  A    between atoms: O_14  and  C_15
REMARK    8  A    between atoms: C_15  and  C_16
REMARK                            x       y       z     vdW  Elec       q    Type
REMARK                         _______ _______ _______ _____ _____    ______ ____
ROOT
ATOM      1  C   UNL     1       3.208   6.233  18.043  0.00  0.00    +0.000 A 
ATOM      2  C   UNL     1       4.221   6.467  17.106  0.00  0.00    +0.000 A 
ATOM      3  C   UNL     1       4.915   5.407  16.538  0.00  0.00    +0.000 A 
ATOM      4  C   UNL     1       4.593   4.102  16.887  0.00  0.00    +0.000 A 
ATOM      5  C   UNL     1       3.574   3.836  17.818  0.00  0.00    +0.000 A 
ATOM      6 BR   UNL     1       3.337   1.965  18.111  0.00  0.00    +0.000 Br
ATOM      7  C   UNL     1       2.859   4.899  18.414  0.00  0.00    +0.000 A 
ENDROOT
BRANCH   3   8
ATOM      8  C   UNL     1       5.991   5.649  15.563  0.00  0.00    +0.000 C 
ATOM      9  N   UNL     1       7.109   5.000  15.606  0.00  0.00    +0.000 NA
BRANCH   9  10
ATOM     10  O   UNL     1       7.929   5.432  14.557  0.00  0.00    +0.000 OA
ATOM     11  H   UNL     1       7.414   5.175  13.770  0.00  0.00    +0.000 HD
ENDBRANCH   9  10
ENDBRANCH   3   8
BRANCH   1  12
ATOM     12  O   UNL     1       2.496   7.251  18.639  0.00  0.00    +0.000 OA
BRANCH  12  14
ATOM     13  C   UNL     1       1.338   9.392  18.686  0.00  0.00    +0.000 C 
ATOM     14  C   UNL     1       2.227   8.446  17.895  0.00  0.00    +0.000 C 
ENDBRANCH  12  14
ENDBRANCH   1  12
BRANCH   7  15
ATOM     15  O   UNL     1       1.841   4.851  19.340  0.00  0.00    +0.000 OA
BRANCH  15  16
ATOM     16  C   UNL     1       2.095   4.509  20.695  0.00  0.00    +0.000 C 
ATOM     17  C   UNL     1       1.303   3.272  21.081  0.00  0.00    +0.000 C 
ENDBRANCH  15  16
ENDBRANCH   7  15
TORSDOF 6
ENDMDL
MODEL 4
REMARK VINA RESULT:      -5.9      2.755      4.165
REMARK  Name = 
REMARK  8 active torsions:
REMARK  status: ('A' for Active; 'I' for Inactive)
REMARK    1  A    between atoms: C_1  and  C_2
REMARK    2  A    between atoms: C_2  and  O_3
REMARK    3  A    between atoms: O_3  and  C_4
REMARK    4  A    between atoms: C_6  and  C_7
REMARK    5  A    between atoms: N_8  and  O_9
REMARK    6  A    between atoms: C_13  and  O_14
REMARK    7  A    between atoms: O_14  and  C_15
REMARK    8  A    between atoms: C_15  and  C_16
REMARK                            x       y       z     vdW  Elec       q    Type
REMARK                         _______ _______ _______ _____ _____    ______ ____
ROOT
ATOM      1  C   UNL     1       4.991   5.076  18.014  0.00  0.00    +0.000 A 
ATOM      2  C   UNL     1       4.537   6.313  17.541  0.00  0.00    +0.000 A 
ATOM      3  C   UNL     1       3.420   6.916  18.104  0.00  0.00    +0.000 A 
ATOM      4  C   UNL     1       2.755   6.298  19.156  0.00  0.00    +0.000 A 
ATOM      5  C   UNL     1       3.195   5.062  19.657  0.00  0.00    +0.000 A 
ATOM      6 BR   UNL     1       2.107   4.443  21.099  0.00  0.00    +0.000 Br
ATOM      7  C   UNL     1       4.324   4.426  19.096  0.00  0.00    +0.000 A 
ENDROOT
BRANCH   3   8
ATOM      8  C   UNL     1       2.930   8.209  17.599  0.00  0.00    +0.000 C 
ATOM      9  N   UNL     1       1.884   8.784  18.098  0.00  0.00    +0.000 NA
BRANCH   9  10
ATOM     10  O   UNL     1       1.666   9.995  17.431  0.00  0.00    +0.000 OA
ATOM     11  H   UNL     1       2.403  10.018  16.793  0.00  0.00    +0.000 HD
ENDBRANCH   9  10
ENDBRANCH   3   8
BRANCH   1  12
ATOM     12  O   UNL     1       6.090   4.435  17.484  0.00  0.00    +0.000 OA
BRANCH  12  14
ATOM     13  C   UNL     1       6.103   3.900  15.110  0.00  0.00    +0.000 C 
ATOM     14  C   UNL     1       6.586   4.840  16.203  0.00  0.00    +0.000 C 
ENDBRANCH  12  14
ENDBRANCH   1  12
BRANCH   7  15
ATOM     15  O   UNL     1       4.905   3.224  19.437  0.00  0.00    +0.000 OA
BRANCH  15  16
ATOM     16  C   UNL     1       4.133   2.037  19.539  0.00  0.00    +0.000 C 
ATOM     17  C   UNL     1       3.510   1.699  18.196  0.00  0.00    +0.000 C 
ENDBRANCH  15  16
ENDBRANCH   7  15
TORSDOF 6
ENDMDL
MODEL 5
REMARK VINA RESULT:      -5.8      2.922      4.411
REMARK  Name = 
REMARK  8 active torsions:
REMARK  status: ('A' for Active; 'I' for Inactive)
REMARK    1  A    between atoms: C_1  and  C_2
REMARK    2  A    between atoms: C_2  and  O_3
REMARK    3  A    between atoms: O_3  and  C_4
REMARK    4  A    between atoms: C_6  and  C_7
REMARK    5  A    between atoms: N_8  and  O_9
REMARK    6  A    between atoms: C_13  and  O_14
REMARK    7  A    between atoms: O_14  and  C_15
REMARK    8  A    between atoms: C_15  and  C_16
REMARK                            x       y       z     vdW  Elec       q    Type
REMARK                         _______ _______ _______ _____ _____    ______ ____
ROOT
ATOM      1  C   UNL     1       2.954   5.468  19.544  0.00  0.00    +0.000 A 
ATOM      2  C   UNL     1       2.300   6.706  19.561  0.00  0.00    +0.000 A 
ATOM      3  C   UNL     1       2.555   7.651  18.576  0.00  0.00    +0.000 A 
ATOM      4  C   UNL     1       3.451   7.363  17.555  0.00  0.00    +0.000 A 
ATOM      5  C   UNL     1       4.114   6.126  17.507  0.00  0.00    +0.000 A 
ATOM      6 BR   UNL     1       5.282   5.992  16.003  0.00  0.00    +0.000 Br
ATOM      7  C   UNL     1       3.877   5.151  18.503  0.00  0.00    +0.000 A 
ENDROOT
BRANCH   3   8
ATOM      8  C   UNL     1       1.881   8.960  18.598  0.00  0.00    +0.000 C 
ATOM      9  N   UNL     1       1.992   9.801  17.621  0.00  0.00    +0.000 NA
BRANCH   9  10
ATOM     10  O   UNL     1       1.240  10.945  17.915  0.00  0.00    +0.000 OA
ATOM     11  H   UNL     1       0.961  11.244  17.030  0.00  0.00    +0.000 HD
ENDBRANCH   9  10
ENDBRANCH   3   8
BRANCH   1  12
ATOM     12  O   UNL     1       2.740   4.502  20.503  0.00  0.00    +0.000 OA
BRANCH  12  14
ATOM     13  C   UNL     1       1.410   2.717  21.486  0.00  0.00    +0.000 C 
ATOM     14  C   UNL     1       1.405   4.050  20.755  0.00  0.00    +0.000 C 
ENDBRANCH  12  14
ENDBRANCH   1  12
BRANCH   7  15
ATOM     15  O   UNL     1       4.423   3.894  18.636  0.00  0.00    +0.000 OA
BRANCH  15  16
ATOM     16  C   UNL     1       4.094   2.850  17.733  0.00  0.00    +0.000 C 
ATOM     17  C   UNL     1       3.420   1.708  18.474  0.00  0.00    +0.000 C 
ENDBRANCH  15  16
ENDBRANCH   7  15
TORSDOF 6
ENDMDL
MODEL 6
REMARK VINA RESULT:      -5.8      2.044      2.478
REMARK  Name = 
REMARK  8 active torsions:
REMARK  status: ('A' for Active; 'I' for Inactive)
REMARK    1  A    between atoms: C_1  and  C_2
REMARK    2  A    between atoms: C_2  and  O_3
REMARK    3  A    between atoms: O_3  and  C_4
REMARK    4  A    between atoms: C_6  and  C_7
REMARK    5  A    between atoms: N_8  and  O_9
REMARK    6  A    between atoms: C_13  and  O_14
REMARK    7  A    between atoms: O_14  and  C_15
REMARK    8  A    between atoms: C_15  and  C_16
REMARK                            x       y       z     vdW  Elec       q    Type
REMARK                         _______ _______ _______ _____ _____    ______ ____
ROOT
ATOM      1  C   UNL     1       4.332   4.099  17.102  0.00  0.00    +0.000 A 
ATOM      2  C   UNL     1       4.907   4.100  15.826  0.00  0.00    +0.000 A 
ATOM      3  C   UNL     1       6.201   4.567  15.636  0.00  0.00    +0.000 A 
ATOM      4  C   UNL     1       6.940   5.021  16.721  0.00  0.00    +0.000 A 
ATOM      5  C   UNL     1       6.392   5.022  18.015  0.00  0.00    +0.000 A 
ATOM      6 BR   UNL     1       7.619   5.691  19.315  0.00  0.00    +0.000 Br
ATOM      7  C   UNL     1       5.075   4.559  18.231  0.00  0.00    +0.000 A 
ENDROOT
BRANCH   3   8
ATOM      8  C   UNL     1       6.805   4.584  14.293  0.00  0.00    +0.000 C 
ATOM      9  N   UNL     1       7.652   5.495  13.937  0.00  0.00    +0.000 NA
BRANCH   9  10
ATOM     10  O   UNL     1       8.059   5.251  12.621  0.00  0.00    +0.000 OA
ATOM     11  H   UNL     1       8.806   4.637  12.744  0.00  0.00    +0.000 HD
ENDBRANCH   9  10
ENDBRANCH   3   8
BRANCH   1  12
ATOM     12  O   UNL     1       3.050   3.654  17.339  0.00  0.00    +0.000 OA
BRANCH  12  14
ATOM     13  C   UNL     1       1.764   2.045  18.638  0.00  0.00    +0.000 C 
ATOM     14  C   UNL     1       2.826   2.257  17.571  0.00  0.00    +0.000 C 
ENDBRANCH  12  14
ENDBRANCH   1  12
BRANCH   7  15
ATOM     15  O   UNL     1       4.361   4.484  19.406  0.00  0.00    +0.000 OA
BRANCH  15  16
ATOM     16  C   UNL     1       3.576   5.576  19.862  0.00  0.00    +0.000 C 
ATOM     17  C   UNL     1       2.292   5.071  20.496  0.00  0.00    +0.000 C 
ENDBRANCH  15  16
ENDBRANCH   7  15
TORSDOF 6
ENDMDL
MODEL 7
REMARK VINA RESULT:      -5.7      2.948      5.041
REMARK  Name = 
REMARK  8 active torsions:
REMARK  status: ('A' for Active; 'I' for Inactive)
REMARK    1  A    between atoms: C_1  and  C_2
REMARK    2  A    between atoms: C_2  and  O_3
REMARK    3  A    between atoms: O_3  and  C_4
REMARK    4  A    between atoms: C_6  and  C_7
REMARK    5  A    between atoms: N_8  and  O_9
REMARK    6  A    between atoms: C_13  and  O_14
REMARK    7  A    between atoms: O_14  and  C_15
REMARK    8  A    between atoms: C_15  and  C_16
REMARK                            x       y       z     vdW  Elec       q    Type
REMARK                         _______ _______ _______ _____ _____    ______ ____
ROOT
ATOM      1  C   UNL     1       5.432   4.554  16.616  0.00  0.00    +0.000 A 
ATOM      2  C   UNL     1       4.521   3.533  16.915  0.00  0.00    +0.000 A 
ATOM      3  C   UNL     1       3.288   3.832  17.478  0.00  0.00    +0.000 A 
ATOM      4  C   UNL     1       2.944   5.153  17.732  0.00  0.00    +0.000 A 
ATOM      5  C   UNL     1       3.834   6.198  17.433  0.00  0.00    +0.000 A 
ATOM      6 BR   UNL     1       3.111   7.908  17.878  0.00  0.00    +0.000 Br
ATOM      7  C   UNL     1       5.097   5.918  16.867  0.00  0.00    +0.000 A 
ENDROOT
BRANCH   3   8
ATOM      8  C   UNL     1       2.333   2.760  17.808  0.00  0.00    +0.000 C 
ATOM      9  N   UNL     1       1.110   3.016  18.142  0.00  0.00    +0.000 NA
BRANCH   9  10
ATOM     10  O   UNL     1       0.442   1.811  18.387  0.00  0.00    +0.000 OA
ATOM     11  H   UNL     1       1.175   1.169  18.424  0.00  0.00    +0.000 HD
ENDBRANCH   9  10
ENDBRANCH   3   8
BRANCH   1  12
ATOM     12  O   UNL     1       6.670   4.307  16.064  0.00  0.00    +0.000 OA
BRANCH  12  14
ATOM     13  C   UNL     1       6.009   3.870  13.762  0.00  0.00    +0.000 C 
ATOM     14  C   UNL     1       6.910   4.662  14.697  0.00  0.00    +0.000 C 
ENDBRANCH  12  14
ENDBRANCH   1  12
BRANCH   7  15
ATOM     15  O   UNL     1       6.102   6.789  16.510  0.00  0.00    +0.000 OA
BRANCH  15  16
ATOM     16  C   UNL     1       6.754   7.598  17.478  0.00  0.00    +0.000 C 
ATOM     17  C   UNL     1       7.816   6.793  18.206  0.00  0.00    +0.000 C 
ENDBRANCH  15  16
ENDBRANCH   7  15
TORSDOF 6
ENDMDL
MODEL 8
REMARK VINA RESULT:      -5.7      1.123      1.203
REMARK  Name = 
REMARK  8 active torsions:
REMARK  status: ('A' for Active; 'I' for Inactive)
REMARK    1  A    between atoms: C_1  and  C_2
REMARK    2  A    between atoms: C_2  and  O_3
REMARK    3  A    between atoms: O_3  and  C_4
REMARK    4  A    between atoms: C_6  and  C_7
REMARK    5  A    between atoms: N_8  and  O_9
REMARK    6  A    between atoms: C_13  and  O_14
REMARK    7  A    between atoms: O_14  and  C_15
REMARK    8  A    between atoms: C_15  and  C_16
REMARK                            x       y       z     vdW  Elec       q    Type
REMARK                         _______ _______ _______ _____ _____    ______ ____
ROOT
ATOM      1  C   UNL     1       3.909   4.024  17.750  0.00  0.00    +0.000 A 
ATOM      2  C   UNL     1       4.891   4.073  16.753  0.00  0.00    +0.000 A 
ATOM      3  C   UNL     1       5.212   5.275  16.138  0.00  0.00    +0.000 A 
ATOM      4  C   UNL     1       4.569   6.444  16.525  0.00  0.00    +0.000 A 
ATOM      5  C   UNL     1       3.588   6.427  17.530  0.00  0.00    +0.000 A 
ATOM      6 BR   UNL     1       2.871   8.164  17.866  0.00  0.00    +0.000 Br
ATOM      7  C   UNL     1       3.238   5.214  18.164  0.00  0.00    +0.000 A 
ENDROOT
BRANCH   3   8
ATOM      8  C   UNL     1       6.233   5.329  15.079  0.00  0.00    +0.000 C 
ATOM      9  N   UNL     1       7.451   5.688  15.323  0.00  0.00    +0.000 NA
BRANCH   9  10
ATOM     10  O   UNL     1       8.191   5.633  14.136  0.00  0.00    +0.000 OA
ATOM     11  H   UNL     1       8.656   4.781  14.218  0.00  0.00    +0.000 HD
ENDBRANCH   9  10
ENDBRANCH   3   8
BRANCH   1  12
ATOM     12  O   UNL     1       3.551   2.854  18.384  0.00  0.00    +0.000 OA
BRANCH  12  14
ATOM     13  C   UNL     1       1.313   1.949  18.700  0.00  0.00    +0.000 C 
ATOM     14  C   UNL     1       2.538   2.025  17.802  0.00  0.00    +0.000 C 
ENDBRANCH  12  14
ENDBRANCH   1  12
BRANCH   7  15
ATOM     15  O   UNL     1       2.310   4.987  19.155  0.00  0.00    +0.000 OA
BRANCH  15  16
ATOM     16  C   UNL     1       2.599   5.279  20.515  0.00  0.00    +0.000 C 
ATOM     17  C   UNL     1       2.140   4.137  21.405  0.00  0.00    +0.000 C 
ENDBRANCH  15  16
ENDBRANCH   7  15
TORSDOF 6
ENDMDL
MODEL 9
REMARK VINA RESULT:      -5.7      3.294      5.439
REMARK  Name = 
REMARK  8 active torsions:
REMARK  status: ('A' for Active; 'I' for Inactive)
REMARK    1  A    between atoms: C_1  and  C_2
REMARK    2  A    between atoms: C_2  and  O_3
REMARK    3  A    between atoms: O_3  and  C_4
REMARK    4  A    between atoms: C_6  and  C_7
REMARK    5  A    between atoms: N_8  and  O_9
REMARK    6  A    between atoms: C_13  and  O_14
REMARK    7  A    between atoms: O_14  and  C_15
REMARK    8  A    between atoms: C_15  and  C_16
REMARK                            x       y       z     vdW  Elec       q    Type
REMARK                         _______ _______ _______ _____ _____    ______ ____
ROOT
ATOM      1  C   UNL     1       5.271   6.506  17.043  0.00  0.00    +0.000 A 
ATOM      2  C   UNL     1       4.378   7.516  17.423  0.00  0.00    +0.000 A 
ATOM      3  C   UNL     1       3.087   7.200  17.826  0.00  0.00    +0.000 A 
ATOM      4  C   UNL     1       2.681   5.873  17.871  0.00  0.00    +0.000 A 
ATOM      5  C   UNL     1       3.558   4.839  17.505  0.00  0.00    +0.000 A 
ATOM      6 BR   UNL     1       2.747   3.118  17.663  0.00  0.00    +0.000 Br
ATOM      7  C   UNL     1       4.874   5.136  17.084  0.00  0.00    +0.000 A 
ENDROOT
BRANCH   3   8
ATOM      8  C   UNL     1       2.141   8.260  18.212  0.00  0.00    +0.000 C 
ATOM      9  N   UNL     1       1.923   9.288  17.458  0.00  0.00    +0.000 NA
BRANCH   9  10
ATOM     10  O   UNL     1       0.975  10.114  18.073  0.00  0.00    +0.000 OA
ATOM     11  H   UNL     1       0.254   9.490  18.274  0.00  0.00    +0.000 HD
ENDBRANCH   9  10
ENDBRANCH   3   8
BRANCH   1  12
ATOM     12  O   UNL     1       6.558   6.770  16.629  0.00  0.00    +0.000 OA
BRANCH  12  14
ATOM     13  C   UNL     1       7.862   6.448  18.660  0.00  0.00    +0.000 C 
ATOM     14  C   UNL     1       7.472   7.396  17.537  0.00  0.00    +0.000 C 
ENDBRANCH  12  14
ENDBRANCH   1  12
BRANCH   7  15
ATOM     15  O   UNL     1       5.874   4.278  16.684  0.00  0.00    +0.000 OA
BRANCH  15  16
ATOM     16  C   UNL     1       5.763   3.529  15.483  0.00  0.00    +0.000 C 
ATOM     17  C   UNL     1       6.460   4.256  14.346  0.00  0.00    +0.000 C 
ENDBRANCH  15  16
ENDBRANCH   7  15
TORSDOF 6
ENDMDL
