MODEL 1
REMARK VINA RESULT:      -7.9      0.000      0.000
REMARK  Name = 
REMARK  8 active torsions:
REMARK  status: ('A' for Active; 'I' for Inactive)
REMARK    1  A    between atoms: C_1  and  C_2
REMARK    2  A    between atoms: C_2  and  N_3
REMARK    3  A    between atoms: N_3  and  C_4
REMARK    4  A    between atoms: N_3  and  C_6
REMARK    5  A    between atoms: C_4  and  C_5
REMARK    6  A    between atoms: C_9  and  N_10
REMARK    7  A    between atoms: C_11  and  C_13
REMARK    8  A    between atoms: N_17  and  C_18
REMARK                            x       y       z     vdW  Elec       q    Type
REMARK                         _______ _______ _______ _____ _____    ______ ____
ROOT
ATOM      1  N   UNL     1       2.803   6.464  19.915  0.00  0.00    +0.000 N 
ATOM      2  C   UNL     1       2.659   5.262  19.232  0.00  0.00    +0.000 C 
ATOM      3  O   UNL     1       1.942   5.107  18.253  0.00  0.00    +0.000 OA
ATOM      4  H   UNL     1       3.501   6.522  20.640  0.00  0.00    +0.000 HD
ENDROOT
BRANCH   1   8
ATOM      5  C   UNL     1       0.860  10.138  18.913  0.00  0.00    +0.000 A 
ATOM      6  C   UNL     1       1.634   9.446  17.979  0.00  0.00    +0.000 A 
ATOM      7  C   UNL     1       2.245   8.233  18.286  0.00  0.00    +0.000 A 
ATOM      8  C   UNL     1       2.140   7.670  19.554  0.00  0.00    +0.000 A 
ATOM      9  C   UNL     1       1.357   8.332  20.503  0.00  0.00    +0.000 A 
ATOM     10  C   UNL     1       0.736   9.555  20.182  0.00  0.00    +0.000 A 
BRANCH   5  11
ATOM     11  N   UNL     1       0.219  11.346  18.588  0.00  0.00    +0.000 N 
BRANCH  11  13
ATOM     12  C   UNL     1       2.055  13.008  18.282  0.00  0.00    +0.000 C 
ATOM     13  C   UNL     1       0.850  12.577  19.099  0.00  0.00    +0.000 C 
ENDBRANCH  11  13
BRANCH  11  14
ATOM     14  C   UNL     1      -1.253  11.296  18.511  0.00  0.00    +0.000 C 
ATOM     15  C   UNL     1      -1.786  10.268  17.517  0.00  0.00    +0.000 C 
ENDBRANCH  11  14
ENDBRANCH   5  11
ENDBRANCH   1   8
BRANCH   2  16
ATOM     16  C   UNL     1       3.432   4.155  19.740  0.00  0.00    +0.000 A 
ATOM     17  C   UNL     1       3.057   3.112  20.566  0.00  0.00    +0.000 A 
ATOM     18  C   UNL     1       4.068   2.151  20.405  0.00  0.00    +0.000 A 
ATOM     19  N   UNL     1       5.043   2.562  19.597  0.00  0.00    +0.000 NA
ATOM     20  N   UNL     1       4.708   3.842  19.279  0.00  0.00    +0.000 N 
BRANCH  20  21
ATOM     21  C   UNL     1       5.626   4.662  18.559  0.00  0.00    +0.000 A 
ATOM     22  C   UNL     1       5.525   4.743  17.164  0.00  0.00    +0.000 A 
ATOM     23  C   UNL     1       6.341   5.633  16.458  0.00  0.00    +0.000 A 
ATOM     24  C   UNL     1       7.287   6.407  17.132  0.00  0.00    +0.000 A 
ATOM     25  C   UNL     1       7.431   6.284  18.512  0.00  0.00    +0.000 A 
ATOM     26  C   UNL     1       6.606   5.412  19.225  0.00  0.00    +0.000 A 
ENDBRANCH  20  21
ENDBRANCH   2  16
TORSDOF 6
ENDMDL
MODEL 2
REMARK VINA RESULT:      -7.8      0.266      1.384
REMARK  Name = 
REMARK  8 active torsions:
REMARK  status: ('A' for Active; 'I' for Inactive)
REMARK    1  A    between atoms: C_1  and  C_2
REMARK    2  A    between atoms: C_2  and  N_3
REMARK    3  A    between atoms: N_3  and  C_4
REMARK    4  A    between atoms: N_3  and  C_6
REMARK    5  A    between atoms: C_4  and  C_5
REMARK    6  A    between atoms: C_9  and  N_10
REMARK    7  A    between atoms: C_11  and  C_13
REMARK    8  A    between atoms: N_17  and  C_18
REMARK                            x       y       z     vdW  Elec       q    Type
REMARK                         _______ _______ _______ _____ _____    ______ ____
ROOT
ATOM      1  N   UNL     1       2.812   6.408  20.000  0.00  0.00    +0.000 N 
ATOM      2  C   UNL     1       2.513   5.162  19.460  0.00  0.00    +0.000 C 
ATOM      3  O   UNL     1       1.616   4.958  18.654  0.00  0.00    +0.000 OA
ATOM      4  H   UNL     1       3.638   6.497  20.570  0.00  0.00    +0.000 HD
ENDROOT
BRANCH   1   8
ATOM      5  C   UNL     1       0.670   9.954  18.942  0.00  0.00    +0.000 A 
ATOM      6  C   UNL     1       0.606   9.423  20.232  0.00  0.00    +0.000 A 
ATOM      7  C   UNL     1       1.325   8.287  20.595  0.00  0.00    +0.000 A 
ATOM      8  C   UNL     1       2.116   7.605  19.675  0.00  0.00    +0.000 A 
ATOM      9  C   UNL     1       2.212   8.124  18.381  0.00  0.00    +0.000 A 
ATOM     10  C   UNL     1       1.488   9.279  18.024  0.00  0.00    +0.000 A 
BRANCH   5  11
ATOM     11  N   UNL     1      -0.031  11.119  18.589  0.00  0.00    +0.000 N 
BRANCH  11  13
ATOM     12  C   UNL     1       1.675  12.937  18.466  0.00  0.00    +0.000 C 
ATOM     13  C   UNL     1       0.456  12.379  19.181  0.00  0.00    +0.000 C 
ENDBRANCH  11  13
BRANCH  11  14
ATOM     14  C   UNL     1      -1.484  10.961  18.382  0.00  0.00    +0.000 C 
ATOM     15  C   UNL     1      -1.846  10.067  17.199  0.00  0.00    +0.000 C 
ENDBRANCH  11  14
ENDBRANCH   5  11
ENDBRANCH   1   8
BRANCH   2  16
ATOM     16  C   UNL     1       3.347   4.071  19.899  0.00  0.00    +0.000 A 
ATOM     17  C   UNL     1       3.057   3.008  20.735  0.00  0.00    +0.000 A 
ATOM     18  C   UNL     1       4.079   2.077  20.493  0.00  0.00    +0.000 A 
ATOM     19  N   UNL     1       4.986   2.524  19.627  0.00  0.00    +0.000 NA
ATOM     20  N   UNL     1       4.596   3.798  19.350  0.00  0.00    +0.000 N 
BRANCH  20  21
ATOM     21  C   UNL     1       5.442   4.651  18.580  0.00  0.00    +0.000 A 
ATOM     22  C   UNL     1       6.450   5.380  19.222  0.00  0.00    +0.000 A 
ATOM     23  C   UNL     1       7.360   6.127  18.466  0.00  0.00    +0.000 A 
ATOM     24  C   UNL     1       7.239   6.185  17.077  0.00  0.00    +0.000 A 
ATOM     25  C   UNL     1       6.200   5.511  16.440  0.00  0.00    +0.000 A 
ATOM     26  C   UNL     1       5.300   4.748  17.187  0.00  0.00    +0.000 A 
ENDBRANCH  20  21
ENDBRANCH   2  16
TORSDOF 6
ENDMDL
MODEL 3
REMARK VINA RESULT:      -7.7      0.363      1.113
REMARK  Name = 
REMARK  8 active torsions:
REMARK  status: ('A' for Active; 'I' for Inactive)
REMARK    1  A    between atoms: C_1  and  C_2
REMARK    2  A    between atoms: C_2  and  N_3
REMARK    3  A    between atoms: N_3  and  C_4
REMARK    4  A    between atoms: N_3  and  C_6
REMARK    5  A    between atoms: C_4  and  C_5
REMARK    6  A    between atoms: C_9  and  N_10
REMARK    7  A    between atoms: C_11  and  C_13
REMARK    8  A    between atoms: N_17  and  C_18
REMARK                            x       y       z     vdW  Elec       q    Type
REMARK                         _______ _______ _______ _____ _____    ______ ____
ROOT
ATOM      1  N   UNL     1       2.768   6.491  19.966  0.00  0.00    +0.000 N 
ATOM      2  C   UNL     1       2.621   5.292  19.277  0.00  0.00    +0.000 C 
ATOM      3  O   UNL     1       1.886   5.139  18.310  0.00  0.00    +0.000 OA
ATOM      4  H   UNL     1       3.479   6.549  20.678  0.00  0.00    +0.000 HD
ENDROOT
BRANCH   1   8
ATOM      5  C   UNL     1       0.678  10.055  18.867  0.00  0.00    +0.000 A 
ATOM      6  C   UNL     1       0.572   9.516  20.151  0.00  0.00    +0.000 A 
ATOM      7  C   UNL     1       1.274   8.373  20.528  0.00  0.00    +0.000 A 
ATOM      8  C   UNL     1       2.089   7.693  19.628  0.00  0.00    +0.000 A 
ATOM      9  C   UNL     1       2.227   8.220  18.341  0.00  0.00    +0.000 A 
ATOM     10  C   UNL     1       1.520   9.381  17.970  0.00  0.00    +0.000 A 
BRANCH   5  11
ATOM     11  N   UNL     1      -0.007  11.226  18.501  0.00  0.00    +0.000 N 
BRANCH  11  13
ATOM     12  C   UNL     1      -0.079  13.233  19.981  0.00  0.00    +0.000 C 
ATOM     13  C   UNL     1       0.641  12.501  18.863  0.00  0.00    +0.000 C 
ENDBRANCH  11  13
BRANCH  11  14
ATOM     14  C   UNL     1      -1.480  11.153  18.544  0.00  0.00    +0.000 C 
ATOM     15  C   UNL     1      -2.077  10.121  17.591  0.00  0.00    +0.000 C 
ENDBRANCH  11  14
ENDBRANCH   5  11
ENDBRANCH   1   8
BRANCH   2  16
ATOM     16  C   UNL     1       3.412   4.188  19.760  0.00  0.00    +0.000 A 
ATOM     17  C   UNL     1       3.058   3.127  20.573  0.00  0.00    +0.000 A 
ATOM     18  C   UNL     1       4.080   2.182  20.388  0.00  0.00    +0.000 A 
ATOM     19  N   UNL     1       5.044   2.619  19.579  0.00  0.00    +0.000 NA
ATOM     20  N   UNL     1       4.688   3.900  19.285  0.00  0.00    +0.000 N 
BRANCH  20  21
ATOM     21  C   UNL     1       5.590   4.743  18.570  0.00  0.00    +0.000 A 
ATOM     22  C   UNL     1       5.384   4.966  17.203  0.00  0.00    +0.000 A 
ATOM     23  C   UNL     1       6.188   5.882  16.518  0.00  0.00    +0.000 A 
ATOM     24  C   UNL     1       7.225   6.542  17.180  0.00  0.00    +0.000 A 
ATOM     25  C   UNL     1       7.471   6.277  18.525  0.00  0.00    +0.000 A 
ATOM     26  C   UNL     1       6.659   5.377  19.220  0.00  0.00    +0.000 A 
ENDBRANCH  20  21
ENDBRANCH   2  16
TORSDOF 6
ENDMDL
MODEL 4
REMARK VINA RESULT:      -7.6      0.616      2.010
REMARK  Name = 
REMARK  8 active torsions:
REMARK  status: ('A' for Active; 'I' for Inactive)
REMARK    1  A    between atoms: C_1  and  C_2
REMARK    2  A    between atoms: C_2  and  N_3
REMARK    3  A    between atoms: N_3  and  C_4
REMARK    4  A    between atoms: N_3  and  C_6
REMARK    5  A    between atoms: C_4  and  C_5
REMARK    6  A    between atoms: C_9  and  N_10
REMARK    7  A    between atoms: C_11  and  C_13
REMARK    8  A    between atoms: N_17  and  C_18
REMARK                            x       y       z     vdW  Elec       q    Type
REMARK                         _______ _______ _______ _____ _____    ______ ____
ROOT
ATOM      1  N   UNL     1       2.655   6.501  20.268  0.00  0.00    +0.000 N 
ATOM      2  C   UNL     1       2.559   5.379  19.452  0.00  0.00    +0.000 C 
ATOM      3  O   UNL     1       1.837   5.303  18.468  0.00  0.00    +0.000 OA
ATOM      4  H   UNL     1       3.359   6.510  20.989  0.00  0.00    +0.000 HD
ENDROOT
BRANCH   1   8
ATOM      5  C   UNL     1       0.428  10.078  19.537  0.00  0.00    +0.000 A 
ATOM      6  C   UNL     1       0.347   9.407  20.760  0.00  0.00    +0.000 A 
ATOM      7  C   UNL     1       1.092   8.259  21.018  0.00  0.00    +0.000 A 
ATOM      8  C   UNL     1       1.929   7.706  20.054  0.00  0.00    +0.000 A 
ATOM      9  C   UNL     1       2.044   8.366  18.828  0.00  0.00    +0.000 A 
ATOM     10  C   UNL     1       1.292   9.532  18.577  0.00  0.00    +0.000 A 
BRANCH   5  11
ATOM     11  N   UNL     1      -0.301  11.253  19.293  0.00  0.00    +0.000 N 
BRANCH  11  13
ATOM     12  C   UNL     1      -1.860  10.233  17.632  0.00  0.00    +0.000 C 
ATOM     13  C   UNL     1      -1.708  11.076  18.886  0.00  0.00    +0.000 C 
ENDBRANCH  11  13
BRANCH  11  14
ATOM     14  C   UNL     1       0.458  12.375  18.708  0.00  0.00    +0.000 C 
ATOM     15  C   UNL     1      -0.372  13.638  18.492  0.00  0.00    +0.000 C 
ENDBRANCH  11  14
ENDBRANCH   5  11
ENDBRANCH   1   8
BRANCH   2  16
ATOM     16  C   UNL     1       3.392   4.261  19.822  0.00  0.00    +0.000 A 
ATOM     17  C   UNL     1       3.079   3.112  20.525  0.00  0.00    +0.000 A 
ATOM     18  C   UNL     1       4.134   2.228  20.246  0.00  0.00    +0.000 A 
ATOM     19  N   UNL     1       5.077   2.778  19.484  0.00  0.00    +0.000 NA
ATOM     20  N   UNL     1       4.675   4.068  19.319  0.00  0.00    +0.000 N 
BRANCH  20  21
ATOM     21  C   UNL     1       5.543   5.011  18.691  0.00  0.00    +0.000 A 
ATOM     22  C   UNL     1       6.705   5.423  19.356  0.00  0.00    +0.000 A 
ATOM     23  C   UNL     1       7.622   6.253  18.704  0.00  0.00    +0.000 A 
ATOM     24  C   UNL     1       7.362   6.710  17.411  0.00  0.00    +0.000 A 
ATOM     25  C   UNL     1       6.178   6.352  16.771  0.00  0.00    +0.000 A 
ATOM     26  C   UNL     1       5.267   5.507  17.408  0.00  0.00    +0.000 A 
ENDBRANCH  20  21
ENDBRANCH   2  16
TORSDOF 6
ENDMDL
MODEL 5
REMARK VINA RESULT:      -7.6      0.700      1.812
REMARK  Name = 
REMARK  8 active torsions:
REMARK  status: ('A' for Active; 'I' for Inactive)
REMARK    1  A    between atoms: C_1  and  C_2
REMARK    2  A    between atoms: C_2  and  N_3
REMARK    3  A    between atoms: N_3  and  C_4
REMARK    4  A    between atoms: N_3  and  C_6
REMARK    5  A    between atoms: C_4  and  C_5
REMARK    6  A    between atoms: C_9  and  N_10
REMARK    7  A    between atoms: C_11  and  C_13
REMARK    8  A    between atoms: N_17  and  C_18
REMARK                            x       y       z     vdW  Elec       q    Type
REMARK                         _______ _______ _______ _____ _____    ______ ____
ROOT
ATOM      1  N   UNL     1       2.634   6.638  20.123  0.00  0.00    +0.000 N 
ATOM      2  C   UNL     1       2.588   5.518  19.300  0.00  0.00    +0.000 C 
ATOM      3  O   UNL     1       1.909   5.435  18.286  0.00  0.00    +0.000 OA
ATOM      4  H   UNL     1       3.308   6.653  20.873  0.00  0.00    +0.000 HD
ENDROOT
BRANCH   1   8
ATOM      5  C   UNL     1       0.474  10.274  19.493  0.00  0.00    +0.000 A 
ATOM      6  C   UNL     1       1.287   9.728  18.497  0.00  0.00    +0.000 A 
ATOM      7  C   UNL     1       1.969   8.528  18.681  0.00  0.00    +0.000 A 
ATOM      8  C   UNL     1       1.900   7.832  19.884  0.00  0.00    +0.000 A 
ATOM      9  C   UNL     1       1.080   8.346  20.892  0.00  0.00    +0.000 A 
ATOM     10  C   UNL     1       0.387   9.557  20.695  0.00  0.00    +0.000 A 
BRANCH   5  11
ATOM     11  N   UNL     1      -0.237  11.468  19.291  0.00  0.00    +0.000 N 
BRANCH  11  13
ATOM     12  C   UNL     1      -2.017  10.975  17.612  0.00  0.00    +0.000 C 
ATOM     13  C   UNL     1      -1.686  11.332  19.051  0.00  0.00    +0.000 C 
ENDBRANCH  11  13
BRANCH  11  14
ATOM     14  C   UNL     1       0.490  12.542  18.587  0.00  0.00    +0.000 C 
ATOM     15  C   UNL     1       0.170  13.944  19.099  0.00  0.00    +0.000 C 
ENDBRANCH  11  14
ENDBRANCH   5  11
ENDBRANCH   1   8
BRANCH   2  16
ATOM     16  C   UNL     1       3.422   4.411  19.699  0.00  0.00    +0.000 A 
ATOM     17  C   UNL     1       3.092   3.241  20.359  0.00  0.00    +0.000 A 
ATOM     18  C   UNL     1       4.182   2.385  20.129  0.00  0.00    +0.000 A 
ATOM     19  N   UNL     1       5.157   2.970  19.437  0.00  0.00    +0.000 NA
ATOM     20  N   UNL     1       4.737   4.255  19.273  0.00  0.00    +0.000 N 
BRANCH  20  21
ATOM     21  C   UNL     1       5.621   5.228  18.718  0.00  0.00    +0.000 A 
ATOM     22  C   UNL     1       6.846   5.481  19.347  0.00  0.00    +0.000 A 
ATOM     23  C   UNL     1       7.770   6.344  18.749  0.00  0.00    +0.000 A 
ATOM     24  C   UNL     1       7.458   6.991  17.553  0.00  0.00    +0.000 A 
ATOM     25  C   UNL     1       6.215   6.789  16.957  0.00  0.00    +0.000 A 
ATOM     26  C   UNL     1       5.295   5.913  17.538  0.00  0.00    +0.000 A 
ENDBRANCH  20  21
ENDBRANCH   2  16
TORSDOF 6
ENDMDL
MODEL 6
REMARK VINA RESULT:      -7.6      0.501      1.116
REMARK  Name = 
REMARK  8 active torsions:
REMARK  status: ('A' for Active; 'I' for Inactive)
REMARK    1  A    between atoms: C_1  and  C_2
REMARK    2  A    between atoms: C_2  and  N_3
REMARK    3  A    between atoms: N_3  and  C_4
REMARK    4  A    between atoms: N_3  and  C_6
REMARK    5  A    between atoms: C_4  and  C_5
REMARK    6  A    between atoms: C_9  and  N_10
REMARK    7  A    between atoms: C_11  and  C_13
REMARK    8  A    between atoms: N_17  and  C_18
REMARK                            x       y       z     vdW  Elec       q    Type
REMARK                         _______ _______ _______ _____ _____    ______ ____
ROOT
ATOM      1  N   UNL     1       2.799   6.563  19.880  0.00  0.00    +0.000 N 
ATOM      2  C   UNL     1       2.563   5.335  19.273  0.00  0.00    +0.000 C 
ATOM      3  O   UNL     1       1.724   5.146  18.403  0.00  0.00    +0.000 OA
ATOM      4  H   UNL     1       3.586   6.645  20.505  0.00  0.00    +0.000 HD
ENDROOT
BRANCH   1   8
ATOM      5  C   UNL     1       0.737  10.204  19.001  0.00  0.00    +0.000 A 
ATOM      6  C   UNL     1       1.538   9.573  18.047  0.00  0.00    +0.000 A 
ATOM      7  C   UNL     1       2.188   8.370  18.314  0.00  0.00    +0.000 A 
ATOM      8  C   UNL     1       2.097   7.758  19.560  0.00  0.00    +0.000 A 
ATOM      9  C   UNL     1       1.288   8.358  20.528  0.00  0.00    +0.000 A 
ATOM     10  C   UNL     1       0.627   9.571  20.248  0.00  0.00    +0.000 A 
BRANCH   5  11
ATOM     11  N   UNL     1       0.057  11.400  18.717  0.00  0.00    +0.000 N 
BRANCH  11  13
ATOM     12  C   UNL     1       1.214  13.185  20.023  0.00  0.00    +0.000 C 
ATOM     13  C   UNL     1       0.883  12.621  18.653  0.00  0.00    +0.000 C 
ENDBRANCH  11  13
BRANCH  11  14
ATOM     14  C   UNL     1      -1.311  11.511  19.259  0.00  0.00    +0.000 C 
ATOM     15  C   UNL     1      -2.393  11.623  18.188  0.00  0.00    +0.000 C 
ENDBRANCH  11  14
ENDBRANCH   5  11
ENDBRANCH   1   8
BRANCH   2  16
ATOM     16  C   UNL     1       3.394   4.243  19.720  0.00  0.00    +0.000 A 
ATOM     17  C   UNL     1       3.073   3.135  20.482  0.00  0.00    +0.000 A 
ATOM     18  C   UNL     1       4.136   2.241  20.272  0.00  0.00    +0.000 A 
ATOM     19  N   UNL     1       5.090   2.751  19.495  0.00  0.00    +0.000 NA
ATOM     20  N   UNL     1       4.686   4.028  19.250  0.00  0.00    +0.000 N 
BRANCH  20  21
ATOM     21  C   UNL     1       5.561   4.937  18.584  0.00  0.00    +0.000 A 
ATOM     22  C   UNL     1       6.664   5.457  19.273  0.00  0.00    +0.000 A 
ATOM     23  C   UNL     1       7.593   6.255  18.597  0.00  0.00    +0.000 A 
ATOM     24  C   UNL     1       7.402   6.571  17.251  0.00  0.00    +0.000 A 
ATOM     25  C   UNL     1       6.274   6.106  16.580  0.00  0.00    +0.000 A 
ATOM     26  C   UNL     1       5.352   5.293  17.243  0.00  0.00    +0.000 A 
ENDBRANCH  20  21
ENDBRANCH   2  16
TORSDOF 6
ENDMDL
MODEL 7
REMARK VINA RESULT:      -7.5      0.442      1.544
REMARK  Name = 
REMARK  8 active torsions:
REMARK  status: ('A' for Active; 'I' for Inactive)
REMARK    1  A    between atoms: C_1  and  C_2
REMARK    2  A    between atoms: C_2  and  N_3
REMARK    3  A    between atoms: N_3  and  C_4
REMARK    4  A    between atoms: N_3  and  C_6
REMARK    5  A    between atoms: C_4  and  C_5
REMARK    6  A    between atoms: C_9  and  N_10
REMARK    7  A    between atoms: C_11  and  C_13
REMARK    8  A    between atoms: N_17  and  C_18
REMARK                            x       y       z     vdW  Elec       q    Type
REMARK                         _______ _______ _______ _____ _____    ______ ____
ROOT
ATOM      1  N   UNL     1       2.834   6.364  20.073  0.00  0.00    +0.000 N 
ATOM      2  C   UNL     1       2.594   5.150  19.441  0.00  0.00    +0.000 C 
ATOM      3  O   UNL     1       1.763   4.985  18.558  0.00  0.00    +0.000 OA
ATOM      4  H   UNL     1       3.614   6.426  20.709  0.00  0.00    +0.000 HD
ENDROOT
BRANCH   1   8
ATOM      5  C   UNL     1       0.823  10.042  19.235  0.00  0.00    +0.000 A 
ATOM      6  C   UNL     1       1.617   9.412  18.275  0.00  0.00    +0.000 A 
ATOM      7  C   UNL     1       2.251   8.198  18.528  0.00  0.00    +0.000 A 
ATOM      8  C   UNL     1       2.149   7.572  19.766  0.00  0.00    +0.000 A 
ATOM      9  C   UNL     1       1.346   8.171  20.740  0.00  0.00    +0.000 A 
ATOM     10  C   UNL     1       0.702   9.396  20.474  0.00  0.00    +0.000 A 
BRANCH   5  11
ATOM     11  N   UNL     1       0.160  11.251  18.965  0.00  0.00    +0.000 N 
BRANCH  11  13
ATOM     12  C   UNL     1      -2.261  11.859  18.952  0.00  0.00    +0.000 C 
ATOM     13  C   UNL     1      -1.123  11.145  18.244  0.00  0.00    +0.000 C 
ENDBRANCH  11  13
BRANCH  11  14
ATOM     14  C   UNL     1       1.024  12.414  18.685  0.00  0.00    +0.000 C 
ATOM     15  C   UNL     1       1.470  13.168  19.935  0.00  0.00    +0.000 C 
ENDBRANCH  11  14
ENDBRANCH   5  11
ENDBRANCH   1   8
BRANCH   2  16
ATOM     16  C   UNL     1       3.407   4.041  19.878  0.00  0.00    +0.000 A 
ATOM     17  C   UNL     1       3.094   2.980  20.707  0.00  0.00    +0.000 A 
ATOM     18  C   UNL     1       4.101   2.032  20.465  0.00  0.00    +0.000 A 
ATOM     19  N   UNL     1       5.020   2.467  19.604  0.00  0.00    +0.000 NA
ATOM     20  N   UNL     1       4.653   3.750  19.331  0.00  0.00    +0.000 N 
BRANCH  20  21
ATOM     21  C   UNL     1       5.516   4.591  18.569  0.00  0.00    +0.000 A 
ATOM     22  C   UNL     1       5.360   4.654  17.178  0.00  0.00    +0.000 A 
ATOM     23  C   UNL     1       6.120   5.562  16.433  0.00  0.00    +0.000 A 
ATOM     24  C   UNL     1       7.065   6.373  17.063  0.00  0.00    +0.000 A 
ATOM     25  C   UNL     1       7.266   6.268  18.438  0.00  0.00    +0.000 A 
ATOM     26  C   UNL     1       6.497   5.378  19.191  0.00  0.00    +0.000 A 
ENDBRANCH  20  21
ENDBRANCH   2  16
TORSDOF 6
ENDMDL
MODEL 8
REMARK VINA RESULT:      -7.5      2.176      4.000
REMARK  Name = 
REMARK  8 active torsions:
REMARK  status: ('A' for Active; 'I' for Inactive)
REMARK    1  A    between atoms: C_1  and  C_2
REMARK    2  A    between atoms: C_2  and  N_3
REMARK    3  A    between atoms: N_3  and  C_4
REMARK    4  A    between atoms: N_3  and  C_6
REMARK    5  A    between atoms: C_4  and  C_5
REMARK    6  A    between atoms: C_9  and  N_10
REMARK    7  A    between atoms: C_11  and  C_13
REMARK    8  A    between atoms: N_17  and  C_18
REMARK                            x       y       z     vdW  Elec       q    Type
REMARK                         _______ _______ _______ _____ _____    ______ ____
ROOT
ATOM      1  N   UNL     1       3.108   6.449  17.471  0.00  0.00    +0.000 N 
ATOM      2  C   UNL     1       4.473   6.476  17.205  0.00  0.00    +0.000 C 
ATOM      3  O   UNL     1       5.249   7.299  17.671  0.00  0.00    +0.000 OA
ATOM      4  H   UNL     1       2.570   5.667  17.132  0.00  0.00    +0.000 HD
ENDROOT
BRANCH   1   8
ATOM      5  C   UNL     1       1.200   9.221  20.109  0.00  0.00    +0.000 A 
ATOM      6  C   UNL     1       1.383   9.512  18.755  0.00  0.00    +0.000 A 
ATOM      7  C   UNL     1       1.975   8.603  17.882  0.00  0.00    +0.000 A 
ATOM      8  C   UNL     1       2.445   7.371  18.327  0.00  0.00    +0.000 A 
ATOM      9  C   UNL     1       2.260   7.046  19.673  0.00  0.00    +0.000 A 
ATOM     10  C   UNL     1       1.653   7.969  20.549  0.00  0.00    +0.000 A 
BRANCH   5  11
ATOM     11  N   UNL     1       0.574  10.128  20.980  0.00  0.00    +0.000 N 
BRANCH  11  13
ATOM     12  C   UNL     1      -0.055   9.586  23.333  0.00  0.00    +0.000 C 
ATOM     13  C   UNL     1      -0.461   9.570  21.870  0.00  0.00    +0.000 C 
ENDBRANCH  11  13
BRANCH  11  14
ATOM     14  C   UNL     1       0.385  11.497  20.461  0.00  0.00    +0.000 C 
ATOM     15  C   UNL     1      -1.078  11.892  20.279  0.00  0.00    +0.000 C 
ENDBRANCH  11  14
ENDBRANCH   5  11
ENDBRANCH   1   8
BRANCH   2  16
ATOM     16  C   UNL     1       4.962   5.442  16.327  0.00  0.00    +0.000 A 
ATOM     17  C   UNL     1       5.735   5.536  15.185  0.00  0.00    +0.000 A 
ATOM     18  C   UNL     1       6.226   4.236  14.981  0.00  0.00    +0.000 A 
ATOM     19  N   UNL     1       5.761   3.365  15.874  0.00  0.00    +0.000 NA
ATOM     20  N   UNL     1       4.890   4.086  16.633  0.00  0.00    +0.000 N 
BRANCH  20  21
ATOM     21  C   UNL     1       4.066   3.427  17.592  0.00  0.00    +0.000 A 
ATOM     22  C   UNL     1       4.532   3.265  18.903  0.00  0.00    +0.000 A 
ATOM     23  C   UNL     1       3.688   2.727  19.881  0.00  0.00    +0.000 A 
ATOM     24  C   UNL     1       2.400   2.309  19.546  0.00  0.00    +0.000 A 
ATOM     25  C   UNL     1       1.955   2.411  18.230  0.00  0.00    +0.000 A 
ATOM     26  C   UNL     1       2.785   2.965  17.253  0.00  0.00    +0.000 A 
ENDBRANCH  20  21
ENDBRANCH   2  16
TORSDOF 6
ENDMDL
MODEL 9
REMARK VINA RESULT:      -7.4      2.148      4.055
REMARK  Name = 
REMARK  8 active torsions:
REMARK  status: ('A' for Active; 'I' for Inactive)
REMARK    1  A    between atoms: C_1  and  C_2
REMARK    2  A    between atoms: C_2  and  N_3
REMARK    3  A    between atoms: N_3  and  C_4
REMARK    4  A    between atoms: N_3  and  C_6
REMARK    5  A    between atoms: C_4  and  C_5
REMARK    6  A    between atoms: C_9  and  N_10
REMARK    7  A    between atoms: C_11  and  C_13
REMARK    8  A    between atoms: N_17  and  C_18
REMARK                            x       y       z     vdW  Elec       q    Type
REMARK                         _______ _______ _______ _____ _____    ______ ____
ROOT
ATOM      1  N   UNL     1       3.050   6.473  17.576  0.00  0.00    +0.000 N 
ATOM      2  C   UNL     1       4.408   6.499  17.283  0.00  0.00    +0.000 C 
ATOM      3  O   UNL     1       5.197   7.314  17.741  0.00  0.00    +0.000 OA
ATOM      4  H   UNL     1       2.502   5.697  17.239  0.00  0.00    +0.000 HD
ENDROOT
BRANCH   1   8
ATOM      5  C   UNL     1       1.030   9.223  20.153  0.00  0.00    +0.000 A 
ATOM      6  C   UNL     1       1.535   8.012  20.633  0.00  0.00    +0.000 A 
ATOM      7  C   UNL     1       2.221   7.124  19.808  0.00  0.00    +0.000 A 
ATOM      8  C   UNL     1       2.407   7.388  18.455  0.00  0.00    +0.000 A 
ATOM      9  C   UNL     1       1.928   8.600  17.951  0.00  0.00    +0.000 A 
ATOM     10  C   UNL     1       1.241   9.497  18.794  0.00  0.00    +0.000 A 
BRANCH   5  11
ATOM     11  N   UNL     1       0.366  10.130  20.996  0.00  0.00    +0.000 N 
BRANCH  11  13
ATOM     12  C   UNL     1      -0.925  10.520  23.096  0.00  0.00    +0.000 C 
ATOM     13  C   UNL     1       0.106   9.671  22.373  0.00  0.00    +0.000 C 
ENDBRANCH  11  13
BRANCH  11  14
ATOM     14  C   UNL     1      -0.636  10.998  20.349  0.00  0.00    +0.000 C 
ATOM     15  C   UNL     1      -0.187  12.448  20.189  0.00  0.00    +0.000 C 
ENDBRANCH  11  14
ENDBRANCH   5  11
ENDBRANCH   1   8
BRANCH   2  16
ATOM     16  C   UNL     1       4.877   5.472  16.384  0.00  0.00    +0.000 A 
ATOM     17  C   UNL     1       5.628   5.576  15.228  0.00  0.00    +0.000 A 
ATOM     18  C   UNL     1       6.110   4.277  15.000  0.00  0.00    +0.000 A 
ATOM     19  N   UNL     1       5.657   3.398  15.892  0.00  0.00    +0.000 NA
ATOM     20  N   UNL     1       4.805   4.114  16.676  0.00  0.00    +0.000 N 
BRANCH  20  21
ATOM     21  C   UNL     1       3.996   3.447  17.643  0.00  0.00    +0.000 A 
ATOM     22  C   UNL     1       4.479   3.283  18.947  0.00  0.00    +0.000 A 
ATOM     23  C   UNL     1       3.650   2.738  19.934  0.00  0.00    +0.000 A 
ATOM     24  C   UNL     1       2.360   2.314  19.613  0.00  0.00    +0.000 A 
ATOM     25  C   UNL     1       1.898   2.419  18.303  0.00  0.00    +0.000 A 
ATOM     26  C   UNL     1       2.713   2.980  17.318  0.00  0.00    +0.000 A 
ENDBRANCH  20  21
ENDBRANCH   2  16
TORSDOF 6
ENDMDL
