MODEL 1
REMARK VINA RESULT:      -8.8      0.000      0.000
REMARK  Name = 
REMARK  8 active torsions:
REMARK  status: ('A' for Active; 'I' for Inactive)
REMARK    1  A    between atoms: C_1  and  C_2
REMARK    2  A    between atoms: C_5  and  C_6
REMARK    3  A    between atoms: C_6  and  N_7
REMARK    4  A    between atoms: N_7  and  C_8
REMARK    5  A    between atoms: C_8  and  C_9
REMARK    6  A    between atoms: C_9  and  C_10
REMARK    7  A    between atoms: N_12  and  C_13
REMARK    8  A    between atoms: C_17  and  C_18
REMARK                            x       y       z     vdW  Elec       q    Type
REMARK                         _______ _______ _______ _____ _____    ______ ____
ROOT
ATOM      1  C   UNL     1       4.285   5.621  17.454  0.00  0.00    +0.000 A 
ATOM      2  S   UNL     1       4.617   4.030  16.955  0.00  0.00    +0.000 S 
ATOM      3  C   UNL     1       3.282   3.410  17.816  0.00  0.00    +0.000 A 
ATOM      4  C   UNL     1       2.559   4.402  18.447  0.00  0.00    +0.000 A 
ATOM      5  C   UNL     1       3.151   5.704  18.251  0.00  0.00    +0.000 A 
ATOM      6  C   UNL     1       1.313   4.063  19.197  0.00  0.00    +0.000 C 
ATOM      7  C   UNL     1       1.011   2.550  19.277  0.00  0.00    +0.000 C 
ATOM      8  N   UNL     1       1.674   1.597  18.381  0.00  0.00    +0.000 NA
ATOM      9  C   UNL     1       3.000   1.946  17.867  0.00  0.00    +0.000 C 
ATOM     10  H   UNL     1       1.061   1.335  17.615  0.00  0.00    +0.000 HD
ENDROOT
BRANCH   5  11
ATOM     11  C   UNL     1       2.569   7.003  18.780  0.00  0.00    +0.000 A 
ATOM     12  N   UNL     1       2.270   7.162  20.052  0.00  0.00    +0.000 NA
ATOM     13  C   UNL     1       1.672   8.399  20.269  0.00  0.00    +0.000 A 
ATOM     14  C   UNL     1       1.200   8.911  21.478  0.00  0.00    +0.000 A 
ATOM     15  N   UNL     1       0.608  10.136  21.535  0.00  0.00    +0.000 NA
ATOM     16  C   UNL     1       0.482  10.855  20.403  0.00  0.00    +0.000 A 
ATOM     17  C   UNL     1       0.923  10.447  19.161  0.00  0.00    +0.000 A 
ATOM     18  C   UNL     1       1.532   9.186  19.124  0.00  0.00    +0.000 A 
ATOM     19  S   UNL     1       2.200   8.361  17.788  0.00  0.00    +0.000 S 
ENDBRANCH   5  11
BRANCH   1  22
ATOM     20  C   UNL     1       6.434   6.670  17.812  0.00  0.00    +0.000 C 
ATOM     21  O   UNL     1       6.778   5.954  18.747  0.00  0.00    +0.000 OA
ATOM     22  N   UNL     1       5.219   6.602  17.137  0.00  0.00    +0.000 N 
ATOM     23  H   UNL     1       5.263   6.860  16.159  0.00  0.00    +0.000 HD
BRANCH  20  24
ATOM     24  C   UNL     1       7.380   7.710  17.226  0.00  0.00    +0.000 C 
BRANCH  24  25
ATOM     25  C   UNL     1       8.247   8.329  18.324  0.00  0.00    +0.000 C 
BRANCH  25  26
ATOM     26  N   UNL     1       8.512   9.745  18.039  0.00  0.00    +0.000 NA
ATOM     27  H   UNL     1       9.044   9.850  17.177  0.00  0.00    +0.000 HD
BRANCH  26  28
ATOM     28  C   UNL     1       9.268  10.376  19.129  0.00  0.00    +0.000 C 
BRANCH  28  33
ATOM     29  C   UNL     1      10.405  15.568  18.461  0.00  0.00    +0.000 C 
ATOM     30  C   UNL     1      10.380  14.081  18.354  0.00  0.00    +0.000 A 
ATOM     31  C   UNL     1      11.119  13.270  17.519  0.00  0.00    +0.000 A 
ATOM     32  C   UNL     1      10.818  11.892  17.699  0.00  0.00    +0.000 A 
ATOM     33  C   UNL     1       9.860  11.678  18.672  0.00  0.00    +0.000 A 
ATOM     34  S   UNL     1       9.335  13.164  19.353  0.00  0.00    +0.000 S 
ENDBRANCH  28  33
ENDBRANCH  26  28
ENDBRANCH  25  26
ENDBRANCH  24  25
ENDBRANCH  20  24
ENDBRANCH   1  22
TORSDOF 7
ENDMDL
MODEL 2
REMARK VINA RESULT:      -8.7      0.981      1.232
REMARK  Name = 
REMARK  8 active torsions:
REMARK  status: ('A' for Active; 'I' for Inactive)
REMARK    1  A    between atoms: C_1  and  C_2
REMARK    2  A    between atoms: C_5  and  C_6
REMARK    3  A    between atoms: C_6  and  N_7
REMARK    4  A    between atoms: N_7  and  C_8
REMARK    5  A    between atoms: C_8  and  C_9
REMARK    6  A    between atoms: C_9  and  C_10
REMARK    7  A    between atoms: N_12  and  C_13
REMARK    8  A    between atoms: C_17  and  C_18
REMARK                            x       y       z     vdW  Elec       q    Type
REMARK                         _______ _______ _______ _____ _____    ______ ____
ROOT
ATOM      1  C   UNL     1       4.369   5.609  17.457  0.00  0.00    +0.000 A 
ATOM      2  S   UNL     1       4.782   4.011  17.051  0.00  0.00    +0.000 S 
ATOM      3  C   UNL     1       3.424   3.382  17.867  0.00  0.00    +0.000 A 
ATOM      4  C   UNL     1       2.634   4.375  18.412  0.00  0.00    +0.000 A 
ATOM      5  C   UNL     1       3.191   5.687  18.187  0.00  0.00    +0.000 A 
ATOM      6  C   UNL     1       1.361   4.024  19.109  0.00  0.00    +0.000 C 
ATOM      7  C   UNL     1       1.106   2.506  19.244  0.00  0.00    +0.000 C 
ATOM      8  N   UNL     1       1.849   1.539  18.430  0.00  0.00    +0.000 NA
ATOM      9  C   UNL     1       3.189   1.912  17.972  0.00  0.00    +0.000 C 
ATOM     10  H   UNL     1       1.288   1.221  17.646  0.00  0.00    +0.000 HD
ENDROOT
BRANCH   5  11
ATOM     11  C   UNL     1       2.537   6.986  18.622  0.00  0.00    +0.000 A 
ATOM     12  N   UNL     1       2.499   8.041  17.835  0.00  0.00    +0.000 NA
ATOM     13  C   UNL     1       1.929   9.128  18.491  0.00  0.00    +0.000 A 
ATOM     14  C   UNL     1       1.741  10.416  17.990  0.00  0.00    +0.000 A 
ATOM     15  N   UNL     1       1.191  11.393  18.762  0.00  0.00    +0.000 NA
ATOM     16  C   UNL     1       0.826  11.102  20.025  0.00  0.00    +0.000 A 
ATOM     17  C   UNL     1       0.958   9.860  20.613  0.00  0.00    +0.000 A 
ATOM     18  C   UNL     1       1.524   8.868  19.802  0.00  0.00    +0.000 A 
ATOM     19  S   UNL     1       1.832   7.231  20.174  0.00  0.00    +0.000 S 
ENDBRANCH   5  11
BRANCH   1  22
ATOM     20  C   UNL     1       6.514   6.675  17.795  0.00  0.00    +0.000 C 
ATOM     21  O   UNL     1       6.885   5.940  18.705  0.00  0.00    +0.000 OA
ATOM     22  N   UNL     1       5.285   6.608  17.144  0.00  0.00    +0.000 N 
ATOM     23  H   UNL     1       5.306   6.891  16.171  0.00  0.00    +0.000 HD
BRANCH  20  24
ATOM     24  C   UNL     1       7.436   7.739  17.215  0.00  0.00    +0.000 C 
BRANCH  24  25
ATOM     25  C   UNL     1       8.316   8.345  18.310  0.00  0.00    +0.000 C 
BRANCH  25  26
ATOM     26  N   UNL     1       8.346   9.809  18.201  0.00  0.00    +0.000 NA
ATOM     27  H   UNL     1       8.604  10.098  17.259  0.00  0.00    +0.000 HD
BRANCH  26  28
ATOM     28  C   UNL     1       9.307  10.394  19.145  0.00  0.00    +0.000 C 
BRANCH  28  33
ATOM     29  C   UNL     1      10.499  15.342  17.474  0.00  0.00    +0.000 C 
ATOM     30  C   UNL     1      10.528  13.877  17.752  0.00  0.00    +0.000 A 
ATOM     31  C   UNL     1      11.477  12.953  17.374  0.00  0.00    +0.000 A 
ATOM     32  C   UNL     1      11.161  11.640  17.820  0.00  0.00    +0.000 A 
ATOM     33  C   UNL     1       9.979  11.590  18.535  0.00  0.00    +0.000 A 
ATOM     34  S   UNL     1       9.267  13.147  18.651  0.00  0.00    +0.000 S 
ENDBRANCH  28  33
ENDBRANCH  26  28
ENDBRANCH  25  26
ENDBRANCH  24  25
ENDBRANCH  20  24
ENDBRANCH   1  22
TORSDOF 7
ENDMDL
MODEL 3
REMARK VINA RESULT:      -8.7      1.048      1.149
REMARK  Name = 
REMARK  8 active torsions:
REMARK  status: ('A' for Active; 'I' for Inactive)
REMARK    1  A    between atoms: C_1  and  C_2
REMARK    2  A    between atoms: C_5  and  C_6
REMARK    3  A    between atoms: C_6  and  N_7
REMARK    4  A    between atoms: N_7  and  C_8
REMARK    5  A    between atoms: C_8  and  C_9
REMARK    6  A    between atoms: C_9  and  C_10
REMARK    7  A    between atoms: N_12  and  C_13
REMARK    8  A    between atoms: C_17  and  C_18
REMARK                            x       y       z     vdW  Elec       q    Type
REMARK                         _______ _______ _______ _____ _____    ______ ____
ROOT
ATOM      1  C   UNL     1       4.787   5.441  18.281  0.00  0.00    +0.000 A 
ATOM      2  S   UNL     1       5.219   3.831  17.946  0.00  0.00    +0.000 S 
ATOM      3  C   UNL     1       3.646   3.268  18.285  0.00  0.00    +0.000 A 
ATOM      4  C   UNL     1       2.782   4.294  18.611  0.00  0.00    +0.000 A 
ATOM      5  C   UNL     1       3.448   5.573  18.624  0.00  0.00    +0.000 A 
ATOM      6  C   UNL     1       1.340   4.006  18.874  0.00  0.00    +0.000 C 
ATOM      7  C   UNL     1       0.978   2.504  18.856  0.00  0.00    +0.000 C 
ATOM      8  N   UNL     1       1.881   1.514  18.262  0.00  0.00    +0.000 NA
ATOM      9  C   UNL     1       3.315   1.814  18.247  0.00  0.00    +0.000 C 
ATOM     10  H   UNL     1       1.570   1.254  17.331  0.00  0.00    +0.000 HD
ENDROOT
BRANCH   5  11
ATOM     11  C   UNL     1       2.762   6.899  18.900  0.00  0.00    +0.000 A 
ATOM     12  N   UNL     1       2.223   7.171  20.070  0.00  0.00    +0.000 NA
ATOM     13  C   UNL     1       1.582   8.405  20.045  0.00  0.00    +0.000 A 
ATOM     14  C   UNL     1       0.882   9.017  21.086  0.00  0.00    +0.000 A 
ATOM     15  N   UNL     1       0.276  10.223  20.906  0.00  0.00    +0.000 NA
ATOM     16  C   UNL     1       0.361  10.826  19.705  0.00  0.00    +0.000 A 
ATOM     17  C   UNL     1       1.036  10.313  18.615  0.00  0.00    +0.000 A 
ATOM     18  C   UNL     1       1.654   9.073  18.821  0.00  0.00    +0.000 A 
ATOM     19  S   UNL     1       2.575   8.144  17.725  0.00  0.00    +0.000 S 
ENDBRANCH   5  11
BRANCH   1  22
ATOM     20  C   UNL     1       6.255   6.979  17.128  0.00  0.00    +0.000 C 
ATOM     21  O   UNL     1       5.869   6.708  15.996  0.00  0.00    +0.000 OA
ATOM     22  N   UNL     1       5.806   6.388  18.305  0.00  0.00    +0.000 N 
ATOM     23  H   UNL     1       5.814   6.998  19.114  0.00  0.00    +0.000 HD
BRANCH  20  24
ATOM     24  C   UNL     1       7.264   8.093  17.371  0.00  0.00    +0.000 C 
BRANCH  24  25
ATOM     25  C   UNL     1       8.291   7.670  18.423  0.00  0.00    +0.000 C 
BRANCH  25  26
ATOM     26  N   UNL     1       8.840   8.844  19.114  0.00  0.00    +0.000 NA
ATOM     27  H   UNL     1       8.299   9.060  19.950  0.00  0.00    +0.000 HD
BRANCH  26  28
ATOM     28  C   UNL     1       8.837  10.026  18.243  0.00  0.00    +0.000 C 
BRANCH  28  33
ATOM     29  C   UNL     1      10.608  14.901  19.580  0.00  0.00    +0.000 C 
ATOM     30  C   UNL     1      10.345  13.434  19.537  0.00  0.00    +0.000 A 
ATOM     31  C   UNL     1      10.841  12.450  20.364  0.00  0.00    +0.000 A 
ATOM     32  C   UNL     1      10.368  11.157  20.009  0.00  0.00    +0.000 A 
ATOM     33  C   UNL     1       9.516  11.180  18.921  0.00  0.00    +0.000 A 
ATOM     34  S   UNL     1       9.305  12.782  18.342  0.00  0.00    +0.000 S 
ENDBRANCH  28  33
ENDBRANCH  26  28
ENDBRANCH  25  26
ENDBRANCH  24  25
ENDBRANCH  20  24
ENDBRANCH   1  22
TORSDOF 7
ENDMDL
MODEL 4
REMARK VINA RESULT:      -8.5      1.412      1.688
REMARK  Name = 
REMARK  8 active torsions:
REMARK  status: ('A' for Active; 'I' for Inactive)
REMARK    1  A    between atoms: C_1  and  C_2
REMARK    2  A    between atoms: C_5  and  C_6
REMARK    3  A    between atoms: C_6  and  N_7
REMARK    4  A    between atoms: N_7  and  C_8
REMARK    5  A    between atoms: C_8  and  C_9
REMARK    6  A    between atoms: C_9  and  C_10
REMARK    7  A    between atoms: N_12  and  C_13
REMARK    8  A    between atoms: C_17  and  C_18
REMARK                            x       y       z     vdW  Elec       q    Type
REMARK                         _______ _______ _______ _____ _____    ______ ____
ROOT
ATOM      1  C   UNL     1       4.676   5.491  18.329  0.00  0.00    +0.000 A 
ATOM      2  S   UNL     1       5.148   3.890  18.010  0.00  0.00    +0.000 S 
ATOM      3  C   UNL     1       3.586   3.292  18.344  0.00  0.00    +0.000 A 
ATOM      4  C   UNL     1       2.696   4.299  18.657  0.00  0.00    +0.000 A 
ATOM      5  C   UNL     1       3.332   5.594  18.664  0.00  0.00    +0.000 A 
ATOM      6  C   UNL     1       1.260   3.980  18.914  0.00  0.00    +0.000 C 
ATOM      7  C   UNL     1       0.933   2.470  18.906  0.00  0.00    +0.000 C 
ATOM      8  N   UNL     1       1.863   1.497  18.325  0.00  0.00    +0.000 NA
ATOM      9  C   UNL     1       3.289   1.830  18.316  0.00  0.00    +0.000 C 
ATOM     10  H   UNL     1       1.563   1.222  17.394  0.00  0.00    +0.000 HD
ENDROOT
BRANCH   5  11
ATOM     11  C   UNL     1       2.614   6.906  18.926  0.00  0.00    +0.000 A 
ATOM     12  N   UNL     1       2.668   7.909  18.074  0.00  0.00    +0.000 NA
ATOM     13  C   UNL     1       2.006   9.024  18.579  0.00  0.00    +0.000 A 
ATOM     14  C   UNL     1       1.872  10.275  17.976  0.00  0.00    +0.000 A 
ATOM     15  N   UNL     1       1.215  11.287  18.605  0.00  0.00    +0.000 NA
ATOM     16  C   UNL     1       0.691  11.068  19.826  0.00  0.00    +0.000 A 
ATOM     17  C   UNL     1       0.757   9.868  20.505  0.00  0.00    +0.000 A 
ATOM     18  C   UNL     1       1.435   8.839  19.839  0.00  0.00    +0.000 A 
ATOM     19  S   UNL     1       1.708   7.234  20.354  0.00  0.00    +0.000 S 
ENDBRANCH   5  11
BRANCH   1  22
ATOM     20  C   UNL     1       6.184   6.983  17.167  0.00  0.00    +0.000 C 
ATOM     21  O   UNL     1       5.876   6.627  16.034  0.00  0.00    +0.000 OA
ATOM     22  N   UNL     1       5.672   6.462  18.352  0.00  0.00    +0.000 N 
ATOM     23  H   UNL     1       5.616   7.125  19.116  0.00  0.00    +0.000 HD
BRANCH  20  24
ATOM     24  C   UNL     1       7.153   8.135  17.395  0.00  0.00    +0.000 C 
BRANCH  24  25
ATOM     25  C   UNL     1       8.301   7.701  18.309  0.00  0.00    +0.000 C 
BRANCH  25  26
ATOM     26  N   UNL     1       8.826   8.847  19.063  0.00  0.00    +0.000 NA
ATOM     27  H   UNL     1       8.272   9.016  19.900  0.00  0.00    +0.000 HD
BRANCH  26  28
ATOM     28  C   UNL     1       8.818  10.069  18.249  0.00  0.00    +0.000 C 
BRANCH  28  33
ATOM     29  C   UNL     1      11.816  14.415  19.155  0.00  0.00    +0.000 C 
ATOM     30  C   UNL     1      11.070  13.132  19.302  0.00  0.00    +0.000 A 
ATOM     31  C   UNL     1      10.968  12.324  20.414  0.00  0.00    +0.000 A 
ATOM     32  C   UNL     1      10.170  11.172  20.172  0.00  0.00    +0.000 A 
ATOM     33  C   UNL     1       9.674  11.127  18.883  0.00  0.00    +0.000 A 
ATOM     34  S   UNL     1      10.192  12.491  17.979  0.00  0.00    +0.000 S 
ENDBRANCH  28  33
ENDBRANCH  26  28
ENDBRANCH  25  26
ENDBRANCH  24  25
ENDBRANCH  20  24
ENDBRANCH   1  22
TORSDOF 7
ENDMDL
MODEL 5
REMARK VINA RESULT:      -8.1      1.092      1.232
REMARK  Name = 
REMARK  8 active torsions:
REMARK  status: ('A' for Active; 'I' for Inactive)
REMARK    1  A    between atoms: C_1  and  C_2
REMARK    2  A    between atoms: C_5  and  C_6
REMARK    3  A    between atoms: C_6  and  N_7
REMARK    4  A    between atoms: N_7  and  C_8
REMARK    5  A    between atoms: C_8  and  C_9
REMARK    6  A    between atoms: C_9  and  C_10
REMARK    7  A    between atoms: N_12  and  C_13
REMARK    8  A    between atoms: C_17  and  C_18
REMARK                            x       y       z     vdW  Elec       q    Type
REMARK                         _______ _______ _______ _____ _____    ______ ____
ROOT
ATOM      1  C   UNL     1       4.404   5.714  17.466  0.00  0.00    +0.000 A 
ATOM      2  S   UNL     1       4.802   4.126  17.006  0.00  0.00    +0.000 S 
ATOM      3  C   UNL     1       3.451   3.480  17.820  0.00  0.00    +0.000 A 
ATOM      4  C   UNL     1       2.675   4.460  18.406  0.00  0.00    +0.000 A 
ATOM      5  C   UNL     1       3.236   5.775  18.214  0.00  0.00    +0.000 A 
ATOM      6  C   UNL     1       1.408   4.095  19.109  0.00  0.00    +0.000 C 
ATOM      7  C   UNL     1       1.146   2.575  19.200  0.00  0.00    +0.000 C 
ATOM      8  N   UNL     1       1.873   1.629  18.347  0.00  0.00    +0.000 NA
ATOM      9  C   UNL     1       3.209   2.009  17.883  0.00  0.00    +0.000 C 
ATOM     10  H   UNL     1       1.300   1.339  17.561  0.00  0.00    +0.000 HD
ENDROOT
BRANCH   5  11
ATOM     11  C   UNL     1       2.596   7.064  18.698  0.00  0.00    +0.000 A 
ATOM     12  N   UNL     1       2.273   7.247  19.962  0.00  0.00    +0.000 NA
ATOM     13  C   UNL     1       1.623   8.465  20.135  0.00  0.00    +0.000 A 
ATOM     14  C   UNL     1       1.114   8.991  21.323  0.00  0.00    +0.000 A 
ATOM     15  N   UNL     1       0.474  10.192  21.337  0.00  0.00    +0.000 NA
ATOM     16  C   UNL     1       0.335  10.874  20.184  0.00  0.00    +0.000 A 
ATOM     17  C   UNL     1       0.810  10.449  18.959  0.00  0.00    +0.000 A 
ATOM     18  C   UNL     1       1.468   9.213  18.967  0.00  0.00    +0.000 A 
ATOM     19  S   UNL     1       2.188   8.379  17.663  0.00  0.00    +0.000 S 
ENDBRANCH   5  11
BRANCH   1  22
ATOM     20  C   UNL     1       6.600   6.694  17.724  0.00  0.00    +0.000 C 
ATOM     21  O   UNL     1       7.021   5.869  18.528  0.00  0.00    +0.000 OA
ATOM     22  N   UNL     1       5.322   6.717  17.173  0.00  0.00    +0.000 N 
ATOM     23  H   UNL     1       5.274   7.089  16.231  0.00  0.00    +0.000 HD
BRANCH  20  24
ATOM     24  C   UNL     1       7.504   7.787  17.170  0.00  0.00    +0.000 C 
BRANCH  24  25
ATOM     25  C   UNL     1       8.157   8.575  18.308  0.00  0.00    +0.000 C 
BRANCH  25  26
ATOM     26  N   UNL     1       8.195  10.008  17.991  0.00  0.00    +0.000 NA
ATOM     27  H   UNL     1       7.949  10.172  17.017  0.00  0.00    +0.000 HD
BRANCH  26  28
ATOM     28  C   UNL     1       9.529  10.572  18.233  0.00  0.00    +0.000 C 
BRANCH  28  33
ATOM     29  C   UNL     1       9.392  14.067  22.291  0.00  0.00    +0.000 C 
ATOM     30  C   UNL     1       9.356  13.437  20.939  0.00  0.00    +0.000 A 
ATOM     31  C   UNL     1       9.119  14.037  19.722  0.00  0.00    +0.000 A 
ATOM     32  C   UNL     1       9.158  13.109  18.645  0.00  0.00    +0.000 A 
ATOM     33  C   UNL     1       9.429  11.820  19.063  0.00  0.00    +0.000 A 
ATOM     34  S   UNL     1       9.630  11.756  20.766  0.00  0.00    +0.000 S 
ENDBRANCH  28  33
ENDBRANCH  26  28
ENDBRANCH  25  26
ENDBRANCH  24  25
ENDBRANCH  20  24
ENDBRANCH   1  22
TORSDOF 7
ENDMDL
MODEL 6
REMARK VINA RESULT:      -8.0      1.423      1.745
REMARK  Name = 
REMARK  8 active torsions:
REMARK  status: ('A' for Active; 'I' for Inactive)
REMARK    1  A    between atoms: C_1  and  C_2
REMARK    2  A    between atoms: C_5  and  C_6
REMARK    3  A    between atoms: C_6  and  N_7
REMARK    4  A    between atoms: N_7  and  C_8
REMARK    5  A    between atoms: C_8  and  C_9
REMARK    6  A    between atoms: C_9  and  C_10
REMARK    7  A    between atoms: N_12  and  C_13
REMARK    8  A    between atoms: C_17  and  C_18
REMARK                            x       y       z     vdW  Elec       q    Type
REMARK                         _______ _______ _______ _____ _____    ______ ____
ROOT
ATOM      1  C   UNL     1       4.575   5.616  17.336  0.00  0.00    +0.000 A 
ATOM      2  S   UNL     1       5.007   4.018  16.951  0.00  0.00    +0.000 S 
ATOM      3  C   UNL     1       3.643   3.384  17.754  0.00  0.00    +0.000 A 
ATOM      4  C   UNL     1       2.838   4.375  18.279  0.00  0.00    +0.000 A 
ATOM      5  C   UNL     1       3.386   5.689  18.050  0.00  0.00    +0.000 A 
ATOM      6  C   UNL     1       1.558   4.019  18.963  0.00  0.00    +0.000 C 
ATOM      7  C   UNL     1       1.316   2.500  19.107  0.00  0.00    +0.000 C 
ATOM      8  N   UNL     1       2.078   1.532  18.313  0.00  0.00    +0.000 NA
ATOM      9  C   UNL     1       3.421   1.913  17.870  0.00  0.00    +0.000 C 
ATOM     10  H   UNL     1       1.531   1.202  17.524  0.00  0.00    +0.000 HD
ENDROOT
BRANCH   5  11
ATOM     11  C   UNL     1       2.714   6.987  18.464  0.00  0.00    +0.000 A 
ATOM     12  N   UNL     1       2.726   8.052  17.690  0.00  0.00    +0.000 NA
ATOM     13  C   UNL     1       2.125   9.133  18.327  0.00  0.00    +0.000 A 
ATOM     14  C   UNL     1       1.972  10.429  17.832  0.00  0.00    +0.000 A 
ATOM     15  N   UNL     1       1.384  11.399  18.585  0.00  0.00    +0.000 NA
ATOM     16  C   UNL     1       0.946  11.093  19.821  0.00  0.00    +0.000 A 
ATOM     17  C   UNL     1       1.039   9.843  20.399  0.00  0.00    +0.000 A 
ATOM     18  C   UNL     1       1.644   8.859  19.608  0.00  0.00    +0.000 A 
ATOM     19  S   UNL     1       1.923   7.216  19.976  0.00  0.00    +0.000 S 
ENDBRANCH   5  11
BRANCH   1  22
ATOM     20  C   UNL     1       6.691   6.724  17.716  0.00  0.00    +0.000 C 
ATOM     21  O   UNL     1       7.042   6.020  18.657  0.00  0.00    +0.000 OA
ATOM     22  N   UNL     1       5.486   6.620  17.027  0.00  0.00    +0.000 N 
ATOM     23  H   UNL     1       5.536   6.877  16.048  0.00  0.00    +0.000 HD
BRANCH  20  24
ATOM     24  C   UNL     1       7.616   7.786  17.138  0.00  0.00    +0.000 C 
BRANCH  24  25
ATOM     25  C   UNL     1       7.500   9.090  17.929  0.00  0.00    +0.000 C 
BRANCH  25  26
ATOM     26  N   UNL     1       8.759   9.391  18.622  0.00  0.00    +0.000 NA
ATOM     27  H   UNL     1       8.616   9.450  19.628  0.00  0.00    +0.000 HD
BRANCH  26  28
ATOM     28  C   UNL     1       9.331  10.663  18.161  0.00  0.00    +0.000 C 
BRANCH  28  33
ATOM     29  C   UNL     1       9.332  15.027  21.267  0.00  0.00    +0.000 C 
ATOM     30  C   UNL     1       9.490  13.639  20.746  0.00  0.00    +0.000 A 
ATOM     31  C   UNL     1      10.000  12.534  21.392  0.00  0.00    +0.000 A 
ATOM     32  C   UNL     1       9.997  11.376  20.567  0.00  0.00    +0.000 A 
ATOM     33  C   UNL     1       9.479  11.619  19.309  0.00  0.00    +0.000 A 
ATOM     34  S   UNL     1       9.005  13.260  19.147  0.00  0.00    +0.000 S 
ENDBRANCH  28  33
ENDBRANCH  26  28
ENDBRANCH  25  26
ENDBRANCH  24  25
ENDBRANCH  20  24
ENDBRANCH   1  22
TORSDOF 7
ENDMDL
MODEL 7
REMARK VINA RESULT:      -7.7      1.124      1.328
REMARK  Name = 
REMARK  8 active torsions:
REMARK  status: ('A' for Active; 'I' for Inactive)
REMARK    1  A    between atoms: C_1  and  C_2
REMARK    2  A    between atoms: C_5  and  C_6
REMARK    3  A    between atoms: C_6  and  N_7
REMARK    4  A    between atoms: N_7  and  C_8
REMARK    5  A    between atoms: C_8  and  C_9
REMARK    6  A    between atoms: C_9  and  C_10
REMARK    7  A    between atoms: N_12  and  C_13
REMARK    8  A    between atoms: C_17  and  C_18
REMARK                            x       y       z     vdW  Elec       q    Type
REMARK                         _______ _______ _______ _____ _____    ______ ____
ROOT
ATOM      1  C   UNL     1       4.822   5.514  18.262  0.00  0.00    +0.000 A 
ATOM      2  S   UNL     1       5.274   3.926  17.857  0.00  0.00    +0.000 S 
ATOM      3  C   UNL     1       3.702   3.334  18.145  0.00  0.00    +0.000 A 
ATOM      4  C   UNL     1       2.823   4.334  18.507  0.00  0.00    +0.000 A 
ATOM      5  C   UNL     1       3.477   5.618  18.592  0.00  0.00    +0.000 A 
ATOM      6  C   UNL     1       1.380   4.022  18.735  0.00  0.00    +0.000 C 
ATOM      7  C   UNL     1       1.032   2.519  18.638  0.00  0.00    +0.000 C 
ATOM      8  N   UNL     1       1.954   1.567  18.011  0.00  0.00    +0.000 NA
ATOM      9  C   UNL     1       3.385   1.880  18.032  0.00  0.00    +0.000 C 
ATOM     10  H   UNL     1       1.658   1.350  17.064  0.00  0.00    +0.000 HD
ENDROOT
BRANCH   5  11
ATOM     11  C   UNL     1       2.774   6.923  18.921  0.00  0.00    +0.000 A 
ATOM     12  N   UNL     1       2.261   7.153  20.112  0.00  0.00    +0.000 NA
ATOM     13  C   UNL     1       1.596   8.375  20.137  0.00  0.00    +0.000 A 
ATOM     14  C   UNL     1       0.912   8.945  21.211  0.00  0.00    +0.000 A 
ATOM     15  N   UNL     1       0.281  10.144  21.080  0.00  0.00    +0.000 NA
ATOM     16  C   UNL     1       0.325  10.781  19.894  0.00  0.00    +0.000 A 
ATOM     17  C   UNL     1       0.981  10.310  18.775  0.00  0.00    +0.000 A 
ATOM     18  C   UNL     1       1.626   9.077  18.931  0.00  0.00    +0.000 A 
ATOM     19  S   UNL     1       2.535   8.196  17.786  0.00  0.00    +0.000 S 
ENDBRANCH   5  11
BRANCH   1  22
ATOM     20  C   UNL     1       7.141   6.092  18.631  0.00  0.00    +0.000 C 
ATOM     21  O   UNL     1       7.524   4.954  18.879  0.00  0.00    +0.000 OA
ATOM     22  N   UNL     1       5.831   6.467  18.348  0.00  0.00    +0.000 N 
ATOM     23  H   UNL     1       5.744   7.252  17.712  0.00  0.00    +0.000 HD
BRANCH  20  24
ATOM     24  C   UNL     1       8.124   7.251  18.534  0.00  0.00    +0.000 C 
BRANCH  24  25
ATOM     25  C   UNL     1       7.654   8.272  17.497  0.00  0.00    +0.000 C 
BRANCH  25  26
ATOM     26  N   UNL     1       7.784   9.639  18.017  0.00  0.00    +0.000 NA
ATOM     27  H   UNL     1       7.208  10.288  17.484  0.00  0.00    +0.000 HD
BRANCH  26  28
ATOM     28  C   UNL     1       9.177  10.101  17.958  0.00  0.00    +0.000 C 
BRANCH  28  33
ATOM     29  C   UNL     1      10.243  14.546  20.752  0.00  0.00    +0.000 C 
ATOM     30  C   UNL     1       9.953  13.138  20.354  0.00  0.00    +0.000 A 
ATOM     31  C   UNL     1       9.859  12.023  21.157  0.00  0.00    +0.000 A 
ATOM     32  C   UNL     1       9.574  10.844  20.415  0.00  0.00    +0.000 A 
ATOM     33  C   UNL     1       9.450  11.085  19.059  0.00  0.00    +0.000 A 
ATOM     34  S   UNL     1       9.689  12.748  18.707  0.00  0.00    +0.000 S 
ENDBRANCH  28  33
ENDBRANCH  26  28
ENDBRANCH  25  26
ENDBRANCH  24  25
ENDBRANCH  20  24
ENDBRANCH   1  22
TORSDOF 7
ENDMDL
MODEL 8
REMARK VINA RESULT:      -7.5      5.322     10.061
REMARK  Name = 
REMARK  8 active torsions:
REMARK  status: ('A' for Active; 'I' for Inactive)
REMARK    1  A    between atoms: C_1  and  C_2
REMARK    2  A    between atoms: C_5  and  C_6
REMARK    3  A    between atoms: C_6  and  N_7
REMARK    4  A    between atoms: N_7  and  C_8
REMARK    5  A    between atoms: C_8  and  C_9
REMARK    6  A    between atoms: C_9  and  C_10
REMARK    7  A    between atoms: N_12  and  C_13
REMARK    8  A    between atoms: C_17  and  C_18
REMARK                            x       y       z     vdW  Elec       q    Type
REMARK                         _______ _______ _______ _____ _____    ______ ____
ROOT
ATOM      1  C   UNL     1       0.674  12.341  20.368  0.00  0.00    +0.000 A 
ATOM      2  S   UNL     1       2.115  13.186  20.684  0.00  0.00    +0.000 S 
ATOM      3  C   UNL     1       1.567  14.567  19.849  0.00  0.00    +0.000 A 
ATOM      4  C   UNL     1       0.284  14.412  19.365  0.00  0.00    +0.000 A 
ATOM      5  C   UNL     1      -0.244  13.101  19.654  0.00  0.00    +0.000 A 
ATOM      6  C   UNL     1      -0.396  15.541  18.662  0.00  0.00    +0.000 C 
ATOM      7  C   UNL     1       0.494  16.786  18.450  0.00  0.00    +0.000 C 
ATOM      8  N   UNL     1       1.739  16.965  19.204  0.00  0.00    +0.000 NA
ATOM      9  C   UNL     1       2.439  15.765  19.668  0.00  0.00    +0.000 C 
ATOM     10  H   UNL     1       1.604  17.611  19.975  0.00  0.00    +0.000 HD
ENDROOT
BRANCH   5  11
ATOM     11  C   UNL     1      -1.644  12.637  19.295  0.00  0.00    +0.000 A 
ATOM     12  N   UNL     1      -2.684  12.920  20.051  0.00  0.00    +0.000 NA
ATOM     13  C   UNL     1      -3.834  12.311  19.559  0.00  0.00    +0.000 A 
ATOM     14  C   UNL     1      -5.118  12.363  20.103  0.00  0.00    +0.000 A 
ATOM     15  N   UNL     1      -6.150  11.690  19.524  0.00  0.00    +0.000 NA
ATOM     16  C   UNL     1      -5.918  10.967  18.411  0.00  0.00    +0.000 A 
ATOM     17  C   UNL     1      -4.690  10.859  17.788  0.00  0.00    +0.000 A 
ATOM     18  C   UNL     1      -3.643  11.561  18.398  0.00  0.00    +0.000 A 
ATOM     19  S   UNL     1      -2.009  11.671  17.917  0.00  0.00    +0.000 S 
ENDBRANCH   5  11
BRANCH   1  22
ATOM     20  C   UNL     1       0.115  10.608  21.959  0.00  0.00    +0.000 C 
ATOM     21  O   UNL     1      -0.274  11.361  22.845  0.00  0.00    +0.000 OA
ATOM     22  N   UNL     1       0.626  10.998  20.724  0.00  0.00    +0.000 N 
ATOM     23  H   UNL     1       0.437  10.353  19.966  0.00  0.00    +0.000 HD
BRANCH  20  24
ATOM     24  C   UNL     1       0.007   9.096  22.106  0.00  0.00    +0.000 C 
BRANCH  24  25
ATOM     25  C   UNL     1       0.483   8.395  20.832  0.00  0.00    +0.000 C 
BRANCH  25  26
ATOM     26  N   UNL     1       1.869   7.934  20.980  0.00  0.00    +0.000 NA
ATOM     27  H   UNL     1       2.493   8.715  21.175  0.00  0.00    +0.000 HD
BRANCH  26  28
ATOM     28  C   UNL     1       2.339   7.259  19.763  0.00  0.00    +0.000 C 
BRANCH  28  33
ATOM     29  C   UNL     1       1.412   2.128  18.536  0.00  0.00    +0.000 C 
ATOM     30  C   UNL     1       1.598   3.417  19.263  0.00  0.00    +0.000 A 
ATOM     31  C   UNL     1       1.476   3.664  20.613  0.00  0.00    +0.000 A 
ATOM     32  C   UNL     1       1.725   5.026  20.937  0.00  0.00    +0.000 A 
ATOM     33  C   UNL     1       2.038   5.790  19.829  0.00  0.00    +0.000 A 
ATOM     34  S   UNL     1       2.020   4.836  18.402  0.00  0.00    +0.000 S 
ENDBRANCH  28  33
ENDBRANCH  26  28
ENDBRANCH  25  26
ENDBRANCH  24  25
ENDBRANCH  20  24
ENDBRANCH   1  22
TORSDOF 7
ENDMDL
MODEL 9
REMARK VINA RESULT:      -7.4      3.400      5.306
REMARK  Name = 
REMARK  8 active torsions:
REMARK  status: ('A' for Active; 'I' for Inactive)
REMARK    1  A    between atoms: C_1  and  C_2
REMARK    2  A    between atoms: C_5  and  C_6
REMARK    3  A    between atoms: C_6  and  N_7
REMARK    4  A    between atoms: N_7  and  C_8
REMARK    5  A    between atoms: C_8  and  C_9
REMARK    6  A    between atoms: C_9  and  C_10
REMARK    7  A    between atoms: N_12  and  C_13
REMARK    8  A    between atoms: C_17  and  C_18
REMARK                            x       y       z     vdW  Elec       q    Type
REMARK                         _______ _______ _______ _____ _____    ______ ____
ROOT
ATOM      1  C   UNL     1       4.377   5.244  18.480  0.00  0.00    +0.000 A 
ATOM      2  S   UNL     1       4.696   3.605  18.159  0.00  0.00    +0.000 S 
ATOM      3  C   UNL     1       3.158   3.127  18.715  0.00  0.00    +0.000 A 
ATOM      4  C   UNL     1       2.384   4.202  19.106  0.00  0.00    +0.000 A 
ATOM      5  C   UNL     1       3.099   5.449  18.984  0.00  0.00    +0.000 A 
ATOM      6  C   UNL     1       0.978   3.990  19.560  0.00  0.00    +0.000 C 
ATOM      7  C   UNL     1       0.554   2.506  19.648  0.00  0.00    +0.000 C 
ATOM      8  N   UNL     1       1.333   1.456  18.986  0.00  0.00    +0.000 NA
ATOM      9  C   UNL     1       2.765   1.689  18.778  0.00  0.00    +0.000 C 
ATOM     10  H   UNL     1       0.895   1.178  18.113  0.00  0.00    +0.000 HD
ENDROOT
BRANCH   5  11
ATOM     11  C   UNL     1       2.509   6.814  19.290  0.00  0.00    +0.000 A 
ATOM     12  N   UNL     1       2.041   7.115  20.484  0.00  0.00    +0.000 NA
ATOM     13  C   UNL     1       1.476   8.387  20.487  0.00  0.00    +0.000 A 
ATOM     14  C   UNL     1       0.862   9.037  21.558  0.00  0.00    +0.000 A 
ATOM     15  N   UNL     1       0.325  10.279  21.406  0.00  0.00    +0.000 NA
ATOM     16  C   UNL     1       0.393  10.879  20.202  0.00  0.00    +0.000 A 
ATOM     17  C   UNL     1       0.986  10.328  19.084  0.00  0.00    +0.000 A 
ATOM     18  C   UNL     1       1.535   9.052  19.262  0.00  0.00    +0.000 A 
ATOM     19  S   UNL     1       2.347   8.072  18.125  0.00  0.00    +0.000 S 
ENDBRANCH   5  11
BRANCH   1  22
ATOM     20  C   UNL     1       6.669   5.883  18.912  0.00  0.00    +0.000 C 
ATOM     21  O   UNL     1       6.946   4.916  19.616  0.00  0.00    +0.000 OA
ATOM     22  N   UNL     1       5.428   6.143  18.338  0.00  0.00    +0.000 N 
ATOM     23  H   UNL     1       5.467   6.631  17.451  0.00  0.00    +0.000 HD
BRANCH  20  24
ATOM     24  C   UNL     1       7.730   6.904  18.523  0.00  0.00    +0.000 C 
BRANCH  24  25
ATOM     25  C   UNL     1       7.479   7.429  17.108  0.00  0.00    +0.000 C 
BRANCH  25  26
ATOM     26  N   UNL     1       7.828   6.412  16.108  0.00  0.00    +0.000 NA
ATOM     27  H   UNL     1       8.000   6.840  15.200  0.00  0.00    +0.000 HD
BRANCH  26  28
ATOM     28  C   UNL     1       6.755   5.422  15.957  0.00  0.00    +0.000 C 
BRANCH  28  33
ATOM     29  C   UNL     1       5.591   2.664  11.514  0.00  0.00    +0.000 C 
ATOM     30  C   UNL     1       6.225   3.572  12.513  0.00  0.00    +0.000 A 
ATOM     31  C   UNL     1       7.353   4.351  12.367  0.00  0.00    +0.000 A 
ATOM     32  C   UNL     1       7.659   5.084  13.546  0.00  0.00    +0.000 A 
ATOM     33  C   UNL     1       6.756   4.854  14.567  0.00  0.00    +0.000 A 
ATOM     34  S   UNL     1       5.545   3.742  14.075  0.00  0.00    +0.000 S 
ENDBRANCH  28  33
ENDBRANCH  26  28
ENDBRANCH  25  26
ENDBRANCH  24  25
ENDBRANCH  20  24
ENDBRANCH   1  22
TORSDOF 7
ENDMDL
