MODEL 1
REMARK VINA RESULT:      -8.8      0.000      0.000
REMARK  Name = 
REMARK  7 active torsions:
REMARK  status: ('A' for Active; 'I' for Inactive)
REMARK    1  A    between atoms: C_1  and  N_2
REMARK    2  A    between atoms: N_2  and  S_3
REMARK    3  A    between atoms: S_3  and  C_6
REMARK    4  A    between atoms: C_9  and  O_10
REMARK    5  A    between atoms: O_10  and  C_11
REMARK    6  A    between atoms: C_15  and  N_16
REMARK    7  A    between atoms: N_16  and  C_17
REMARK                            x       y       z     vdW  Elec       q    Type
REMARK                         _______ _______ _______ _____ _____    ______ ____
ROOT
ATOM      1  C   UNL     1       5.606   4.869  17.871  0.00  0.00    +0.000 A 
ATOM      2  C   UNL     1       5.002   3.809  17.216  0.00  0.00    +0.000 A 
ATOM      3  C   UNL     1       3.634   3.612  17.402  0.00  0.00    +0.000 A 
ATOM      4  C   UNL     1       2.856   4.483  18.200  0.00  0.00    +0.000 A 
ATOM      5  C   UNL     1       3.473   5.554  18.870  0.00  0.00    +0.000 A 
ATOM      6  C   UNL     1       4.862   5.699  18.710  0.00  0.00    +0.000 A 
ENDROOT
BRANCH   1   7
ATOM      7  S   UNL     1       7.320   5.249  17.639  0.00  0.00    +0.000 S 
ATOM      8  O   UNL     1       7.853   4.350  16.646  0.00  0.00    +0.000 OA
ATOM      9  O   UNL     1       7.903   5.387  18.954  0.00  0.00    +0.000 OA
BRANCH   7  11
ATOM     10  C   UNL     1       7.810   7.897  17.739  0.00  0.00    +0.000 C 
ATOM     11  N   UNL     1       7.238   6.799  16.960  0.00  0.00    +0.000 NA
ATOM     12  H   UNL     1       7.494   6.787  15.972  0.00  0.00    +0.000 HD
ENDBRANCH   7  11
ENDBRANCH   1   7
BRANCH   5  13
ATOM     13  N   UNL     1       2.796   6.460  19.702  0.00  0.00    +0.000 N 
ATOM     14  H   UNL     1       2.415   6.097  20.561  0.00  0.00    +0.000 HD
BRANCH  13  15
ATOM     15  C   UNL     1       2.179   7.682  19.366  0.00  0.00    +0.000 A 
ATOM     16  N   UNL     1       2.243   8.193  18.107  0.00  0.00    +0.000 NA
ATOM     17  C   UNL     1       1.634   9.364  17.842  0.00  0.00    +0.000 A 
ATOM     18  N   UNL     1       0.948  10.148  18.686  0.00  0.00    +0.000 NA
ATOM     19  C   UNL     1       0.898   9.612  19.913  0.00  0.00    +0.000 A 
ATOM     20  N   UNL     1       0.286  10.191  20.989  0.00  0.00    +0.000 N 
ATOM     21  C   UNL     1       0.402   9.373  22.083  0.00  0.00    +0.000 A 
ATOM     22  C   UNL     1       1.112   8.254  21.700  0.00  0.00    +0.000 A 
ATOM     23  C   UNL     1       1.449   8.407  20.325  0.00  0.00    +0.000 A 
ATOM     24  H   UNL     1      -0.164  11.095  20.959  0.00  0.00    +0.000 HD
ENDBRANCH  13  15
ENDBRANCH   5  13
BRANCH   4  25
ATOM     25  O   UNL     1       1.559   4.065  18.268  0.00  0.00    +0.000 OA
BRANCH  25  26
ATOM     26  C   UNL     1       1.039   3.332  19.360  0.00  0.00    +0.000 C 
ATOM     27  F   UNL     1       0.385   4.077  20.270  0.00  0.00    +0.000 F 
ATOM     28  F   UNL     1       0.187   2.393  18.898  0.00  0.00    +0.000 F 
ATOM     29  F   UNL     1       2.060   2.707  19.986  0.00  0.00    +0.000 F 
ENDBRANCH  25  26
ENDBRANCH   4  25
TORSDOF 6
ENDMDL
MODEL 2
REMARK VINA RESULT:      -8.6      0.635      1.040
REMARK  Name = 
REMARK  7 active torsions:
REMARK  status: ('A' for Active; 'I' for Inactive)
REMARK    1  A    between atoms: C_1  and  N_2
REMARK    2  A    between atoms: N_2  and  S_3
REMARK    3  A    between atoms: S_3  and  C_6
REMARK    4  A    between atoms: C_9  and  O_10
REMARK    5  A    between atoms: O_10  and  C_11
REMARK    6  A    between atoms: C_15  and  N_16
REMARK    7  A    between atoms: N_16  and  C_17
REMARK                            x       y       z     vdW  Elec       q    Type
REMARK                         _______ _______ _______ _____ _____    ______ ____
ROOT
ATOM      1  C   UNL     1       5.243   5.000  17.091  0.00  0.00    +0.000 A 
ATOM      2  C   UNL     1       4.551   3.907  16.597  0.00  0.00    +0.000 A 
ATOM      3  C   UNL     1       3.254   3.685  17.058  0.00  0.00    +0.000 A 
ATOM      4  C   UNL     1       2.626   4.561  17.975  0.00  0.00    +0.000 A 
ATOM      5  C   UNL     1       3.335   5.666  18.481  0.00  0.00    +0.000 A 
ATOM      6  C   UNL     1       4.659   5.837  18.041  0.00  0.00    +0.000 A 
ENDROOT
BRANCH   1   7
ATOM      7  S   UNL     1       6.864   5.413  16.510  0.00  0.00    +0.000 S 
ATOM      8  O   UNL     1       6.834   5.450  15.070  0.00  0.00    +0.000 OA
ATOM      9  O   UNL     1       7.797   4.589  17.246  0.00  0.00    +0.000 OA
BRANCH   7  11
ATOM     10  C   UNL     1       7.951   7.207  18.203  0.00  0.00    +0.000 C 
ATOM     11  N   UNL     1       7.038   7.000  17.078  0.00  0.00    +0.000 NA
ATOM     12  H   UNL     1       7.140   7.662  16.307  0.00  0.00    +0.000 HD
ENDBRANCH   7  11
ENDBRANCH   1   7
BRANCH   5  13
ATOM     13  N   UNL     1       2.811   6.580  19.408  0.00  0.00    +0.000 N 
ATOM     14  H   UNL     1       2.552   6.218  20.312  0.00  0.00    +0.000 HD
BRANCH  13  15
ATOM     15  C   UNL     1       2.184   7.821  19.174  0.00  0.00    +0.000 A 
ATOM     16  N   UNL     1       2.246   8.436  17.963  0.00  0.00    +0.000 NA
ATOM     17  C   UNL     1       1.627   9.619  17.796  0.00  0.00    +0.000 A 
ATOM     18  N   UNL     1       0.933  10.324  18.701  0.00  0.00    +0.000 NA
ATOM     19  C   UNL     1       0.885   9.686  19.878  0.00  0.00    +0.000 A 
ATOM     20  N   UNL     1       0.266  10.168  20.997  0.00  0.00    +0.000 N 
ATOM     21  C   UNL     1       0.388   9.262  22.020  0.00  0.00    +0.000 A 
ATOM     22  C   UNL     1       1.108   8.186  21.546  0.00  0.00    +0.000 A 
ATOM     23  C   UNL     1       1.446   8.456  20.189  0.00  0.00    +0.000 A 
ATOM     24  H   UNL     1      -0.192  11.068  21.042  0.00  0.00    +0.000 HD
ENDBRANCH  13  15
ENDBRANCH   5  13
BRANCH   4  25
ATOM     25  O   UNL     1       1.382   4.115  18.312  0.00  0.00    +0.000 OA
BRANCH  25  26
ATOM     26  C   UNL     1       1.125   3.337  19.465  0.00  0.00    +0.000 C 
ATOM     27  F   UNL     1       2.216   2.764  20.005  0.00  0.00    +0.000 F 
ATOM     28  F   UNL     1       0.553   4.116  20.406  0.00  0.00    +0.000 F 
ATOM     29  F   UNL     1       0.255   2.356  19.139  0.00  0.00    +0.000 F 
ENDBRANCH  25  26
ENDBRANCH   4  25
TORSDOF 6
ENDMDL
MODEL 3
REMARK VINA RESULT:      -8.6      0.837      1.169
REMARK  Name = 
REMARK  7 active torsions:
REMARK  status: ('A' for Active; 'I' for Inactive)
REMARK    1  A    between atoms: C_1  and  N_2
REMARK    2  A    between atoms: N_2  and  S_3
REMARK    3  A    between atoms: S_3  and  C_6
REMARK    4  A    between atoms: C_9  and  O_10
REMARK    5  A    between atoms: O_10  and  C_11
REMARK    6  A    between atoms: C_15  and  N_16
REMARK    7  A    between atoms: N_16  and  C_17
REMARK                            x       y       z     vdW  Elec       q    Type
REMARK                         _______ _______ _______ _____ _____    ______ ____
ROOT
ATOM      1  C   UNL     1       5.620   4.927  17.879  0.00  0.00    +0.000 A 
ATOM      2  C   UNL     1       5.018   3.839  17.270  0.00  0.00    +0.000 A 
ATOM      3  C   UNL     1       3.660   3.624  17.498  0.00  0.00    +0.000 A 
ATOM      4  C   UNL     1       2.887   4.504  18.292  0.00  0.00    +0.000 A 
ATOM      5  C   UNL     1       3.503   5.605  18.916  0.00  0.00    +0.000 A 
ATOM      6  C   UNL     1       4.885   5.768  18.714  0.00  0.00    +0.000 A 
ENDROOT
BRANCH   1   7
ATOM      7  S   UNL     1       7.321   5.328  17.590  0.00  0.00    +0.000 S 
ATOM      8  O   UNL     1       8.082   4.105  17.590  0.00  0.00    +0.000 OA
ATOM      9  O   UNL     1       7.643   6.443  18.452  0.00  0.00    +0.000 OA
BRANCH   7  11
ATOM     10  C   UNL     1       7.157   4.933  14.929  0.00  0.00    +0.000 C 
ATOM     11  N   UNL     1       7.267   5.920  16.003  0.00  0.00    +0.000 NA
ATOM     12  H   UNL     1       6.637   6.720  15.925  0.00  0.00    +0.000 HD
ENDBRANCH   7  11
ENDBRANCH   1   7
BRANCH   5  13
ATOM     13  N   UNL     1       2.832   6.522  19.739  0.00  0.00    +0.000 N 
ATOM     14  H   UNL     1       2.478   6.177  20.616  0.00  0.00    +0.000 HD
BRANCH  13  15
ATOM     15  C   UNL     1       2.189   7.726  19.385  0.00  0.00    +0.000 A 
ATOM     16  N   UNL     1       2.263   8.233  18.126  0.00  0.00    +0.000 NA
ATOM     17  C   UNL     1       1.627   9.386  17.844  0.00  0.00    +0.000 A 
ATOM     18  N   UNL     1       0.904  10.154  18.672  0.00  0.00    +0.000 NA
ATOM     19  C   UNL     1       0.845   9.622  19.900  0.00  0.00    +0.000 A 
ATOM     20  N   UNL     1       0.197  10.188  20.961  0.00  0.00    +0.000 N 
ATOM     21  C   UNL     1       0.315   9.378  22.061  0.00  0.00    +0.000 A 
ATOM     22  C   UNL     1       1.062   8.278  21.696  0.00  0.00    +0.000 A 
ATOM     23  C   UNL     1       1.421   8.434  20.327  0.00  0.00    +0.000 A 
ATOM     24  H   UNL     1      -0.277  11.080  20.918  0.00  0.00    +0.000 HD
ENDBRANCH  13  15
ENDBRANCH   5  13
BRANCH   4  25
ATOM     25  O   UNL     1       1.600   4.066  18.407  0.00  0.00    +0.000 OA
BRANCH  25  26
ATOM     26  C   UNL     1       1.113   3.386  19.547  0.00  0.00    +0.000 C 
ATOM     27  F   UNL     1       0.176   2.457  19.284  0.00  0.00    +0.000 F 
ATOM     28  F   UNL     1       2.142   2.778  20.173  0.00  0.00    +0.000 F 
ATOM     29  F   UNL     1       0.578   4.293  20.394  0.00  0.00    +0.000 F 
ENDBRANCH  25  26
ENDBRANCH   4  25
TORSDOF 6
ENDMDL
MODEL 4
REMARK VINA RESULT:      -8.3      1.397      1.924
REMARK  Name = 
REMARK  7 active torsions:
REMARK  status: ('A' for Active; 'I' for Inactive)
REMARK    1  A    between atoms: C_1  and  N_2
REMARK    2  A    between atoms: N_2  and  S_3
REMARK    3  A    between atoms: S_3  and  C_6
REMARK    4  A    between atoms: C_9  and  O_10
REMARK    5  A    between atoms: O_10  and  C_11
REMARK    6  A    between atoms: C_15  and  N_16
REMARK    7  A    between atoms: N_16  and  C_17
REMARK                            x       y       z     vdW  Elec       q    Type
REMARK                         _______ _______ _______ _____ _____    ______ ____
ROOT
ATOM      1  C   UNL     1       4.967   4.570  16.785  0.00  0.00    +0.000 A 
ATOM      2  C   UNL     1       4.114   3.519  16.495  0.00  0.00    +0.000 A 
ATOM      3  C   UNL     1       2.887   3.466  17.155  0.00  0.00    +0.000 A 
ATOM      4  C   UNL     1       2.485   4.469  18.068  0.00  0.00    +0.000 A 
ATOM      5  C   UNL     1       3.357   5.531  18.366  0.00  0.00    +0.000 A 
ATOM      6  C   UNL     1       4.610   5.533  17.728  0.00  0.00    +0.000 A 
ENDROOT
BRANCH   1   7
ATOM      7  S   UNL     1       6.513   4.769  15.944  0.00  0.00    +0.000 S 
ATOM      8  O   UNL     1       7.575   4.451  16.865  0.00  0.00    +0.000 OA
ATOM      9  O   UNL     1       6.449   6.028  15.236  0.00  0.00    +0.000 OA
BRANCH   7  11
ATOM     10  C   UNL     1       6.366   3.946  13.381  0.00  0.00    +0.000 C 
ATOM     11  N   UNL     1       6.432   3.536  14.784  0.00  0.00    +0.000 NA
ATOM     12  H   UNL     1       7.097   2.789  14.988  0.00  0.00    +0.000 HD
ENDBRANCH   7  11
ENDBRANCH   1   7
BRANCH   5  13
ATOM     13  N   UNL     1       3.064   6.563  19.271  0.00  0.00    +0.000 N 
ATOM     14  H   UNL     1       3.045   6.322  20.249  0.00  0.00    +0.000 HD
BRANCH  13  15
ATOM     15  C   UNL     1       2.375   7.772  19.046  0.00  0.00    +0.000 A 
ATOM     16  N   UNL     1       2.499   8.460  17.880  0.00  0.00    +0.000 NA
ATOM     17  C   UNL     1       1.816   9.608  17.719  0.00  0.00    +0.000 A 
ATOM     18  N   UNL     1       0.997  10.211  18.593  0.00  0.00    +0.000 NA
ATOM     19  C   UNL     1       0.891   9.504  19.725  0.00  0.00    +0.000 A 
ATOM     20  N   UNL     1       0.144   9.878  20.807  0.00  0.00    +0.000 N 
ATOM     21  C   UNL     1       0.238   8.924  21.787  0.00  0.00    +0.000 A 
ATOM     22  C   UNL     1       1.071   7.926  21.325  0.00  0.00    +0.000 A 
ATOM     23  C   UNL     1       1.507   8.297  20.021  0.00  0.00    +0.000 A 
ATOM     24  H   UNL     1      -0.378  10.742  20.857  0.00  0.00    +0.000 HD
ENDBRANCH  13  15
ENDBRANCH   5  13
BRANCH   4  25
ATOM     25  O   UNL     1       1.270   4.180  18.618  0.00  0.00    +0.000 OA
BRANCH  25  26
ATOM     26  C   UNL     1       1.121   3.533  19.867  0.00  0.00    +0.000 C 
ATOM     27  F   UNL     1       2.254   2.998  20.356  0.00  0.00    +0.000 F 
ATOM     28  F   UNL     1       0.652   4.418  20.771  0.00  0.00    +0.000 F 
ATOM     29  F   UNL     1       0.213   2.541  19.733  0.00  0.00    +0.000 F 
ENDBRANCH  25  26
ENDBRANCH   4  25
TORSDOF 6
ENDMDL
MODEL 5
REMARK VINA RESULT:      -8.2      1.383      1.627
REMARK  Name = 
REMARK  7 active torsions:
REMARK  status: ('A' for Active; 'I' for Inactive)
REMARK    1  A    between atoms: C_1  and  N_2
REMARK    2  A    between atoms: N_2  and  S_3
REMARK    3  A    between atoms: S_3  and  C_6
REMARK    4  A    between atoms: C_9  and  O_10
REMARK    5  A    between atoms: O_10  and  C_11
REMARK    6  A    between atoms: C_15  and  N_16
REMARK    7  A    between atoms: N_16  and  C_17
REMARK                            x       y       z     vdW  Elec       q    Type
REMARK                         _______ _______ _______ _____ _____    ______ ____
ROOT
ATOM      1  C   UNL     1       5.205   5.049  17.473  0.00  0.00    +0.000 A 
ATOM      2  C   UNL     1       4.742   3.747  17.374  0.00  0.00    +0.000 A 
ATOM      3  C   UNL     1       3.626   3.386  18.127  0.00  0.00    +0.000 A 
ATOM      4  C   UNL     1       2.942   4.317  18.945  0.00  0.00    +0.000 A 
ATOM      5  C   UNL     1       3.419   5.636  19.048  0.00  0.00    +0.000 A 
ATOM      6  C   UNL     1       4.578   5.960  18.322  0.00  0.00    +0.000 A 
ENDROOT
BRANCH   1   7
ATOM      7  S   UNL     1       6.567   5.625  16.499  0.00  0.00    +0.000 S 
ATOM      8  O   UNL     1       7.660   4.699  16.654  0.00  0.00    +0.000 OA
ATOM      9  O   UNL     1       6.704   7.040  16.763  0.00  0.00    +0.000 OA
BRANCH   7  11
ATOM     10  C   UNL     1       6.451   4.342  14.131  0.00  0.00    +0.000 C 
ATOM     11  N   UNL     1       5.955   5.465  14.927  0.00  0.00    +0.000 NA
ATOM     12  H   UNL     1       4.943   5.599  14.906  0.00  0.00    +0.000 HD
ENDBRANCH   7  11
ENDBRANCH   1   7
BRANCH   5  13
ATOM     13  N   UNL     1       2.828   6.628  19.846  0.00  0.00    +0.000 N 
ATOM     14  H   UNL     1       2.585   6.372  20.790  0.00  0.00    +0.000 HD
BRANCH  13  15
ATOM     15  C   UNL     1       2.123   7.783  19.450  0.00  0.00    +0.000 A 
ATOM     16  N   UNL     1       2.095   8.193  18.154  0.00  0.00    +0.000 NA
ATOM     17  C   UNL     1       1.404   9.303  17.832  0.00  0.00    +0.000 A 
ATOM     18  N   UNL     1       0.714  10.112  18.649  0.00  0.00    +0.000 NA
ATOM     19  C   UNL     1       0.756   9.675  19.914  0.00  0.00    +0.000 A 
ATOM     20  N   UNL     1       0.163  10.303  20.973  0.00  0.00    +0.000 N 
ATOM     21  C   UNL     1       0.382   9.584  22.120  0.00  0.00    +0.000 A 
ATOM     22  C   UNL     1       1.138   8.479  21.787  0.00  0.00    +0.000 A 
ATOM     23  C   UNL     1       1.398   8.540  20.388  0.00  0.00    +0.000 A 
ATOM     24  H   UNL     1      -0.342  11.175  20.897  0.00  0.00    +0.000 HD
ENDBRANCH  13  15
ENDBRANCH   5  13
BRANCH   4  25
ATOM     25  O   UNL     1       1.913   3.724  19.616  0.00  0.00    +0.000 OA
BRANCH  25  26
ATOM     26  C   UNL     1       2.004   3.315  20.966  0.00  0.00    +0.000 C 
ATOM     27  F   UNL     1       2.280   4.307  21.832  0.00  0.00    +0.000 F 
ATOM     28  F   UNL     1       0.838   2.748  21.338  0.00  0.00    +0.000 F 
ATOM     29  F   UNL     1       2.980   2.385  21.070  0.00  0.00    +0.000 F 
ENDBRANCH  25  26
ENDBRANCH   4  25
TORSDOF 6
ENDMDL
MODEL 6
REMARK VINA RESULT:      -8.2      1.425      1.711
REMARK  Name = 
REMARK  7 active torsions:
REMARK  status: ('A' for Active; 'I' for Inactive)
REMARK    1  A    between atoms: C_1  and  N_2
REMARK    2  A    between atoms: N_2  and  S_3
REMARK    3  A    between atoms: S_3  and  C_6
REMARK    4  A    between atoms: C_9  and  O_10
REMARK    5  A    between atoms: O_10  and  C_11
REMARK    6  A    between atoms: C_15  and  N_16
REMARK    7  A    between atoms: N_16  and  C_17
REMARK                            x       y       z     vdW  Elec       q    Type
REMARK                         _______ _______ _______ _____ _____    ______ ____
ROOT
ATOM      1  C   UNL     1       4.803   5.104  17.308  0.00  0.00    +0.000 A 
ATOM      2  C   UNL     1       4.705   3.748  17.567  0.00  0.00    +0.000 A 
ATOM      3  C   UNL     1       3.951   3.340  18.666  0.00  0.00    +0.000 A 
ATOM      4  C   UNL     1       3.261   4.265  19.484  0.00  0.00    +0.000 A 
ATOM      5  C   UNL     1       3.369   5.643  19.222  0.00  0.00    +0.000 A 
ATOM      6  C   UNL     1       4.179   6.031  18.141  0.00  0.00    +0.000 A 
ENDROOT
BRANCH   1   7
ATOM      7  S   UNL     1       5.673   5.718  15.892  0.00  0.00    +0.000 S 
ATOM      8  O   UNL     1       5.124   7.004  15.544  0.00  0.00    +0.000 OA
ATOM      9  O   UNL     1       5.758   4.628  14.946  0.00  0.00    +0.000 OA
BRANCH   7  11
ATOM     10  C   UNL     1       7.465   7.206  17.249  0.00  0.00    +0.000 C 
ATOM     11  N   UNL     1       7.227   5.958  16.523  0.00  0.00    +0.000 NA
ATOM     12  H   UNL     1       7.577   5.115  16.981  0.00  0.00    +0.000 HD
ENDBRANCH   7  11
ENDBRANCH   1   7
BRANCH   5  13
ATOM     13  N   UNL     1       2.744   6.642  19.985  0.00  0.00    +0.000 N 
ATOM     14  H   UNL     1       2.444   6.390  20.913  0.00  0.00    +0.000 HD
BRANCH  13  15
ATOM     15  C   UNL     1       2.074   7.803  19.548  0.00  0.00    +0.000 A 
ATOM     16  N   UNL     1       2.075   8.181  18.242  0.00  0.00    +0.000 NA
ATOM     17  C   UNL     1       1.417   9.298  17.881  0.00  0.00    +0.000 A 
ATOM     18  N   UNL     1       0.737  10.146  18.666  0.00  0.00    +0.000 NA
ATOM     19  C   UNL     1       0.750   9.741  19.942  0.00  0.00    +0.000 A 
ATOM     20  N   UNL     1       0.159  10.412  20.976  0.00  0.00    +0.000 N 
ATOM     21  C   UNL     1       0.342   9.718  22.144  0.00  0.00    +0.000 A 
ATOM     22  C   UNL     1       1.074   8.586  21.851  0.00  0.00    +0.000 A 
ATOM     23  C   UNL     1       1.355   8.603  20.455  0.00  0.00    +0.000 A 
ATOM     24  H   UNL     1      -0.323  11.294  20.870  0.00  0.00    +0.000 HD
ENDBRANCH  13  15
ENDBRANCH   5  13
BRANCH   4  25
ATOM     25  O   UNL     1       2.631   3.638  20.519  0.00  0.00    +0.000 OA
BRANCH  25  26
ATOM     26  C   UNL     1       1.260   3.293  20.495  0.00  0.00    +0.000 C 
ATOM     27  F   UNL     1       0.904   2.496  19.470  0.00  0.00    +0.000 F 
ATOM     28  F   UNL     1       0.941   2.663  21.644  0.00  0.00    +0.000 F 
ATOM     29  F   UNL     1       0.531   4.428  20.416  0.00  0.00    +0.000 F 
ENDBRANCH  25  26
ENDBRANCH   4  25
TORSDOF 6
ENDMDL
MODEL 7
REMARK VINA RESULT:      -8.2      1.133      1.335
REMARK  Name = 
REMARK  7 active torsions:
REMARK  status: ('A' for Active; 'I' for Inactive)
REMARK    1  A    between atoms: C_1  and  N_2
REMARK    2  A    between atoms: N_2  and  S_3
REMARK    3  A    between atoms: S_3  and  C_6
REMARK    4  A    between atoms: C_9  and  O_10
REMARK    5  A    between atoms: O_10  and  C_11
REMARK    6  A    between atoms: C_15  and  N_16
REMARK    7  A    between atoms: N_16  and  C_17
REMARK                            x       y       z     vdW  Elec       q    Type
REMARK                         _______ _______ _______ _____ _____    ______ ____
ROOT
ATOM      1  C   UNL     1       5.762   4.860  18.340  0.00  0.00    +0.000 A 
ATOM      2  C   UNL     1       5.434   3.516  18.266  0.00  0.00    +0.000 A 
ATOM      3  C   UNL     1       4.239   3.097  18.847  0.00  0.00    +0.000 A 
ATOM      4  C   UNL     1       3.348   4.006  19.465  0.00  0.00    +0.000 A 
ATOM      5  C   UNL     1       3.687   5.369  19.545  0.00  0.00    +0.000 A 
ATOM      6  C   UNL     1       4.923   5.758  19.000  0.00  0.00    +0.000 A 
ENDROOT
BRANCH   1   7
ATOM      7  S   UNL     1       7.219   5.504  17.566  0.00  0.00    +0.000 S 
ATOM      8  O   UNL     1       7.979   4.398  17.039  0.00  0.00    +0.000 OA
ATOM      9  O   UNL     1       7.786   6.473  18.476  0.00  0.00    +0.000 OA
BRANCH   7  11
ATOM     10  C   UNL     1       5.724   5.615  15.325  0.00  0.00    +0.000 C 
ATOM     11  N   UNL     1       6.561   6.364  16.262  0.00  0.00    +0.000 NA
ATOM     12  H   UNL     1       6.180   7.262  16.564  0.00  0.00    +0.000 HD
ENDBRANCH   7  11
ENDBRANCH   1   7
BRANCH   5  13
ATOM     13  N   UNL     1       2.886   6.346  20.155  0.00  0.00    +0.000 N 
ATOM     14  H   UNL     1       2.425   6.090  21.013  0.00  0.00    +0.000 HD
BRANCH  13  15
ATOM     15  C   UNL     1       2.264   7.471  19.576  0.00  0.00    +0.000 A 
ATOM     16  N   UNL     1       2.338   7.722  18.242  0.00  0.00    +0.000 NA
ATOM     17  C   UNL     1       1.724   8.811  17.743  0.00  0.00    +0.000 A 
ATOM     18  N   UNL     1       1.023   9.741  18.408  0.00  0.00    +0.000 NA
ATOM     19  C   UNL     1       0.963   9.460  19.716  0.00  0.00    +0.000 A 
ATOM     20  N   UNL     1       0.336  10.236  20.649  0.00  0.00    +0.000 N 
ATOM     21  C   UNL     1       0.446   9.654  21.886  0.00  0.00    +0.000 A 
ATOM     22  C   UNL     1       1.167   8.487  21.740  0.00  0.00    +0.000 A 
ATOM     23  C   UNL     1       1.518   8.366  20.365  0.00  0.00    +0.000 A 
ATOM     24  H   UNL     1      -0.121  11.112  20.435  0.00  0.00    +0.000 HD
ENDBRANCH  13  15
ENDBRANCH   5  13
BRANCH   4  25
ATOM     25  O   UNL     1       2.272   3.359  19.998  0.00  0.00    +0.000 OA
BRANCH  25  26
ATOM     26  C   UNL     1       0.951   3.539  19.528  0.00  0.00    +0.000 C 
ATOM     27  F   UNL     1       0.233   2.405  19.436  0.00  0.00    +0.000 F 
ATOM     28  F   UNL     1       0.297   4.382  20.354  0.00  0.00    +0.000 F 
ATOM     29  F   UNL     1       1.002   4.102  18.301  0.00  0.00    +0.000 F 
ENDBRANCH  25  26
ENDBRANCH   4  25
TORSDOF 6
ENDMDL
MODEL 8
REMARK VINA RESULT:      -8.2      2.972      6.373
REMARK  Name = 
REMARK  7 active torsions:
REMARK  status: ('A' for Active; 'I' for Inactive)
REMARK    1  A    between atoms: C_1  and  N_2
REMARK    2  A    between atoms: N_2  and  S_3
REMARK    3  A    between atoms: S_3  and  C_6
REMARK    4  A    between atoms: C_9  and  O_10
REMARK    5  A    between atoms: O_10  and  C_11
REMARK    6  A    between atoms: C_15  and  N_16
REMARK    7  A    between atoms: N_16  and  C_17
REMARK                            x       y       z     vdW  Elec       q    Type
REMARK                         _______ _______ _______ _____ _____    ______ ____
ROOT
ATOM      1  C   UNL     1       1.709   8.504  19.169  0.00  0.00    +0.000 A 
ATOM      2  C   UNL     1       1.274   8.144  20.434  0.00  0.00    +0.000 A 
ATOM      3  C   UNL     1       1.595   6.871  20.903  0.00  0.00    +0.000 A 
ATOM      4  C   UNL     1       2.379   5.970  20.143  0.00  0.00    +0.000 A 
ATOM      5  C   UNL     1       2.813   6.337  18.856  0.00  0.00    +0.000 A 
ATOM      6  C   UNL     1       2.430   7.605  18.385  0.00  0.00    +0.000 A 
ENDROOT
BRANCH   1   7
ATOM      7  S   UNL     1       1.419  10.125  18.516  0.00  0.00    +0.000 S 
ATOM      8  O   UNL     1       2.438  10.408  17.537  0.00  0.00    +0.000 OA
ATOM      9  O   UNL     1       1.161  10.993  19.642  0.00  0.00    +0.000 OA
BRANCH   7  11
ATOM     10  C   UNL     1      -1.222  10.596  18.248  0.00  0.00    +0.000 C 
ATOM     11  N   UNL     1      -0.052   9.907  17.703  0.00  0.00    +0.000 NA
ATOM     12  H   UNL     1       0.067   9.986  16.691  0.00  0.00    +0.000 HD
ENDBRANCH   7  11
ENDBRANCH   1   7
BRANCH   5  13
ATOM     13  N   UNL     1       3.574   5.510  18.015  0.00  0.00    +0.000 N 
ATOM     14  H   UNL     1       3.112   4.705  17.624  0.00  0.00    +0.000 HD
BRANCH  13  15
ATOM     15  C   UNL     1       4.974   5.355  17.954  0.00  0.00    +0.000 A 
ATOM     16  N   UNL     1       5.754   5.459  19.064  0.00  0.00    +0.000 NA
ATOM     17  C   UNL     1       7.086   5.299  18.947  0.00  0.00    +0.000 A 
ATOM     18  N   UNL     1       7.793   5.053  17.835  0.00  0.00    +0.000 NA
ATOM     19  C   UNL     1       6.995   4.950  16.765  0.00  0.00    +0.000 A 
ATOM     20  N   UNL     1       7.431   4.723  15.490  0.00  0.00    +0.000 N 
ATOM     21  C   UNL     1       6.358   4.653  14.639  0.00  0.00    +0.000 A 
ATOM     22  C   UNL     1       5.215   4.849  15.385  0.00  0.00    +0.000 A 
ATOM     23  C   UNL     1       5.612   5.059  16.736  0.00  0.00    +0.000 A 
ATOM     24  H   UNL     1       8.406   4.638  15.237  0.00  0.00    +0.000 HD
ENDBRANCH  13  15
ENDBRANCH   5  13
BRANCH   4  25
ATOM     25  O   UNL     1       2.523   4.776  20.787  0.00  0.00    +0.000 OA
BRANCH  25  26
ATOM     26  C   UNL     1       1.625   3.696  20.624  0.00  0.00    +0.000 C 
ATOM     27  F   UNL     1       0.420   4.042  20.137  0.00  0.00    +0.000 F 
ATOM     28  F   UNL     1       2.170   2.789  19.786  0.00  0.00    +0.000 F 
ATOM     29  F   UNL     1       1.438   3.105  21.825  0.00  0.00    +0.000 F 
ENDBRANCH  25  26
ENDBRANCH   4  25
TORSDOF 6
ENDMDL
MODEL 9
REMARK VINA RESULT:      -8.2      1.556      1.871
REMARK  Name = 
REMARK  7 active torsions:
REMARK  status: ('A' for Active; 'I' for Inactive)
REMARK    1  A    between atoms: C_1  and  N_2
REMARK    2  A    between atoms: N_2  and  S_3
REMARK    3  A    between atoms: S_3  and  C_6
REMARK    4  A    between atoms: C_9  and  O_10
REMARK    5  A    between atoms: O_10  and  C_11
REMARK    6  A    between atoms: C_15  and  N_16
REMARK    7  A    between atoms: N_16  and  C_17
REMARK                            x       y       z     vdW  Elec       q    Type
REMARK                         _______ _______ _______ _____ _____    ______ ____
ROOT
ATOM      1  C   UNL     1       5.101   4.991  17.366  0.00  0.00    +0.000 A 
ATOM      2  C   UNL     1       4.898   3.642  17.606  0.00  0.00    +0.000 A 
ATOM      3  C   UNL     1       4.052   3.280  18.654  0.00  0.00    +0.000 A 
ATOM      4  C   UNL     1       3.376   4.245  19.436  0.00  0.00    +0.000 A 
ATOM      5  C   UNL     1       3.590   5.614  19.194  0.00  0.00    +0.000 A 
ATOM      6  C   UNL     1       4.489   5.953  18.168  0.00  0.00    +0.000 A 
ENDROOT
BRANCH   1   7
ATOM      7  S   UNL     1       6.095   5.552  16.011  0.00  0.00    +0.000 S 
ATOM      8  O   UNL     1       7.337   6.056  16.539  0.00  0.00    +0.000 OA
ATOM      9  O   UNL     1       5.236   6.341  15.158  0.00  0.00    +0.000 OA
BRANCH   7  11
ATOM     10  C   UNL     1       6.336   4.125  13.737  0.00  0.00    +0.000 C 
ATOM     11  N   UNL     1       6.415   4.100  15.198  0.00  0.00    +0.000 NA
ATOM     12  H   UNL     1       7.238   3.633  15.581  0.00  0.00    +0.000 HD
ENDBRANCH   7  11
ENDBRANCH   1   7
BRANCH   5  13
ATOM     13  N   UNL     1       2.986   6.649  19.926  0.00  0.00    +0.000 N 
ATOM     14  H   UNL     1       2.782   6.465  20.895  0.00  0.00    +0.000 HD
BRANCH  13  15
ATOM     15  C   UNL     1       2.226   7.740  19.458  0.00  0.00    +0.000 A 
ATOM     16  N   UNL     1       2.231   8.106  18.148  0.00  0.00    +0.000 NA
ATOM     17  C   UNL     1       1.484   9.155  17.757  0.00  0.00    +0.000 A 
ATOM     18  N   UNL     1       0.705   9.942  18.514  0.00  0.00    +0.000 NA
ATOM     19  C   UNL     1       0.717   9.549  19.794  0.00  0.00    +0.000 A 
ATOM     20  N   UNL     1       0.036  10.171  20.803  0.00  0.00    +0.000 N 
ATOM     21  C   UNL     1       0.248   9.505  21.983  0.00  0.00    +0.000 A 
ATOM     22  C   UNL     1       1.090   8.444  21.723  0.00  0.00    +0.000 A 
ATOM     23  C   UNL     1       1.410   8.476  20.336  0.00  0.00    +0.000 A 
ATOM     24  H   UNL     1      -0.521  11.004  20.674  0.00  0.00    +0.000 HD
ENDBRANCH  13  15
ENDBRANCH   5  13
BRANCH   4  25
ATOM     25  O   UNL     1       2.644   3.656  20.425  0.00  0.00    +0.000 OA
BRANCH  25  26
ATOM     26  C   UNL     1       1.234   3.552  20.386  0.00  0.00    +0.000 C 
ATOM     27  F   UNL     1       0.585   4.722  20.521  0.00  0.00    +0.000 F 
ATOM     28  F   UNL     1       0.862   3.001  19.212  0.00  0.00    +0.000 F 
ATOM     29  F   UNL     1       0.834   2.733  21.384  0.00  0.00    +0.000 F 
ENDBRANCH  25  26
ENDBRANCH   4  25
TORSDOF 6
ENDMDL
