MODEL 1
REMARK VINA RESULT:      -8.1      0.000      0.000
REMARK  Name = 
REMARK  7 active torsions:
REMARK  status: ('A' for Active; 'I' for Inactive)
REMARK    1  A    between atoms: C_1  and  N_2
REMARK    2  A    between atoms: C_3  and  C_4
REMARK    3  A    between atoms: C_4  and  O_5
REMARK    4  A    between atoms: O_5  and  C_6
REMARK    5  A    between atoms: C_11  and  N_12
REMARK    6  A    between atoms: C_20  and  C_21
REMARK    7  A    between atoms: C_24  and  C_25
REMARK                            x       y       z     vdW  Elec       q    Type
REMARK                         _______ _______ _______ _____ _____    ______ ____
ROOT
ATOM      1  C   UNL     1       1.757   6.075  21.055  0.00  0.00    +0.000 C 
ATOM      2  N   UNL     1       2.200   6.832  19.909  0.00  0.00    +0.000 N 
ATOM      3  C   UNL     1       3.031   6.363  18.908  0.00  0.00    +0.000 A 
ATOM      4  C   UNL     1       3.111   7.411  18.016  0.00  0.00    +0.000 A 
ATOM      5  N   UNL     1       2.375   8.477  18.438  0.00  0.00    +0.000 NA
ATOM      6  C   UNL     1       1.836   8.138  19.598  0.00  0.00    +0.000 A 
ENDROOT
BRANCH   6   7
ATOM      7  C   UNL     1       0.964   9.047  20.369  0.00  0.00    +0.000 A 
ATOM      8  C   UNL     1       0.641   8.709  21.696  0.00  0.00    +0.000 A 
ATOM      9  C   UNL     1      -0.200   9.516  22.469  0.00  0.00    +0.000 A 
ATOM     10  C   UNL     1      -0.737  10.684  21.930  0.00  0.00    +0.000 A 
ATOM     11  C   UNL     1      -0.447  11.027  20.607  0.00  0.00    +0.000 A 
ATOM     12  C   UNL     1       0.383  10.203  19.833  0.00  0.00    +0.000 A 
BRANCH  10  13
ATOM     13  C   UNL     1      -1.598  11.514  22.716  0.00  0.00    +0.000 C 
ATOM     14  N   UNL     1      -2.280  12.200  23.358  0.00  0.00    +0.000 NA
ENDBRANCH  10  13
ENDBRANCH   6   7
BRANCH   3  15
ATOM     15  C   UNL     1       3.721   5.046  18.867  0.00  0.00    +0.000 C 
BRANCH  15  16
ATOM     16  O   UNL     1       5.076   5.239  19.269  0.00  0.00    +0.000 OA
BRANCH  16  17
ATOM     17  C   UNL     1       6.039   4.986  18.227  0.00  0.00    +0.000 C 
ATOM     18  C   UNL     1       6.685   6.283  17.701  0.00  0.00    +0.000 C 
ATOM     19  O   UNL     1       7.419   6.157  16.484  0.00  0.00    +0.000 OA
ATOM     20  C   UNL     1       6.910   5.346  15.567  0.00  0.00    +0.000 A 
ATOM     21  N   UNL     1       7.336   5.285  14.329  0.00  0.00    +0.000 NA
ATOM     22  C   UNL     1       6.605   4.258  13.759  0.00  0.00    +0.000 A 
ATOM     23  C   UNL     1       5.735   3.698  14.678  0.00  0.00    +0.000 A 
ATOM     24  N   UNL     1       5.948   4.413  15.820  0.00  0.00    +0.000 N 
ATOM     25  C   UNL     1       5.315   4.238  17.101  0.00  0.00    +0.000 C 
BRANCH  22  26
ATOM     26  N   UNL     1       6.801   3.862  12.382  0.00  0.00    +0.000 N 
ATOM     27  O   UNL     1       7.546   4.584  11.700  0.00  0.00    +0.000 OA
ATOM     28  O   UNL     1       6.210   2.852  11.975  0.00  0.00    +0.000 OA
ENDBRANCH  22  26
ENDBRANCH  16  17
ENDBRANCH  15  16
ENDBRANCH   3  15
TORSDOF 6
ENDMDL
MODEL 2
REMARK VINA RESULT:      -8.0      0.772      1.029
REMARK  Name = 
REMARK  7 active torsions:
REMARK  status: ('A' for Active; 'I' for Inactive)
REMARK    1  A    between atoms: C_1  and  N_2
REMARK    2  A    between atoms: C_3  and  C_4
REMARK    3  A    between atoms: C_4  and  O_5
REMARK    4  A    between atoms: O_5  and  C_6
REMARK    5  A    between atoms: C_11  and  N_12
REMARK    6  A    between atoms: C_20  and  C_21
REMARK    7  A    between atoms: C_24  and  C_25
REMARK                            x       y       z     vdW  Elec       q    Type
REMARK                         _______ _______ _______ _____ _____    ______ ____
ROOT
ATOM      1  C   UNL     1       1.508   6.704  20.759  0.00  0.00    +0.000 C 
ATOM      2  N   UNL     1       2.089   7.303  19.581  0.00  0.00    +0.000 N 
ATOM      3  C   UNL     1       3.027   6.710  18.756  0.00  0.00    +0.000 A 
ATOM      4  C   UNL     1       3.220   7.629  17.748  0.00  0.00    +0.000 A 
ATOM      5  N   UNL     1       2.449   8.737  17.934  0.00  0.00    +0.000 NA
ATOM      6  C   UNL     1       1.776   8.554  19.058  0.00  0.00    +0.000 A 
ENDROOT
BRANCH   6   7
ATOM      7  C   UNL     1       0.828   9.551  19.593  0.00  0.00    +0.000 A 
ATOM      8  C   UNL     1       0.930   9.923  20.946  0.00  0.00    +0.000 A 
ATOM      9  C   UNL     1       0.044  10.845  21.517  0.00  0.00    +0.000 A 
ATOM     10  C   UNL     1      -0.963  11.417  20.743  0.00  0.00    +0.000 A 
ATOM     11  C   UNL     1      -1.096  11.045  19.404  0.00  0.00    +0.000 A 
ATOM     12  C   UNL     1      -0.216  10.107  18.843  0.00  0.00    +0.000 A 
BRANCH  10  13
ATOM     13  C   UNL     1      -1.871  12.360  21.321  0.00  0.00    +0.000 C 
ATOM     14  N   UNL     1      -2.622  13.119  21.777  0.00  0.00    +0.000 NA
ENDBRANCH  10  13
ENDBRANCH   6   7
BRANCH   3  15
ATOM     15  C   UNL     1       3.705   5.405  18.973  0.00  0.00    +0.000 C 
BRANCH  15  16
ATOM     16  O   UNL     1       5.071   5.659  19.297  0.00  0.00    +0.000 OA
BRANCH  16  17
ATOM     17  C   UNL     1       6.002   5.246  18.277  0.00  0.00    +0.000 C 
ATOM     18  C   UNL     1       6.810   6.430  17.710  0.00  0.00    +0.000 C 
ATOM     19  O   UNL     1       7.531   6.166  16.507  0.00  0.00    +0.000 OA
ATOM     20  C   UNL     1       6.930   5.390  15.615  0.00  0.00    +0.000 A 
ATOM     21  N   UNL     1       7.354   5.227  14.385  0.00  0.00    +0.000 NA
ATOM     22  C   UNL     1       6.503   4.279  13.847  0.00  0.00    +0.000 A 
ATOM     23  C   UNL     1       5.564   3.869  14.775  0.00  0.00    +0.000 A 
ATOM     24  N   UNL     1       5.856   4.596  15.892  0.00  0.00    +0.000 N 
ATOM     25  C   UNL     1       5.197   4.551  17.171  0.00  0.00    +0.000 C 
BRANCH  22  26
ATOM     26  N   UNL     1       6.658   3.809  12.487  0.00  0.00    +0.000 N 
ATOM     27  O   UNL     1       5.997   2.807  12.170  0.00  0.00    +0.000 OA
ATOM     28  O   UNL     1       7.440   4.419  11.744  0.00  0.00    +0.000 OA
ENDBRANCH  22  26
ENDBRANCH  16  17
ENDBRANCH  15  16
ENDBRANCH   3  15
TORSDOF 6
ENDMDL
MODEL 3
REMARK VINA RESULT:      -8.0      2.274      3.057
REMARK  Name = 
REMARK  7 active torsions:
REMARK  status: ('A' for Active; 'I' for Inactive)
REMARK    1  A    between atoms: C_1  and  N_2
REMARK    2  A    between atoms: C_3  and  C_4
REMARK    3  A    between atoms: C_4  and  O_5
REMARK    4  A    between atoms: O_5  and  C_6
REMARK    5  A    between atoms: C_11  and  N_12
REMARK    6  A    between atoms: C_20  and  C_21
REMARK    7  A    between atoms: C_24  and  C_25
REMARK                            x       y       z     vdW  Elec       q    Type
REMARK                         _______ _______ _______ _____ _____    ______ ____
ROOT
ATOM      1  C   UNL     1       2.042   8.871  17.759  0.00  0.00    +0.000 C 
ATOM      2  N   UNL     1       1.638   8.703  19.134  0.00  0.00    +0.000 N 
ATOM      3  C   UNL     1       1.794   7.552  19.883  0.00  0.00    +0.000 A 
ATOM      4  C   UNL     1       1.325   7.894  21.133  0.00  0.00    +0.000 A 
ATOM      5  N   UNL     1       0.894   9.187  21.162  0.00  0.00    +0.000 NA
ATOM      6  C   UNL     1       1.062   9.677  19.945  0.00  0.00    +0.000 A 
ENDROOT
BRANCH   6   7
ATOM      7  C   UNL     1       0.704  11.063  19.586  0.00  0.00    +0.000 A 
ATOM      8  C   UNL     1       1.632  12.089  19.843  0.00  0.00    +0.000 A 
ATOM      9  C   UNL     1       1.341  13.426  19.548  0.00  0.00    +0.000 A 
ATOM     10  C   UNL     1       0.112  13.765  18.985  0.00  0.00    +0.000 A 
ATOM     11  C   UNL     1      -0.832  12.766  18.742  0.00  0.00    +0.000 A 
ATOM     12  C   UNL     1      -0.540  11.430  19.057  0.00  0.00    +0.000 A 
BRANCH  10  13
ATOM     13  C   UNL     1      -0.191  15.130  18.680  0.00  0.00    +0.000 C 
ATOM     14  N   UNL     1      -0.417  16.241  18.430  0.00  0.00    +0.000 NA
ENDBRANCH  10  13
ENDBRANCH   6   7
BRANCH   3  15
ATOM     15  C   UNL     1       2.296   6.237  19.402  0.00  0.00    +0.000 C 
BRANCH  15  16
ATOM     16  O   UNL     1       3.685   6.147  19.717  0.00  0.00    +0.000 OA
BRANCH  16  17
ATOM     17  C   UNL     1       4.432   5.289  18.832  0.00  0.00    +0.000 C 
ATOM     18  C   UNL     1       5.903   5.137  19.269  0.00  0.00    +0.000 C 
ATOM     19  O   UNL     1       6.776   4.556  18.303  0.00  0.00    +0.000 OA
ATOM     20  C   UNL     1       6.577   4.903  17.039  0.00  0.00    +0.000 A 
ATOM     21  N   UNL     1       7.414   4.634  16.066  0.00  0.00    +0.000 NA
ATOM     22  C   UNL     1       6.776   5.082  14.924  0.00  0.00    +0.000 A 
ATOM     23  C   UNL     1       5.537   5.620  15.224  0.00  0.00    +0.000 A 
ATOM     24  N   UNL     1       5.438   5.496  16.579  0.00  0.00    +0.000 N 
ATOM     25  C   UNL     1       4.336   5.883  17.422  0.00  0.00    +0.000 C 
BRANCH  22  26
ATOM     26  N   UNL     1       7.380   4.945  13.617  0.00  0.00    +0.000 N 
ATOM     27  O   UNL     1       6.828   4.158  12.832  0.00  0.00    +0.000 OA
ATOM     28  O   UNL     1       8.403   5.603  13.375  0.00  0.00    +0.000 OA
ENDBRANCH  22  26
ENDBRANCH  16  17
ENDBRANCH  15  16
ENDBRANCH   3  15
TORSDOF 6
ENDMDL
MODEL 4
REMARK VINA RESULT:      -8.0      0.932      1.459
REMARK  Name = 
REMARK  7 active torsions:
REMARK  status: ('A' for Active; 'I' for Inactive)
REMARK    1  A    between atoms: C_1  and  N_2
REMARK    2  A    between atoms: C_3  and  C_4
REMARK    3  A    between atoms: C_4  and  O_5
REMARK    4  A    between atoms: O_5  and  C_6
REMARK    5  A    between atoms: C_11  and  N_12
REMARK    6  A    between atoms: C_20  and  C_21
REMARK    7  A    between atoms: C_24  and  C_25
REMARK                            x       y       z     vdW  Elec       q    Type
REMARK                         _______ _______ _______ _____ _____    ______ ____
ROOT
ATOM      1  C   UNL     1       0.976   5.484  20.508  0.00  0.00    +0.000 C 
ATOM      2  N   UNL     1       1.778   6.270  19.599  0.00  0.00    +0.000 N 
ATOM      3  C   UNL     1       2.584   5.764  18.595  0.00  0.00    +0.000 A 
ATOM      4  C   UNL     1       3.085   6.885  17.968  0.00  0.00    +0.000 A 
ATOM      5  N   UNL     1       2.622   8.027  18.550  0.00  0.00    +0.000 NA
ATOM      6  C   UNL     1       1.844   7.659  19.555  0.00  0.00    +0.000 A 
ENDROOT
BRANCH   6   7
ATOM      7  C   UNL     1       1.156   8.630  20.429  0.00  0.00    +0.000 A 
ATOM      8  C   UNL     1       0.351   9.621  19.838  0.00  0.00    +0.000 A 
ATOM      9  C   UNL     1      -0.306  10.584  20.612  0.00  0.00    +0.000 A 
ATOM     10  C   UNL     1      -0.172  10.575  21.999  0.00  0.00    +0.000 A 
ATOM     11  C   UNL     1       0.639   9.614  22.605  0.00  0.00    +0.000 A 
ATOM     12  C   UNL     1       1.309   8.662  21.821  0.00  0.00    +0.000 A 
BRANCH  10  13
ATOM     13  C   UNL     1      -0.842  11.556  22.796  0.00  0.00    +0.000 C 
ATOM     14  N   UNL     1      -1.401  12.354  23.429  0.00  0.00    +0.000 NA
ENDBRANCH  10  13
ENDBRANCH   6   7
BRANCH   3  15
ATOM     15  C   UNL     1       2.876   4.332  18.324  0.00  0.00    +0.000 C 
BRANCH  15  16
ATOM     16  O   UNL     1       4.052   3.972  19.048  0.00  0.00    +0.000 OA
BRANCH  16  17
ATOM     17  C   UNL     1       5.248   3.939  18.244  0.00  0.00    +0.000 C 
ATOM     18  C   UNL     1       6.161   5.153  18.507  0.00  0.00    +0.000 C 
ATOM     19  O   UNL     1       7.206   5.356  17.557  0.00  0.00    +0.000 OA
ATOM     20  C   UNL     1       6.908   5.115  16.288  0.00  0.00    +0.000 A 
ATOM     21  N   UNL     1       7.675   5.454  15.280  0.00  0.00    +0.000 NA
ATOM     22  C   UNL     1       7.038   4.933  14.168  0.00  0.00    +0.000 A 
ATOM     23  C   UNL     1       5.878   4.269  14.524  0.00  0.00    +0.000 A 
ATOM     24  N   UNL     1       5.817   4.404  15.880  0.00  0.00    +0.000 N 
ATOM     25  C   UNL     1       4.815   3.885  16.774  0.00  0.00    +0.000 C 
BRANCH  22  26
ATOM     26  N   UNL     1       7.592   5.082  12.840  0.00  0.00    +0.000 N 
ATOM     27  O   UNL     1       7.294   4.204  12.015  0.00  0.00    +0.000 OA
ATOM     28  O   UNL     1       8.329   6.055  12.621  0.00  0.00    +0.000 OA
ENDBRANCH  22  26
ENDBRANCH  16  17
ENDBRANCH  15  16
ENDBRANCH   3  15
TORSDOF 6
ENDMDL
MODEL 5
REMARK VINA RESULT:      -7.9      2.198      2.936
REMARK  Name = 
REMARK  7 active torsions:
REMARK  status: ('A' for Active; 'I' for Inactive)
REMARK    1  A    between atoms: C_1  and  N_2
REMARK    2  A    between atoms: C_3  and  C_4
REMARK    3  A    between atoms: C_4  and  O_5
REMARK    4  A    between atoms: O_5  and  C_6
REMARK    5  A    between atoms: C_11  and  N_12
REMARK    6  A    between atoms: C_20  and  C_21
REMARK    7  A    between atoms: C_24  and  C_25
REMARK                            x       y       z     vdW  Elec       q    Type
REMARK                         _______ _______ _______ _____ _____    ______ ____
ROOT
ATOM      1  C   UNL     1       2.108   8.873  17.738  0.00  0.00    +0.000 C 
ATOM      2  N   UNL     1       1.734   8.617  19.109  0.00  0.00    +0.000 N 
ATOM      3  C   UNL     1       1.888   7.413  19.773  0.00  0.00    +0.000 A 
ATOM      4  C   UNL     1       1.456   7.677  21.054  0.00  0.00    +0.000 A 
ATOM      5  N   UNL     1       1.050   8.971  21.184  0.00  0.00    +0.000 NA
ATOM      6  C   UNL     1       1.197   9.541  20.000  0.00  0.00    +0.000 A 
ENDROOT
BRANCH   6   7
ATOM      7  C   UNL     1       0.857  10.956  19.746  0.00  0.00    +0.000 A 
ATOM      8  C   UNL     1      -0.133  11.252  18.791  0.00  0.00    +0.000 A 
ATOM      9  C   UNL     1      -0.481  12.574  18.489  0.00  0.00    +0.000 A 
ATOM     10  C   UNL     1       0.155  13.630  19.139  0.00  0.00    +0.000 A 
ATOM     11  C   UNL     1       1.155  13.358  20.075  0.00  0.00    +0.000 A 
ATOM     12  C   UNL     1       1.512  12.031  20.359  0.00  0.00    +0.000 A 
BRANCH  10  13
ATOM     13  C   UNL     1      -0.197  14.983  18.835  0.00  0.00    +0.000 C 
ATOM     14  N   UNL     1      -0.502  16.078  18.598  0.00  0.00    +0.000 NA
ENDBRANCH  10  13
ENDBRANCH   6   7
BRANCH   3  15
ATOM     15  C   UNL     1       2.353   6.127  19.189  0.00  0.00    +0.000 C 
BRANCH  15  16
ATOM     16  O   UNL     1       3.567   5.755  19.839  0.00  0.00    +0.000 OA
BRANCH  16  17
ATOM     17  C   UNL     1       4.479   5.018  19.000  0.00  0.00    +0.000 C 
ATOM     18  C   UNL     1       5.952   5.263  19.382  0.00  0.00    +0.000 C 
ATOM     19  O   UNL     1       6.918   4.817  18.432  0.00  0.00    +0.000 OA
ATOM     20  C   UNL     1       6.612   4.983  17.153  0.00  0.00    +0.000 A 
ATOM     21  N   UNL     1       7.467   4.829  16.171  0.00  0.00    +0.000 NA
ATOM     22  C   UNL     1       6.714   5.000  15.023  0.00  0.00    +0.000 A 
ATOM     23  C   UNL     1       5.389   5.254  15.331  0.00  0.00    +0.000 A 
ATOM     24  N   UNL     1       5.353   5.242  16.695  0.00  0.00    +0.000 N 
ATOM     25  C   UNL     1       4.211   5.434  17.549  0.00  0.00    +0.000 C 
BRANCH  22  26
ATOM     26  N   UNL     1       7.303   4.886  13.708  0.00  0.00    +0.000 N 
ATOM     27  O   UNL     1       8.268   5.630  13.468  0.00  0.00    +0.000 OA
ATOM     28  O   UNL     1       6.805   4.076  12.913  0.00  0.00    +0.000 OA
ENDBRANCH  22  26
ENDBRANCH  16  17
ENDBRANCH  15  16
ENDBRANCH   3  15
TORSDOF 6
ENDMDL
MODEL 6
REMARK VINA RESULT:      -7.9      1.291      1.772
REMARK  Name = 
REMARK  7 active torsions:
REMARK  status: ('A' for Active; 'I' for Inactive)
REMARK    1  A    between atoms: C_1  and  N_2
REMARK    2  A    between atoms: C_3  and  C_4
REMARK    3  A    between atoms: C_4  and  O_5
REMARK    4  A    between atoms: O_5  and  C_6
REMARK    5  A    between atoms: C_11  and  N_12
REMARK    6  A    between atoms: C_20  and  C_21
REMARK    7  A    between atoms: C_24  and  C_25
REMARK                            x       y       z     vdW  Elec       q    Type
REMARK                         _______ _______ _______ _____ _____    ______ ____
ROOT
ATOM      1  C   UNL     1       3.152   7.303  18.178  0.00  0.00    +0.000 C 
ATOM      2  N   UNL     1       2.478   6.573  19.226  0.00  0.00    +0.000 N 
ATOM      3  C   UNL     1       2.555   5.208  19.432  0.00  0.00    +0.000 A 
ATOM      4  C   UNL     1       1.807   4.996  20.570  0.00  0.00    +0.000 A 
ATOM      5  N   UNL     1       1.289   6.162  21.046  0.00  0.00    +0.000 NA
ATOM      6  C   UNL     1       1.675   7.121  20.221  0.00  0.00    +0.000 A 
ENDROOT
BRANCH   6   7
ATOM      7  C   UNL     1       1.303   8.537  20.412  0.00  0.00    +0.000 A 
ATOM      8  C   UNL     1       1.049   9.000  21.716  0.00  0.00    +0.000 A 
ATOM      9  C   UNL     1       0.668  10.325  21.958  0.00  0.00    +0.000 A 
ATOM     10  C   UNL     1       0.535  11.218  20.896  0.00  0.00    +0.000 A 
ATOM     11  C   UNL     1       0.762  10.774  19.592  0.00  0.00    +0.000 A 
ATOM     12  C   UNL     1       1.126   9.440  19.356  0.00  0.00    +0.000 A 
BRANCH  10  13
ATOM     13  C   UNL     1       0.147  12.574  21.137  0.00  0.00    +0.000 C 
ATOM     14  N   UNL     1      -0.167  13.678  21.312  0.00  0.00    +0.000 NA
ENDBRANCH  10  13
ENDBRANCH   6   7
BRANCH   3  15
ATOM     15  C   UNL     1       3.240   4.213  18.566  0.00  0.00    +0.000 C 
BRANCH  15  16
ATOM     16  O   UNL     1       4.465   3.841  19.196  0.00  0.00    +0.000 OA
BRANCH  16  17
ATOM     17  C   UNL     1       5.623   3.967  18.347  0.00  0.00    +0.000 C 
ATOM     18  C   UNL     1       6.285   5.355  18.462  0.00  0.00    +0.000 C 
ATOM     19  O   UNL     1       7.244   5.667  17.454  0.00  0.00    +0.000 OA
ATOM     20  C   UNL     1       6.967   5.254  16.225  0.00  0.00    +0.000 A 
ATOM     21  N   UNL     1       7.626   5.638  15.159  0.00  0.00    +0.000 NA
ATOM     22  C   UNL     1       7.077   4.901  14.125  0.00  0.00    +0.000 A 
ATOM     23  C   UNL     1       6.081   4.061  14.588  0.00  0.00    +0.000 A 
ATOM     24  N   UNL     1       6.029   4.309  15.928  0.00  0.00    +0.000 N 
ATOM     25  C   UNL     1       5.173   3.691  16.907  0.00  0.00    +0.000 C 
BRANCH  22  26
ATOM     26  N   UNL     1       7.557   5.030  12.766  0.00  0.00    +0.000 N 
ATOM     27  O   UNL     1       8.287   6.005  12.528  0.00  0.00    +0.000 OA
ATOM     28  O   UNL     1       7.201   4.179  11.939  0.00  0.00    +0.000 OA
ENDBRANCH  22  26
ENDBRANCH  16  17
ENDBRANCH  15  16
ENDBRANCH   3  15
TORSDOF 6
ENDMDL
MODEL 7
REMARK VINA RESULT:      -7.9      1.178      1.628
REMARK  Name = 
REMARK  7 active torsions:
REMARK  status: ('A' for Active; 'I' for Inactive)
REMARK    1  A    between atoms: C_1  and  N_2
REMARK    2  A    between atoms: C_3  and  C_4
REMARK    3  A    between atoms: C_4  and  O_5
REMARK    4  A    between atoms: O_5  and  C_6
REMARK    5  A    between atoms: C_11  and  N_12
REMARK    6  A    between atoms: C_20  and  C_21
REMARK    7  A    between atoms: C_24  and  C_25
REMARK                            x       y       z     vdW  Elec       q    Type
REMARK                         _______ _______ _______ _____ _____    ______ ____
ROOT
ATOM      1  C   UNL     1       1.249   6.874  20.509  0.00  0.00    +0.000 C 
ATOM      2  N   UNL     1       1.950   7.415  19.368  0.00  0.00    +0.000 N 
ATOM      3  C   UNL     1       2.947   6.771  18.658  0.00  0.00    +0.000 A 
ATOM      4  C   UNL     1       3.254   7.645  17.638  0.00  0.00    +0.000 A 
ATOM      5  N   UNL     1       2.495   8.775  17.709  0.00  0.00    +0.000 NA
ATOM      6  C   UNL     1       1.716   8.649  18.771  0.00  0.00    +0.000 A 
ENDROOT
BRANCH   6   7
ATOM      7  C   UNL     1       0.745   9.685  19.176  0.00  0.00    +0.000 A 
ATOM      8  C   UNL     1      -0.323   9.987  18.312  0.00  0.00    +0.000 A 
ATOM      9  C   UNL     1      -1.260  10.977  18.629  0.00  0.00    +0.000 A 
ATOM     10  C   UNL     1      -1.149  11.686  19.824  0.00  0.00    +0.000 A 
ATOM     11  C   UNL     1      -0.085  11.418  20.686  0.00  0.00    +0.000 A 
ATOM     12  C   UNL     1       0.861  10.437  20.353  0.00  0.00    +0.000 A 
BRANCH  10  13
ATOM     13  C   UNL     1      -2.105  12.698  20.155  0.00  0.00    +0.000 C 
ATOM     14  N   UNL     1      -2.870  13.524  20.440  0.00  0.00    +0.000 NA
ENDBRANCH  10  13
ENDBRANCH   6   7
BRANCH   3  15
ATOM     15  C   UNL     1       3.572   5.462  18.987  0.00  0.00    +0.000 C 
BRANCH  15  16
ATOM     16  O   UNL     1       4.935   5.694  19.337  0.00  0.00    +0.000 OA
BRANCH  16  17
ATOM     17  C   UNL     1       5.880   5.244  18.346  0.00  0.00    +0.000 C 
ATOM     18  C   UNL     1       6.788   6.384  17.844  0.00  0.00    +0.000 C 
ATOM     19  O   UNL     1       7.541   6.101  16.666  0.00  0.00    +0.000 OA
ATOM     20  C   UNL     1       6.930   5.388  15.730  0.00  0.00    +0.000 A 
ATOM     21  N   UNL     1       7.394   5.226  14.515  0.00  0.00    +0.000 NA
ATOM     22  C   UNL     1       6.508   4.349  13.917  0.00  0.00    +0.000 A 
ATOM     23  C   UNL     1       5.504   3.981  14.795  0.00  0.00    +0.000 A 
ATOM     24  N   UNL     1       5.795   4.660  15.941  0.00  0.00    +0.000 N 
ATOM     25  C   UNL     1       5.080   4.630  17.190  0.00  0.00    +0.000 C 
BRANCH  22  26
ATOM     26  N   UNL     1       6.690   3.901  12.554  0.00  0.00    +0.000 N 
ATOM     27  O   UNL     1       6.138   2.833  12.244  0.00  0.00    +0.000 OA
ATOM     28  O   UNL     1       7.386   4.596  11.800  0.00  0.00    +0.000 OA
ENDBRANCH  22  26
ENDBRANCH  16  17
ENDBRANCH  15  16
ENDBRANCH   3  15
TORSDOF 6
ENDMDL
MODEL 8
REMARK VINA RESULT:      -7.9      1.457      2.051
REMARK  Name = 
REMARK  7 active torsions:
REMARK  status: ('A' for Active; 'I' for Inactive)
REMARK    1  A    between atoms: C_1  and  N_2
REMARK    2  A    between atoms: C_3  and  C_4
REMARK    3  A    between atoms: C_4  and  O_5
REMARK    4  A    between atoms: O_5  and  C_6
REMARK    5  A    between atoms: C_11  and  N_12
REMARK    6  A    between atoms: C_20  and  C_21
REMARK    7  A    between atoms: C_24  and  C_25
REMARK                            x       y       z     vdW  Elec       q    Type
REMARK                         _______ _______ _______ _____ _____    ______ ____
ROOT
ATOM      1  C   UNL     1       2.850   7.781  17.903  0.00  0.00    +0.000 C 
ATOM      2  N   UNL     1       2.277   7.282  19.131  0.00  0.00    +0.000 N 
ATOM      3  C   UNL     1       2.463   6.013  19.648  0.00  0.00    +0.000 A 
ATOM      4  C   UNL     1       1.782   6.033  20.846  0.00  0.00    +0.000 A 
ATOM      5  N   UNL     1       1.199   7.245  21.064  0.00  0.00    +0.000 NA
ATOM      6  C   UNL     1       1.478   8.001  20.015  0.00  0.00    +0.000 A 
ENDROOT
BRANCH   6   7
ATOM      7  C   UNL     1       1.010   9.396  19.889  0.00  0.00    +0.000 A 
ATOM      8  C   UNL     1       1.091  10.240  21.011  0.00  0.00    +0.000 A 
ATOM      9  C   UNL     1       0.641  11.564  20.961  0.00  0.00    +0.000 A 
ATOM     10  C   UNL     1       0.100  12.074  19.781  0.00  0.00    +0.000 A 
ATOM     11  C   UNL     1      -0.009  11.246  18.662  0.00  0.00    +0.000 A 
ATOM     12  C   UNL     1       0.428   9.915  18.726  0.00  0.00    +0.000 A 
BRANCH  10  13
ATOM     13  C   UNL     1      -0.361  13.427  19.723  0.00  0.00    +0.000 C 
ATOM     14  N   UNL     1      -0.717  14.531  19.669  0.00  0.00    +0.000 NA
ENDBRANCH  10  13
ENDBRANCH   6   7
BRANCH   3  15
ATOM     15  C   UNL     1       3.183   4.885  19.001  0.00  0.00    +0.000 C 
BRANCH  15  16
ATOM     16  O   UNL     1       4.457   4.749  19.629  0.00  0.00    +0.000 OA
BRANCH  16  17
ATOM     17  C   UNL     1       5.548   4.559  18.708  0.00  0.00    +0.000 C 
ATOM     18  C   UNL     1       6.486   5.782  18.652  0.00  0.00    +0.000 C 
ATOM     19  O   UNL     1       7.409   5.802  17.566  0.00  0.00    +0.000 OA
ATOM     20  C   UNL     1       6.962   5.358  16.399  0.00  0.00    +0.000 A 
ATOM     21  N   UNL     1       7.603   5.508  15.266  0.00  0.00    +0.000 NA
ATOM     22  C   UNL     1       6.839   4.820  14.340  0.00  0.00    +0.000 A 
ATOM     23  C   UNL     1       5.730   4.249  14.937  0.00  0.00    +0.000 A 
ATOM     24  N   UNL     1       5.831   4.610  16.248  0.00  0.00    +0.000 N 
ATOM     25  C   UNL     1       4.944   4.268  17.329  0.00  0.00    +0.000 C 
BRANCH  22  26
ATOM     26  N   UNL     1       7.230   4.734  12.950  0.00  0.00    +0.000 N 
ATOM     27  O   UNL     1       6.711   3.824  12.285  0.00  0.00    +0.000 OA
ATOM     28  O   UNL     1       8.056   5.555  12.525  0.00  0.00    +0.000 OA
ENDBRANCH  22  26
ENDBRANCH  16  17
ENDBRANCH  15  16
ENDBRANCH   3  15
TORSDOF 6
ENDMDL
MODEL 9
REMARK VINA RESULT:      -7.7      1.357      2.073
REMARK  Name = 
REMARK  7 active torsions:
REMARK  status: ('A' for Active; 'I' for Inactive)
REMARK    1  A    between atoms: C_1  and  N_2
REMARK    2  A    between atoms: C_3  and  C_4
REMARK    3  A    between atoms: C_4  and  O_5
REMARK    4  A    between atoms: O_5  and  C_6
REMARK    5  A    between atoms: C_11  and  N_12
REMARK    6  A    between atoms: C_20  and  C_21
REMARK    7  A    between atoms: C_24  and  C_25
REMARK                            x       y       z     vdW  Elec       q    Type
REMARK                         _______ _______ _______ _____ _____    ______ ____
ROOT
ATOM      1  C   UNL     1       2.092   9.162  17.818  0.00  0.00    +0.000 C 
ATOM      2  N   UNL     1       1.853   8.431  19.040  0.00  0.00    +0.000 N 
ATOM      3  C   UNL     1       2.350   7.174  19.335  0.00  0.00    +0.000 A 
ATOM      4  C   UNL     1       1.912   6.931  20.618  0.00  0.00    +0.000 A 
ATOM      5  N   UNL     1       1.179   7.974  21.098  0.00  0.00    +0.000 NA
ATOM      6  C   UNL     1       1.122   8.880  20.135  0.00  0.00    +0.000 A 
ENDROOT
BRANCH   6   7
ATOM      7  C   UNL     1       0.405  10.162  20.285  0.00  0.00    +0.000 A 
ATOM      8  C   UNL     1      -0.817  10.336  19.610  0.00  0.00    +0.000 A 
ATOM      9  C   UNL     1      -1.531  11.537  19.693  0.00  0.00    +0.000 A 
ATOM     10  C   UNL     1      -1.036  12.592  20.457  0.00  0.00    +0.000 A 
ATOM     11  C   UNL     1       0.186  12.448  21.118  0.00  0.00    +0.000 A 
ATOM     12  C   UNL     1       0.905  11.247  21.015  0.00  0.00    +0.000 A 
BRANCH  10  13
ATOM     13  C   UNL     1      -1.761  13.822  20.547  0.00  0.00    +0.000 C 
ATOM     14  N   UNL     1      -2.336  14.827  20.634  0.00  0.00    +0.000 NA
ENDBRANCH  10  13
ENDBRANCH   6   7
BRANCH   3  15
ATOM     15  C   UNL     1       3.121   6.285  18.426  0.00  0.00    +0.000 C 
BRANCH  15  16
ATOM     16  O   UNL     1       4.300   5.862  19.109  0.00  0.00    +0.000 OA
BRANCH  16  17
ATOM     17  C   UNL     1       5.283   5.246  18.255  0.00  0.00    +0.000 C 
ATOM     18  C   UNL     1       6.523   6.140  18.051  0.00  0.00    +0.000 C 
ATOM     19  O   UNL     1       7.401   5.746  16.999  0.00  0.00    +0.000 OA
ATOM     20  C   UNL     1       6.833   5.279  15.896  0.00  0.00    +0.000 A 
ATOM     21  N   UNL     1       7.475   5.079  14.771  0.00  0.00    +0.000 NA
ATOM     22  C   UNL     1       6.537   4.504  13.932  0.00  0.00    +0.000 A 
ATOM     23  C   UNL     1       5.321   4.354  14.574  0.00  0.00    +0.000 A 
ATOM     24  N   UNL     1       5.536   4.860  15.822  0.00  0.00    +0.000 N 
ATOM     25  C   UNL     1       4.603   4.937  16.915  0.00  0.00    +0.000 C 
BRANCH  22  26
ATOM     26  N   UNL     1       6.871   4.112  12.580  0.00  0.00    +0.000 N 
ATOM     27  O   UNL     1       6.359   3.059  12.167  0.00  0.00    +0.000 OA
ATOM     28  O   UNL     1       7.646   4.835  11.938  0.00  0.00    +0.000 OA
ENDBRANCH  22  26
ENDBRANCH  16  17
ENDBRANCH  15  16
ENDBRANCH   3  15
TORSDOF 6
ENDMDL
