MODEL 1
REMARK VINA RESULT:      -7.4      0.000      0.000
REMARK  Name = 
REMARK  2 active torsions:
REMARK  status: ('A' for Active; 'I' for Inactive)
REMARK    1  A    between atoms: C_4  and  C_5
REMARK    2  A    between atoms: N_18  and  C_19
REMARK                            x       y       z     vdW  Elec       q    Type
REMARK                         _______ _______ _______ _____ _____    ______ ____
ROOT
ATOM      1  O   UNL     1       8.061   5.657  14.380  0.00  0.00    +0.000 OA
ATOM      2  C   UNL     1       7.055   5.116  14.792  0.00  0.00    +0.000 C 
ATOM      3  C   UNL     1       6.132   4.241  14.012  0.00  0.00    +0.000 C 
ATOM      4  C   UNL     1       6.325   3.991  12.711  0.00  0.00    +0.000 C 
ATOM      5  N   UNL     1       5.106   3.794  14.825  0.00  0.00    +0.000 NA
ATOM      6  C   UNL     1       5.336   4.334  15.985  0.00  0.00    +0.000 C 
ATOM      7  N   UNL     1       4.489   4.239  17.060  0.00  0.00    +0.000 N 
ATOM      8  C   UNL     1       4.143   2.966  17.674  0.00  0.00    +0.000 C 
ATOM      9  C   UNL     1       2.642   2.698  17.606  0.00  0.00    +0.000 C 
ATOM     10  C   UNL     1       1.827   3.890  18.104  0.00  0.00    +0.000 C 
ATOM     11  C   UNL     1       2.244   5.168  17.381  0.00  0.00    +0.000 C 
ATOM     12  C   UNL     1       3.746   5.408  17.519  0.00  0.00    +0.000 C 
ATOM     13  N   UNL     1       6.468   5.104  16.031  0.00  0.00    +0.000 N 
ENDROOT
BRANCH  13  14
ATOM     14  C   UNL     1       7.071   5.646  17.174  0.00  0.00    +0.000 A 
ATOM     15  C   UNL     1       7.301   7.020  17.240  0.00  0.00    +0.000 A 
ATOM     16  C   UNL     1       7.950   7.567  18.346  0.00  0.00    +0.000 A 
ATOM     17  C   UNL     1       8.405   6.734  19.369  0.00  0.00    +0.000 A 
ATOM     18  C   UNL     1       8.171   5.361  19.311  0.00  0.00    +0.000 A 
ATOM     19  C   UNL     1       7.482   4.817  18.225  0.00  0.00    +0.000 A 
ENDBRANCH  13  14
BRANCH   4  20
ATOM     20  C   UNL     1       5.377   3.262  11.944  0.00  0.00    +0.000 A 
ATOM     21  C   UNL     1       4.138   3.662  11.450  0.00  0.00    +0.000 A 
ATOM     22  C   UNL     1       3.563   2.576  10.761  0.00  0.00    +0.000 A 
ATOM     23  C   UNL     1       4.482   1.563  10.837  0.00  0.00    +0.000 A 
ATOM     24  O   UNL     1       5.584   1.967  11.519  0.00  0.00    +0.000 OA
ENDBRANCH   4  20
TORSDOF 2
ENDMDL
MODEL 2
REMARK VINA RESULT:      -7.2      3.815      6.589
REMARK  Name = 
REMARK  2 active torsions:
REMARK  status: ('A' for Active; 'I' for Inactive)
REMARK    1  A    between atoms: C_4  and  C_5
REMARK    2  A    between atoms: N_18  and  C_19
REMARK                            x       y       z     vdW  Elec       q    Type
REMARK                         _______ _______ _______ _____ _____    ______ ____
ROOT
ATOM      1  O   UNL     1       4.747   8.348  16.983  0.00  0.00    +0.000 OA
ATOM      2  C   UNL     1       3.944   7.591  17.490  0.00  0.00    +0.000 C 
ATOM      3  C   UNL     1       2.597   7.948  18.021  0.00  0.00    +0.000 C 
ATOM      4  C   UNL     1       2.145   9.209  18.016  0.00  0.00    +0.000 C 
ATOM      5  N   UNL     1       1.965   6.817  18.504  0.00  0.00    +0.000 NA
ATOM      6  C   UNL     1       2.815   5.851  18.319  0.00  0.00    +0.000 C 
ATOM      7  N   UNL     1       2.630   4.566  18.763  0.00  0.00    +0.000 N 
ATOM      8  C   UNL     1       1.523   3.735  18.313  0.00  0.00    +0.000 C 
ATOM      9  C   UNL     1       0.628   3.312  19.474  0.00  0.00    +0.000 C 
ATOM     10  C   UNL     1       1.434   2.731  20.633  0.00  0.00    +0.000 C 
ATOM     11  C   UNL     1       2.549   3.688  21.048  0.00  0.00    +0.000 C 
ATOM     12  C   UNL     1       3.438   4.040  19.858  0.00  0.00    +0.000 C 
ATOM     13  N   UNL     1       3.983   6.240  17.717  0.00  0.00    +0.000 N 
ENDROOT
BRANCH  13  14
ATOM     14  C   UNL     1       4.991   5.404  17.220  0.00  0.00    +0.000 A 
ATOM     15  C   UNL     1       6.220   5.348  17.878  0.00  0.00    +0.000 A 
ATOM     16  C   UNL     1       7.252   4.564  17.363  0.00  0.00    +0.000 A 
ATOM     17  C   UNL     1       7.069   3.866  16.170  0.00  0.00    +0.000 A 
ATOM     18  C   UNL     1       5.840   3.914  15.512  0.00  0.00    +0.000 A 
ATOM     19  C   UNL     1       4.791   4.663  16.048  0.00  0.00    +0.000 A 
ENDBRANCH  13  14
BRANCH   4  20
ATOM     20  C   UNL     1       0.917   9.563  18.635  0.00  0.00    +0.000 A 
ATOM     21  C   UNL     1      -0.291   9.945  18.058  0.00  0.00    +0.000 A 
ATOM     22  C   UNL     1      -1.212  10.211  19.091  0.00  0.00    +0.000 A 
ATOM     23  C   UNL     1      -0.541   9.957  20.257  0.00  0.00    +0.000 A 
ATOM     24  O   UNL     1       0.726   9.543  20.000  0.00  0.00    +0.000 OA
ENDBRANCH   4  20
TORSDOF 2
ENDMDL
MODEL 3
REMARK VINA RESULT:      -7.0      3.815      5.904
REMARK  Name = 
REMARK  2 active torsions:
REMARK  status: ('A' for Active; 'I' for Inactive)
REMARK    1  A    between atoms: C_4  and  C_5
REMARK    2  A    between atoms: N_18  and  C_19
REMARK                            x       y       z     vdW  Elec       q    Type
REMARK                         _______ _______ _______ _____ _____    ______ ____
ROOT
ATOM      1  O   UNL     1       2.943   9.054  17.542  0.00  0.00    +0.000 OA
ATOM      2  C   UNL     1       2.985   7.955  18.057  0.00  0.00    +0.000 C 
ATOM      3  C   UNL     1       3.867   6.820  17.660  0.00  0.00    +0.000 C 
ATOM      4  C   UNL     1       4.710   6.906  16.623  0.00  0.00    +0.000 C 
ATOM      5  N   UNL     1       3.644   5.737  18.491  0.00  0.00    +0.000 NA
ATOM      6  C   UNL     1       2.717   6.128  19.313  0.00  0.00    +0.000 C 
ATOM      7  N   UNL     1       2.116   5.315  20.241  0.00  0.00    +0.000 N 
ATOM      8  C   UNL     1       2.858   4.673  21.316  0.00  0.00    +0.000 C 
ATOM      9  C   UNL     1       2.760   3.153  21.239  0.00  0.00    +0.000 C 
ATOM     10  C   UNL     1       1.315   2.681  21.089  0.00  0.00    +0.000 C 
ATOM     11  C   UNL     1       0.635   3.389  19.920  0.00  0.00    +0.000 C 
ATOM     12  C   UNL     1       0.725   4.906  20.073  0.00  0.00    +0.000 C 
ATOM     13  N   UNL     1       2.303   7.420  19.118  0.00  0.00    +0.000 N 
ENDROOT
BRANCH  13  14
ATOM     14  C   UNL     1       1.470   8.171  19.957  0.00  0.00    +0.000 A 
ATOM     15  C   UNL     1       0.512   9.014  19.393  0.00  0.00    +0.000 A 
ATOM     16  C   UNL     1      -0.286   9.811  20.214  0.00  0.00    +0.000 A 
ATOM     17  C   UNL     1      -0.100   9.793  21.596  0.00  0.00    +0.000 A 
ATOM     18  C   UNL     1       0.851   8.947  22.165  0.00  0.00    +0.000 A 
ATOM     19  C   UNL     1       1.621   8.116  21.348  0.00  0.00    +0.000 A 
ENDBRANCH  13  14
BRANCH   4  20
ATOM     20  C   UNL     1       5.454   5.784  16.172  0.00  0.00    +0.000 A 
ATOM     21  C   UNL     1       5.211   4.931  15.098  0.00  0.00    +0.000 A 
ATOM     22  C   UNL     1       6.228   3.956  15.066  0.00  0.00    +0.000 A 
ATOM     23  C   UNL     1       7.066   4.265  16.104  0.00  0.00    +0.000 A 
ATOM     24  O   UNL     1       6.631   5.371  16.758  0.00  0.00    +0.000 OA
ENDBRANCH   4  20
TORSDOF 2
ENDMDL
MODEL 4
REMARK VINA RESULT:      -6.9     11.973     14.611
REMARK  Name = 
REMARK  2 active torsions:
REMARK  status: ('A' for Active; 'I' for Inactive)
REMARK    1  A    between atoms: C_4  and  C_5
REMARK    2  A    between atoms: N_18  and  C_19
REMARK                            x       y       z     vdW  Elec       q    Type
REMARK                         _______ _______ _______ _____ _____    ______ ____
ROOT
ATOM      1  O   UNL     1      -7.508  11.719  19.922  0.00  0.00    +0.000 OA
ATOM      2  C   UNL     1      -6.349  12.047  20.078  0.00  0.00    +0.000 C 
ATOM      3  C   UNL     1      -5.218  11.791  19.141  0.00  0.00    +0.000 C 
ATOM      4  C   UNL     1      -5.384  11.109  18.000  0.00  0.00    +0.000 C 
ATOM      5  N   UNL     1      -4.051  12.330  19.650  0.00  0.00    +0.000 NA
ATOM      6  C   UNL     1      -4.392  12.856  20.788  0.00  0.00    +0.000 C 
ATOM      7  N   UNL     1      -3.506  13.405  21.681  0.00  0.00    +0.000 N 
ATOM      8  C   UNL     1      -2.673  14.552  21.352  0.00  0.00    +0.000 C 
ATOM      9  C   UNL     1      -1.188  14.218  21.453  0.00  0.00    +0.000 C 
ATOM     10  C   UNL     1      -0.845  13.538  22.776  0.00  0.00    +0.000 C 
ATOM     11  C   UNL     1      -1.752  12.334  23.015  0.00  0.00    +0.000 C 
ATOM     12  C   UNL     1      -3.224  12.735  22.946  0.00  0.00    +0.000 C 
ATOM     13  N   UNL     1      -5.725  12.736  21.085  0.00  0.00    +0.000 N 
ENDROOT
BRANCH  13  14
ATOM     14  C   UNL     1      -6.413  13.363  22.132  0.00  0.00    +0.000 A 
ATOM     15  C   UNL     1      -6.815  12.609  23.235  0.00  0.00    +0.000 A 
ATOM     16  C   UNL     1      -7.550  13.207  24.258  0.00  0.00    +0.000 A 
ATOM     17  C   UNL     1      -7.917  14.550  24.160  0.00  0.00    +0.000 A 
ATOM     18  C   UNL     1      -7.511  15.308  23.063  0.00  0.00    +0.000 A 
ATOM     19  C   UNL     1      -6.738  14.723  22.059  0.00  0.00    +0.000 A 
ENDBRANCH  13  14
BRANCH   4  20
ATOM     20  C   UNL     1      -4.283  10.758  17.174  0.00  0.00    +0.000 A 
ATOM     21  C   UNL     1      -3.296   9.796  17.372  0.00  0.00    +0.000 A 
ATOM     22  C   UNL     1      -2.412   9.836  16.275  0.00  0.00    +0.000 A 
ATOM     23  C   UNL     1      -2.906  10.801  15.438  0.00  0.00    +0.000 A 
ATOM     24  O   UNL     1      -4.040  11.343  15.950  0.00  0.00    +0.000 OA
ENDBRANCH   4  20
TORSDOF 2
ENDMDL
MODEL 5
REMARK VINA RESULT:      -6.7      3.744      6.540
REMARK  Name = 
REMARK  2 active torsions:
REMARK  status: ('A' for Active; 'I' for Inactive)
REMARK    1  A    between atoms: C_4  and  C_5
REMARK    2  A    between atoms: N_18  and  C_19
REMARK                            x       y       z     vdW  Elec       q    Type
REMARK                         _______ _______ _______ _____ _____    ______ ____
ROOT
ATOM      1  O   UNL     1       4.894   8.457  17.025  0.00  0.00    +0.000 OA
ATOM      2  C   UNL     1       4.087   7.660  17.460  0.00  0.00    +0.000 C 
ATOM      3  C   UNL     1       2.740   7.973  18.017  0.00  0.00    +0.000 C 
ATOM      4  C   UNL     1       2.291   9.230  18.122  0.00  0.00    +0.000 C 
ATOM      5  N   UNL     1       2.103   6.805  18.396  0.00  0.00    +0.000 NA
ATOM      6  C   UNL     1       2.951   5.857  18.129  0.00  0.00    +0.000 C 
ATOM      7  N   UNL     1       2.761   4.538  18.457  0.00  0.00    +0.000 N 
ATOM      8  C   UNL     1       1.654   3.753  17.932  0.00  0.00    +0.000 C 
ATOM      9  C   UNL     1       0.754   3.232  19.049  0.00  0.00    +0.000 C 
ATOM     10  C   UNL     1       1.556   2.548  20.154  0.00  0.00    +0.000 C 
ATOM     11  C   UNL     1       2.671   3.461  20.656  0.00  0.00    +0.000 C 
ATOM     12  C   UNL     1       3.565   3.916  19.503  0.00  0.00    +0.000 C 
ATOM     13  N   UNL     1       4.122   6.295  17.567  0.00  0.00    +0.000 N 
ENDROOT
BRANCH  13  14
ATOM     14  C   UNL     1       5.130   5.503  17.001  0.00  0.00    +0.000 A 
ATOM     15  C   UNL     1       4.873   4.812  15.817  0.00  0.00    +0.000 A 
ATOM     16  C   UNL     1       5.847   3.975  15.272  0.00  0.00    +0.000 A 
ATOM     17  C   UNL     1       7.063   3.799  15.932  0.00  0.00    +0.000 A 
ATOM     18  C   UNL     1       7.327   4.493  17.113  0.00  0.00    +0.000 A 
ATOM     19  C   UNL     1       6.370   5.365  17.637  0.00  0.00    +0.000 A 
ENDBRANCH  13  14
BRANCH   4  20
ATOM     20  C   UNL     1       1.062   9.532  18.767  0.00  0.00    +0.000 A 
ATOM     21  C   UNL     1      -0.150   9.947  18.220  0.00  0.00    +0.000 A 
ATOM     22  C   UNL     1      -1.070  10.133  19.271  0.00  0.00    +0.000 A 
ATOM     23  C   UNL     1      -0.395   9.799  20.415  0.00  0.00    +0.000 A 
ATOM     24  O   UNL     1       0.873   9.413  20.127  0.00  0.00    +0.000 OA
ENDBRANCH   4  20
TORSDOF 2
ENDMDL
MODEL 6
REMARK VINA RESULT:      -6.6      4.275      6.803
REMARK  Name = 
REMARK  2 active torsions:
REMARK  status: ('A' for Active; 'I' for Inactive)
REMARK    1  A    between atoms: C_4  and  C_5
REMARK    2  A    between atoms: N_18  and  C_19
REMARK                            x       y       z     vdW  Elec       q    Type
REMARK                         _______ _______ _______ _____ _____    ______ ____
ROOT
ATOM      1  O   UNL     1       5.679   3.532  19.171  0.00  0.00    +0.000 OA
ATOM      2  C   UNL     1       5.113   4.596  19.025  0.00  0.00    +0.000 C 
ATOM      3  C   UNL     1       5.745   5.898  18.666  0.00  0.00    +0.000 C 
ATOM      4  C   UNL     1       7.069   6.021  18.499  0.00  0.00    +0.000 C 
ATOM      5  N   UNL     1       4.779   6.883  18.570  0.00  0.00    +0.000 NA
ATOM      6  C   UNL     1       3.660   6.284  18.852  0.00  0.00    +0.000 C 
ATOM      7  N   UNL     1       2.454   6.925  18.982  0.00  0.00    +0.000 N 
ATOM      8  C   UNL     1       1.835   7.657  17.887  0.00  0.00    +0.000 C 
ATOM      9  C   UNL     1       1.641   9.131  18.233  0.00  0.00    +0.000 C 
ATOM     10  C   UNL     1       0.962   9.313  19.588  0.00  0.00    +0.000 C 
ATOM     11  C   UNL     1       1.701   8.532  20.672  0.00  0.00    +0.000 C 
ATOM     12  C   UNL     1       1.826   7.058  20.292  0.00  0.00    +0.000 C 
ATOM     13  N   UNL     1       3.790   4.944  19.112  0.00  0.00    +0.000 N 
ENDROOT
BRANCH  13  14
ATOM     14  C   UNL     1       2.755   4.011  19.252  0.00  0.00    +0.000 A 
ATOM     15  C   UNL     1       2.095   3.544  18.116  0.00  0.00    +0.000 A 
ATOM     16  C   UNL     1       1.026   2.659  18.244  0.00  0.00    +0.000 A 
ATOM     17  C   UNL     1       0.592   2.269  19.511  0.00  0.00    +0.000 A 
ATOM     18  C   UNL     1       1.252   2.728  20.650  0.00  0.00    +0.000 A 
ATOM     19  C   UNL     1       2.351   3.580  20.522  0.00  0.00    +0.000 A 
ENDBRANCH  13  14
BRANCH   4  20
ATOM     20  C   UNL     1       7.679   7.285  18.282  0.00  0.00    +0.000 A 
ATOM     21  C   UNL     1       8.618   7.962  19.055  0.00  0.00    +0.000 A 
ATOM     22  C   UNL     1       8.905   9.191  18.429  0.00  0.00    +0.000 A 
ATOM     23  C   UNL     1       8.152   9.207  17.286  0.00  0.00    +0.000 A 
ATOM     24  O   UNL     1       7.433   8.062  17.170  0.00  0.00    +0.000 OA
ENDBRANCH   4  20
TORSDOF 2
ENDMDL
MODEL 7
REMARK VINA RESULT:      -6.4      3.906      6.671
REMARK  Name = 
REMARK  2 active torsions:
REMARK  status: ('A' for Active; 'I' for Inactive)
REMARK    1  A    between atoms: C_4  and  C_5
REMARK    2  A    between atoms: N_18  and  C_19
REMARK                            x       y       z     vdW  Elec       q    Type
REMARK                         _______ _______ _______ _____ _____    ______ ____
ROOT
ATOM      1  O   UNL     1       6.534   3.961  18.645  0.00  0.00    +0.000 OA
ATOM      2  C   UNL     1       5.837   4.952  18.561  0.00  0.00    +0.000 C 
ATOM      3  C   UNL     1       6.304   6.353  18.352  0.00  0.00    +0.000 C 
ATOM      4  C   UNL     1       7.605   6.661  18.270  0.00  0.00    +0.000 C 
ATOM      5  N   UNL     1       5.219   7.208  18.290  0.00  0.00    +0.000 NA
ATOM      6  C   UNL     1       4.179   6.446  18.456  0.00  0.00    +0.000 C 
ATOM      7  N   UNL     1       2.893   6.910  18.575  0.00  0.00    +0.000 N 
ATOM      8  C   UNL     1       2.230   7.655  17.515  0.00  0.00    +0.000 C 
ATOM      9  C   UNL     1       1.825   9.051  17.977  0.00  0.00    +0.000 C 
ATOM     10  C   UNL     1       1.070   9.016  19.303  0.00  0.00    +0.000 C 
ATOM     11  C   UNL     1       1.859   8.239  20.354  0.00  0.00    +0.000 C 
ATOM     12  C   UNL     1       2.198   6.836  19.855  0.00  0.00    +0.000 C 
ATOM     13  N   UNL     1       4.477   5.116  18.604  0.00  0.00    +0.000 N 
ENDROOT
BRANCH  13  14
ATOM     14  C   UNL     1       3.572   4.047  18.606  0.00  0.00    +0.000 A 
ATOM     15  C   UNL     1       3.150   3.509  19.822  0.00  0.00    +0.000 A 
ATOM     16  C   UNL     1       2.294   2.408  19.838  0.00  0.00    +0.000 A 
ATOM     17  C   UNL     1       1.889   1.822  18.639  0.00  0.00    +0.000 A 
ATOM     18  C   UNL     1       2.303   2.359  17.421  0.00  0.00    +0.000 A 
ATOM     19  C   UNL     1       3.125   3.488  17.401  0.00  0.00    +0.000 A 
ENDBRANCH  13  14
BRANCH   4  20
ATOM     20  C   UNL     1       8.048   8.009  18.198  0.00  0.00    +0.000 A 
ATOM     21  C   UNL     1       8.884   8.715  19.059  0.00  0.00    +0.000 A 
ATOM     22  C   UNL     1       9.016  10.030  18.569  0.00  0.00    +0.000 A 
ATOM     23  C   UNL     1       8.279  10.069  17.416  0.00  0.00    +0.000 A 
ATOM     24  O   UNL     1       7.715   8.860  17.167  0.00  0.00    +0.000 OA
ENDBRANCH   4  20
TORSDOF 2
ENDMDL
MODEL 8
REMARK VINA RESULT:      -6.3     10.249     12.411
REMARK  Name = 
REMARK  2 active torsions:
REMARK  status: ('A' for Active; 'I' for Inactive)
REMARK    1  A    between atoms: C_4  and  C_5
REMARK    2  A    between atoms: N_18  and  C_19
REMARK                            x       y       z     vdW  Elec       q    Type
REMARK                         _______ _______ _______ _____ _____    ______ ____
ROOT
ATOM      1  O   UNL     1       1.415  14.110  22.039  0.00  0.00    +0.000 OA
ATOM      2  C   UNL     1       0.717  13.836  21.083  0.00  0.00    +0.000 C 
ATOM      3  C   UNL     1       0.475  14.690  19.885  0.00  0.00    +0.000 C 
ATOM      4  C   UNL     1       1.007  15.914  19.769  0.00  0.00    +0.000 C 
ATOM      5  N   UNL     1      -0.360  14.035  18.999  0.00  0.00    +0.000 NA
ATOM      6  C   UNL     1      -0.633  12.900  19.570  0.00  0.00    +0.000 C 
ATOM      7  N   UNL     1      -1.527  11.983  19.077  0.00  0.00    +0.000 N 
ATOM      8  C   UNL     1      -1.352  11.338  17.784  0.00  0.00    +0.000 C 
ATOM      9  C   UNL     1      -2.512  11.643  16.841  0.00  0.00    +0.000 C 
ATOM     10  C   UNL     1      -3.865  11.392  17.502  0.00  0.00    +0.000 C 
ATOM     11  C   UNL     1      -3.960  12.133  18.834  0.00  0.00    +0.000 C 
ATOM     12  C   UNL     1      -2.800  11.756  19.753  0.00  0.00    +0.000 C 
ATOM     13  N   UNL     1      -0.020  12.721  20.783  0.00  0.00    +0.000 N 
ENDROOT
BRANCH  13  14
ATOM     14  C   UNL     1       0.030  11.539  21.533  0.00  0.00    +0.000 A 
ATOM     15  C   UNL     1       0.902  10.520  21.146  0.00  0.00    +0.000 A 
ATOM     16  C   UNL     1       0.922   9.316  21.849  0.00  0.00    +0.000 A 
ATOM     17  C   UNL     1       0.045   9.115  22.915  0.00  0.00    +0.000 A 
ATOM     18  C   UNL     1      -0.823  10.132  23.309  0.00  0.00    +0.000 A 
ATOM     19  C   UNL     1      -0.815  11.355  22.635  0.00  0.00    +0.000 A 
ENDBRANCH  13  14
BRANCH   4  20
ATOM     20  C   UNL     1       0.672  16.772  18.687  0.00  0.00    +0.000 A 
ATOM     21  C   UNL     1       1.503  17.406  17.767  0.00  0.00    +0.000 A 
ATOM     22  C   UNL     1       0.699  18.165  16.893  0.00  0.00    +0.000 A 
ATOM     23  C   UNL     1      -0.591  17.946  17.295  0.00  0.00    +0.000 A 
ATOM     24  O   UNL     1      -0.625  17.094  18.351  0.00  0.00    +0.000 OA
ENDBRANCH   4  20
TORSDOF 2
ENDMDL
MODEL 9
REMARK VINA RESULT:      -6.2      9.930     12.449
REMARK  Name = 
REMARK  2 active torsions:
REMARK  status: ('A' for Active; 'I' for Inactive)
REMARK    1  A    between atoms: C_4  and  C_5
REMARK    2  A    between atoms: N_18  and  C_19
REMARK                            x       y       z     vdW  Elec       q    Type
REMARK                         _______ _______ _______ _____ _____    ______ ____
ROOT
ATOM      1  O   UNL     1      -3.063   9.268  17.487  0.00  0.00    +0.000 OA
ATOM      2  C   UNL     1      -2.941  10.342  18.041  0.00  0.00    +0.000 C 
ATOM      3  C   UNL     1      -3.996  11.383  18.203  0.00  0.00    +0.000 C 
ATOM      4  C   UNL     1      -5.225  11.232  17.694  0.00  0.00    +0.000 C 
ATOM      5  N   UNL     1      -3.490  12.462  18.905  0.00  0.00    +0.000 NA
ATOM      6  C   UNL     1      -2.252  12.154  19.149  0.00  0.00    +0.000 C 
ATOM      7  N   UNL     1      -1.346  13.004  19.734  0.00  0.00    +0.000 N 
ATOM      8  C   UNL     1      -1.524  13.531  21.079  0.00  0.00    +0.000 C 
ATOM      9  C   UNL     1      -1.604  15.055  21.080  0.00  0.00    +0.000 C 
ATOM     10  C   UNL     1      -0.458  15.686  20.292  0.00  0.00    +0.000 C 
ATOM     11  C   UNL     1      -0.373  15.088  18.890  0.00  0.00    +0.000 C 
ATOM     12  C   UNL     1      -0.251  13.567  18.951  0.00  0.00    +0.000 C 
ATOM     13  N   UNL     1      -1.878  10.921  18.682  0.00  0.00    +0.000 N 
ENDROOT
BRANCH  13  14
ATOM     14  C   UNL     1      -0.683  10.244  18.959  0.00  0.00    +0.000 A 
ATOM     15  C   UNL     1       0.212   9.984  17.921  0.00  0.00    +0.000 A 
ATOM     16  C   UNL     1       1.379   9.261  18.171  0.00  0.00    +0.000 A 
ATOM     17  C   UNL     1       1.631   8.766  19.450  0.00  0.00    +0.000 A 
ATOM     18  C   UNL     1       0.743   9.028  20.491  0.00  0.00    +0.000 A 
ATOM     19  C   UNL     1      -0.404   9.789  20.254  0.00  0.00    +0.000 A 
ENDBRANCH  13  14
BRANCH   4  20
ATOM     20  C   UNL     1      -6.186  12.277  17.741  0.00  0.00    +0.000 A 
ATOM     21  C   UNL     1      -7.229  12.485  18.640  0.00  0.00    +0.000 A 
ATOM     22  C   UNL     1      -7.916  13.655  18.261  0.00  0.00    +0.000 A 
ATOM     23  C   UNL     1      -7.251  14.132  17.162  0.00  0.00    +0.000 A 
ATOM     24  O   UNL     1      -6.198  13.333  16.855  0.00  0.00    +0.000 OA
ENDBRANCH   4  20
TORSDOF 2
ENDMDL
