MODEL 1
REMARK VINA RESULT:      -8.4      0.000      0.000
REMARK  Name = 
REMARK  9 active torsions:
REMARK  status: ('A' for Active; 'I' for Inactive)
REMARK    1  A    between atoms: C_1  and  C_2
REMARK    2  A    between atoms: C_2  and  C_3
REMARK    3  A    between atoms: C_3  and  N_4
REMARK    4  A    between atoms: N_4  and  C_5
REMARK    5  A    between atoms: C_5  and  C_6
REMARK    6  A    between atoms: C_6  and  O_7
REMARK    7  A    between atoms: C_6  and  C_8
REMARK    8  A    between atoms: C_13  and  C_14
REMARK    9  A    between atoms: C_22  and  C_23
REMARK                            x       y       z     vdW  Elec       q    Type
REMARK                         _______ _______ _______ _____ _____    ______ ____
ROOT
ATOM      1  C   UNL     1       4.414   6.159  17.167  0.00  0.00    +0.000 A 
ATOM      2  C   UNL     1       3.970   7.488  17.058  0.00  0.00    +0.000 A 
ATOM      3  C   UNL     1       3.015   8.025  17.922  0.00  0.00    +0.000 A 
ATOM      4  C   UNL     1       2.571   9.343  17.725  0.00  0.00    +0.000 A 
ATOM      5  C   UNL     1       1.565   9.893  18.515  0.00  0.00    +0.000 A 
ATOM      6  C   UNL     1       0.984   9.131  19.526  0.00  0.00    +0.000 A 
ATOM      7  C   UNL     1       1.458   7.823  19.745  0.00  0.00    +0.000 A 
ATOM      8  C   UNL     1       2.483   7.228  18.959  0.00  0.00    +0.000 A 
ATOM      9  C   UNL     1       2.975   5.886  19.140  0.00  0.00    +0.000 A 
ATOM     10  C   UNL     1       2.528   5.044  20.192  0.00  0.00    +0.000 A 
ATOM     11  C   UNL     1       2.972   3.725  20.368  0.00  0.00    +0.000 A 
ATOM     12  C   UNL     1       3.901   3.216  19.469  0.00  0.00    +0.000 A 
ATOM     13  C   UNL     1       4.372   4.015  18.428  0.00  0.00    +0.000 A 
ATOM     14  C   UNL     1       3.938   5.351  18.234  0.00  0.00    +0.000 A 
ENDROOT
BRANCH   6  15
ATOM     15  C   UNL     1      -0.150   9.666  20.363  0.00  0.00    +0.000 C 
ATOM     16  F   UNL     1       0.180  10.771  21.089  0.00  0.00    +0.000 F 
ATOM     17  F   UNL     1      -1.224  10.025  19.609  0.00  0.00    +0.000 F 
ATOM     18  F   UNL     1      -0.611   8.752  21.260  0.00  0.00    +0.000 F 
ENDBRANCH   6  15
BRANCH  11  19
ATOM     19  C   UNL     1       2.461   2.867  21.498  0.00  0.00    +0.000 C 
ATOM     20  F   UNL     1       1.284   2.240  21.216  0.00  0.00    +0.000 F 
ATOM     21  F   UNL     1       3.335   1.879  21.836  0.00  0.00    +0.000 F 
ATOM     22  F   UNL     1       2.241   3.579  22.636  0.00  0.00    +0.000 F 
ENDBRANCH  11  19
BRANCH   1  23
ATOM     23  C   UNL     1       5.292   5.591  16.054  0.00  0.00    +0.000 C 
BRANCH  23  24
ATOM     24  O   UNL     1       4.775   4.336  15.583  0.00  0.00    +0.000 OA
ATOM     25  H   UNL     1       5.015   3.659  16.234  0.00  0.00    +0.000 HD
ENDBRANCH  23  24
BRANCH  23  26
ATOM     26  C   UNL     1       6.746   5.426  16.578  0.00  0.00    +0.000 C 
BRANCH  26  27
ATOM     27  N   UNL     1       7.529   6.665  16.462  0.00  0.00    +0.000 NA
ATOM     28  H   UNL     1       8.417   6.475  15.996  0.00  0.00    +0.000 HD
BRANCH  27  29
ATOM     29  C   UNL     1       7.748   7.264  17.777  0.00  0.00    +0.000 C 
BRANCH  29  31
ATOM     30  C   UNL     1       8.769   9.345  18.742  0.00  0.00    +0.000 C 
ATOM     31  C   UNL     1       7.867   8.782  17.655  0.00  0.00    +0.000 C 
ENDBRANCH  29  31
ENDBRANCH  27  29
ENDBRANCH  26  27
ENDBRANCH  23  26
ENDBRANCH   1  23
TORSDOF 8
ENDMDL
MODEL 2
REMARK VINA RESULT:      -8.4      1.040      1.181
REMARK  Name = 
REMARK  9 active torsions:
REMARK  status: ('A' for Active; 'I' for Inactive)
REMARK    1  A    between atoms: C_1  and  C_2
REMARK    2  A    between atoms: C_2  and  C_3
REMARK    3  A    between atoms: C_3  and  N_4
REMARK    4  A    between atoms: N_4  and  C_5
REMARK    5  A    between atoms: C_5  and  C_6
REMARK    6  A    between atoms: C_6  and  O_7
REMARK    7  A    between atoms: C_6  and  C_8
REMARK    8  A    between atoms: C_13  and  C_14
REMARK    9  A    between atoms: C_22  and  C_23
REMARK                            x       y       z     vdW  Elec       q    Type
REMARK                         _______ _______ _______ _____ _____    ______ ____
ROOT
ATOM      1  C   UNL     1       4.262   6.171  17.042  0.00  0.00    +0.000 A 
ATOM      2  C   UNL     1       3.825   7.507  16.992  0.00  0.00    +0.000 A 
ATOM      3  C   UNL     1       2.933   8.032  17.928  0.00  0.00    +0.000 A 
ATOM      4  C   UNL     1       2.491   9.358  17.789  0.00  0.00    +0.000 A 
ATOM      5  C   UNL     1       1.543   9.898  18.655  0.00  0.00    +0.000 A 
ATOM      6  C   UNL     1       1.023   9.118  19.685  0.00  0.00    +0.000 A 
ATOM      7  C   UNL     1       1.497   7.802  19.845  0.00  0.00    +0.000 A 
ATOM      8  C   UNL     1       2.463   7.216  18.980  0.00  0.00    +0.000 A 
ATOM      9  C   UNL     1       2.953   5.866  19.099  0.00  0.00    +0.000 A 
ATOM     10  C   UNL     1       2.567   5.005  20.159  0.00  0.00    +0.000 A 
ATOM     11  C   UNL     1       3.009   3.678  20.277  0.00  0.00    +0.000 A 
ATOM     12  C   UNL     1       3.873   3.182  19.308  0.00  0.00    +0.000 A 
ATOM     13  C   UNL     1       4.282   4.001  18.256  0.00  0.00    +0.000 A 
ATOM     14  C   UNL     1       3.849   5.344  18.121  0.00  0.00    +0.000 A 
ENDROOT
BRANCH   6  15
ATOM     15  C   UNL     1      -0.049   9.643  20.607  0.00  0.00    +0.000 C 
ATOM     16  F   UNL     1       0.403  10.569  21.499  0.00  0.00    +0.000 F 
ATOM     17  F   UNL     1      -1.063  10.246  19.929  0.00  0.00    +0.000 F 
ATOM     18  F   UNL     1      -0.627   8.660  21.347  0.00  0.00    +0.000 F 
ENDBRANCH   6  15
BRANCH  11  19
ATOM     19  C   UNL     1       2.564   2.799  21.419  0.00  0.00    +0.000 C 
ATOM     20  F   UNL     1       1.493   2.013  21.115  0.00  0.00    +0.000 F 
ATOM     21  F   UNL     1       3.545   1.948  21.831  0.00  0.00    +0.000 F 
ATOM     22  F   UNL     1       2.202   3.515  22.518  0.00  0.00    +0.000 F 
ENDBRANCH  11  19
BRANCH   1  23
ATOM     23  C   UNL     1       5.060   5.621  15.862  0.00  0.00    +0.000 C 
BRANCH  23  24
ATOM     24  O   UNL     1       4.820   4.216  15.691  0.00  0.00    +0.000 OA
ATOM     25  H   UNL     1       5.310   3.929  14.906  0.00  0.00    +0.000 HD
ENDBRANCH  23  24
BRANCH  23  26
ATOM     26  C   UNL     1       6.572   5.898  16.088  0.00  0.00    +0.000 C 
BRANCH  26  27
ATOM     27  N   UNL     1       7.356   4.662  16.222  0.00  0.00    +0.000 NA
ATOM     28  H   UNL     1       6.807   3.864  15.902  0.00  0.00    +0.000 HD
BRANCH  27  29
ATOM     29  C   UNL     1       7.792   4.472  17.605  0.00  0.00    +0.000 C 
BRANCH  29  31
ATOM     30  C   UNL     1       7.233   5.590  19.783  0.00  0.00    +0.000 C 
ATOM     31  C   UNL     1       7.738   5.797  18.363  0.00  0.00    +0.000 C 
ENDBRANCH  29  31
ENDBRANCH  27  29
ENDBRANCH  26  27
ENDBRANCH  23  26
ENDBRANCH   1  23
TORSDOF 8
ENDMDL
MODEL 3
REMARK VINA RESULT:      -8.1      3.927      6.085
REMARK  Name = 
REMARK  9 active torsions:
REMARK  status: ('A' for Active; 'I' for Inactive)
REMARK    1  A    between atoms: C_1  and  C_2
REMARK    2  A    between atoms: C_2  and  C_3
REMARK    3  A    between atoms: C_3  and  N_4
REMARK    4  A    between atoms: N_4  and  C_5
REMARK    5  A    between atoms: C_5  and  C_6
REMARK    6  A    between atoms: C_6  and  O_7
REMARK    7  A    between atoms: C_6  and  C_8
REMARK    8  A    between atoms: C_13  and  C_14
REMARK    9  A    between atoms: C_22  and  C_23
REMARK                            x       y       z     vdW  Elec       q    Type
REMARK                         _______ _______ _______ _____ _____    ______ ____
ROOT
ATOM      1  C   UNL     1       6.908   6.039  17.782  0.00  0.00    +0.000 A 
ATOM      2  C   UNL     1       6.057   5.820  18.880  0.00  0.00    +0.000 A 
ATOM      3  C   UNL     1       4.886   5.070  18.774  0.00  0.00    +0.000 A 
ATOM      4  C   UNL     1       4.050   4.937  19.895  0.00  0.00    +0.000 A 
ATOM      5  C   UNL     1       2.834   4.262  19.815  0.00  0.00    +0.000 A 
ATOM      6  C   UNL     1       2.434   3.700  18.605  0.00  0.00    +0.000 A 
ATOM      7  C   UNL     1       3.292   3.802  17.493  0.00  0.00    +0.000 A 
ATOM      8  C   UNL     1       4.540   4.484  17.538  0.00  0.00    +0.000 A 
ATOM      9  C   UNL     1       5.431   4.628  16.414  0.00  0.00    +0.000 A 
ATOM     10  C   UNL     1       5.177   4.024  15.155  0.00  0.00    +0.000 A 
ATOM     11  C   UNL     1       6.017   4.176  14.042  0.00  0.00    +0.000 A 
ATOM     12  C   UNL     1       7.158   4.956  14.178  0.00  0.00    +0.000 A 
ATOM     13  C   UNL     1       7.447   5.559  15.402  0.00  0.00    +0.000 A 
ATOM     14  C   UNL     1       6.614   5.415  16.539  0.00  0.00    +0.000 A 
ENDROOT
BRANCH   6  15
ATOM     15  C   UNL     1       1.099   3.014  18.458  0.00  0.00    +0.000 C 
ATOM     16  F   UNL     1       0.279   3.603  17.543  0.00  0.00    +0.000 F 
ATOM     17  F   UNL     1       1.225   1.718  18.063  0.00  0.00    +0.000 F 
ATOM     18  F   UNL     1       0.399   2.982  19.624  0.00  0.00    +0.000 F 
ENDBRANCH   6  15
BRANCH  11  19
ATOM     19  C   UNL     1       5.699   3.519  12.722  0.00  0.00    +0.000 C 
ATOM     20  F   UNL     1       5.888   2.170  12.726  0.00  0.00    +0.000 F 
ATOM     21  F   UNL     1       4.405   3.712  12.344  0.00  0.00    +0.000 F 
ATOM     22  F   UNL     1       6.463   3.999  11.703  0.00  0.00    +0.000 F 
ENDBRANCH  11  19
BRANCH   1  23
ATOM     23  C   UNL     1       8.046   7.046  17.930  0.00  0.00    +0.000 C 
BRANCH  23  24
ATOM     24  O   UNL     1       8.673   6.924  19.217  0.00  0.00    +0.000 OA
ATOM     25  H   UNL     1       9.632   6.939  19.076  0.00  0.00    +0.000 HD
ENDBRANCH  23  24
BRANCH  23  26
ATOM     26  C   UNL     1       7.493   8.483  17.721  0.00  0.00    +0.000 C 
BRANCH  26  27
ATOM     27  N   UNL     1       8.561   9.488  17.628  0.00  0.00    +0.000 NA
ATOM     28  H   UNL     1       9.384   9.084  17.180  0.00  0.00    +0.000 HD
BRANCH  27  29
ATOM     29  C   UNL     1       8.895  10.013  18.951  0.00  0.00    +0.000 C 
BRANCH  29  31
ATOM     30  C   UNL     1      10.518  11.497  17.740  0.00  0.00    +0.000 C 
ATOM     31  C   UNL     1       9.463  11.426  18.833  0.00  0.00    +0.000 C 
ENDBRANCH  29  31
ENDBRANCH  27  29
ENDBRANCH  26  27
ENDBRANCH  23  26
ENDBRANCH   1  23
TORSDOF 8
ENDMDL
MODEL 4
REMARK VINA RESULT:      -8.0      0.604      1.365
REMARK  Name = 
REMARK  9 active torsions:
REMARK  status: ('A' for Active; 'I' for Inactive)
REMARK    1  A    between atoms: C_1  and  C_2
REMARK    2  A    between atoms: C_2  and  C_3
REMARK    3  A    between atoms: C_3  and  N_4
REMARK    4  A    between atoms: N_4  and  C_5
REMARK    5  A    between atoms: C_5  and  C_6
REMARK    6  A    between atoms: C_6  and  O_7
REMARK    7  A    between atoms: C_6  and  C_8
REMARK    8  A    between atoms: C_13  and  C_14
REMARK    9  A    between atoms: C_22  and  C_23
REMARK                            x       y       z     vdW  Elec       q    Type
REMARK                         _______ _______ _______ _____ _____    ______ ____
ROOT
ATOM      1  C   UNL     1       4.413   6.103  17.026  0.00  0.00    +0.000 A 
ATOM      2  C   UNL     1       3.979   7.437  16.936  0.00  0.00    +0.000 A 
ATOM      3  C   UNL     1       3.049   7.977  17.826  0.00  0.00    +0.000 A 
ATOM      4  C   UNL     1       2.613   9.300  17.647  0.00  0.00    +0.000 A 
ATOM      5  C   UNL     1       1.630   9.854  18.463  0.00  0.00    +0.000 A 
ATOM      6  C   UNL     1       1.067   9.091  19.483  0.00  0.00    +0.000 A 
ATOM      7  C   UNL     1       1.534   7.778  19.684  0.00  0.00    +0.000 A 
ATOM      8  C   UNL     1       2.535   7.179  18.870  0.00  0.00    +0.000 A 
ATOM      9  C   UNL     1       3.019   5.831  19.032  0.00  0.00    +0.000 A 
ATOM     10  C   UNL     1       2.589   4.987  20.089  0.00  0.00    +0.000 A 
ATOM     11  C   UNL     1       3.026   3.663  20.247  0.00  0.00    +0.000 A 
ATOM     12  C   UNL     1       3.929   3.151  19.323  0.00  0.00    +0.000 A 
ATOM     13  C   UNL     1       4.382   3.953  18.276  0.00  0.00    +0.000 A 
ATOM     14  C   UNL     1       3.956   5.293  18.100  0.00  0.00    +0.000 A 
ENDROOT
BRANCH   6  15
ATOM     15  C   UNL     1      -0.042   9.631  20.350  0.00  0.00    +0.000 C 
ATOM     16  F   UNL     1      -1.143  10.024  19.649  0.00  0.00    +0.000 F 
ATOM     17  F   UNL     1      -0.486   8.713  21.252  0.00  0.00    +0.000 F 
ATOM     18  F   UNL     1       0.345  10.713  21.079  0.00  0.00    +0.000 F 
ENDBRANCH   6  15
BRANCH  11  19
ATOM     19  C   UNL     1       2.533   2.802  21.383  0.00  0.00    +0.000 C 
ATOM     20  F   UNL     1       3.463   1.915  21.837  0.00  0.00    +0.000 F 
ATOM     21  F   UNL     1       2.162   3.538  22.468  0.00  0.00    +0.000 F 
ATOM     22  F   UNL     1       1.445   2.060  21.043  0.00  0.00    +0.000 F 
ENDBRANCH  11  19
BRANCH   1  23
ATOM     23  C   UNL     1       5.260   5.534  15.890  0.00  0.00    +0.000 C 
BRANCH  23  24
ATOM     24  O   UNL     1       4.716   4.291  15.418  0.00  0.00    +0.000 OA
ATOM     25  H   UNL     1       5.191   3.576  15.868  0.00  0.00    +0.000 HD
ENDBRANCH  23  24
BRANCH  23  26
ATOM     26  C   UNL     1       6.722   5.345  16.382  0.00  0.00    +0.000 C 
BRANCH  26  27
ATOM     27  N   UNL     1       7.483   6.603  16.379  0.00  0.00    +0.000 NA
ATOM     28  H   UNL     1       8.440   6.432  16.071  0.00  0.00    +0.000 HD
BRANCH  27  29
ATOM     29  C   UNL     1       7.466   7.221  17.704  0.00  0.00    +0.000 C 
BRANCH  29  31
ATOM     30  C   UNL     1       7.205   5.652  19.648  0.00  0.00    +0.000 C 
ATOM     31  C   UNL     1       8.192   6.333  18.712  0.00  0.00    +0.000 C 
ENDBRANCH  29  31
ENDBRANCH  27  29
ENDBRANCH  26  27
ENDBRANCH  23  26
ENDBRANCH   1  23
TORSDOF 8
ENDMDL
MODEL 5
REMARK VINA RESULT:      -8.0      1.812      3.069
REMARK  Name = 
REMARK  9 active torsions:
REMARK  status: ('A' for Active; 'I' for Inactive)
REMARK    1  A    between atoms: C_1  and  C_2
REMARK    2  A    between atoms: C_2  and  C_3
REMARK    3  A    between atoms: C_3  and  N_4
REMARK    4  A    between atoms: N_4  and  C_5
REMARK    5  A    between atoms: C_5  and  C_6
REMARK    6  A    between atoms: C_6  and  O_7
REMARK    7  A    between atoms: C_6  and  C_8
REMARK    8  A    between atoms: C_13  and  C_14
REMARK    9  A    between atoms: C_22  and  C_23
REMARK                            x       y       z     vdW  Elec       q    Type
REMARK                         _______ _______ _______ _____ _____    ______ ____
ROOT
ATOM      1  C   UNL     1       4.904   5.723  17.294  0.00  0.00    +0.000 A 
ATOM      2  C   UNL     1       4.543   7.058  17.038  0.00  0.00    +0.000 A 
ATOM      3  C   UNL     1       3.522   7.699  17.739  0.00  0.00    +0.000 A 
ATOM      4  C   UNL     1       3.172   9.016  17.396  0.00  0.00    +0.000 A 
ATOM      5  C   UNL     1       2.109   9.667  18.016  0.00  0.00    +0.000 A 
ATOM      6  C   UNL     1       1.376   9.010  19.002  0.00  0.00    +0.000 A 
ATOM      7  C   UNL     1       1.753   7.704  19.370  0.00  0.00    +0.000 A 
ATOM      8  C   UNL     1       2.832   7.008  18.759  0.00  0.00    +0.000 A 
ATOM      9  C   UNL     1       3.231   5.664  19.094  0.00  0.00    +0.000 A 
ATOM     10  C   UNL     1       2.621   4.926  20.142  0.00  0.00    +0.000 A 
ATOM     11  C   UNL     1       2.974   3.607  20.465  0.00  0.00    +0.000 A 
ATOM     12  C   UNL     1       3.976   2.992  19.723  0.00  0.00    +0.000 A 
ATOM     13  C   UNL     1       4.605   3.688  18.692  0.00  0.00    +0.000 A 
ATOM     14  C   UNL     1       4.265   5.021  18.352  0.00  0.00    +0.000 A 
ENDROOT
BRANCH   6  15
ATOM     15  C   UNL     1       0.180   9.655  19.656  0.00  0.00    +0.000 C 
ATOM     16  F   UNL     1      -0.882   9.815  18.817  0.00  0.00    +0.000 F 
ATOM     17  F   UNL     1      -0.286   8.930  20.710  0.00  0.00    +0.000 F 
ATOM     18  F   UNL     1       0.459  10.892  20.148  0.00  0.00    +0.000 F 
ENDBRANCH   6  15
BRANCH  11  19
ATOM     19  C   UNL     1       2.291   2.861  21.583  0.00  0.00    +0.000 C 
ATOM     20  F   UNL     1       2.950   1.732  21.967  0.00  0.00    +0.000 F 
ATOM     21  F   UNL     1       2.162   3.617  22.708  0.00  0.00    +0.000 F 
ATOM     22  F   UNL     1       1.032   2.463  21.252  0.00  0.00    +0.000 F 
ENDBRANCH  11  19
BRANCH   1  23
ATOM     23  C   UNL     1       5.876   5.035  16.340  0.00  0.00    +0.000 C 
BRANCH  23  24
ATOM     24  O   UNL     1       7.231   5.421  16.621  0.00  0.00    +0.000 OA
ATOM     25  H   UNL     1       7.700   5.477  15.775  0.00  0.00    +0.000 HD
ENDBRANCH  23  24
BRANCH  23  26
ATOM     26  C   UNL     1       5.496   5.386  14.875  0.00  0.00    +0.000 C 
BRANCH  26  27
ATOM     27  N   UNL     1       5.235   4.191  14.060  0.00  0.00    +0.000 NA
ATOM     28  H   UNL     1       4.974   3.409  14.660  0.00  0.00    +0.000 HD
BRANCH  27  29
ATOM     29  C   UNL     1       6.402   3.855  13.245  0.00  0.00    +0.000 C 
BRANCH  29  31
ATOM     30  C   UNL     1       4.525   3.293  11.675  0.00  0.00    +0.000 C 
ATOM     31  C   UNL     1       5.980   3.030  12.031  0.00  0.00    +0.000 C 
ENDBRANCH  29  31
ENDBRANCH  27  29
ENDBRANCH  26  27
ENDBRANCH  23  26
ENDBRANCH   1  23
TORSDOF 8
ENDMDL
MODEL 6
REMARK VINA RESULT:      -8.0      0.462      1.051
REMARK  Name = 
REMARK  9 active torsions:
REMARK  status: ('A' for Active; 'I' for Inactive)
REMARK    1  A    between atoms: C_1  and  C_2
REMARK    2  A    between atoms: C_2  and  C_3
REMARK    3  A    between atoms: C_3  and  N_4
REMARK    4  A    between atoms: N_4  and  C_5
REMARK    5  A    between atoms: C_5  and  C_6
REMARK    6  A    between atoms: C_6  and  O_7
REMARK    7  A    between atoms: C_6  and  C_8
REMARK    8  A    between atoms: C_13  and  C_14
REMARK    9  A    between atoms: C_22  and  C_23
REMARK                            x       y       z     vdW  Elec       q    Type
REMARK                         _______ _______ _______ _____ _____    ______ ____
ROOT
ATOM      1  C   UNL     1       4.373   6.041  17.182  0.00  0.00    +0.000 A 
ATOM      2  C   UNL     1       3.975   7.382  17.042  0.00  0.00    +0.000 A 
ATOM      3  C   UNL     1       3.036   7.970  17.890  0.00  0.00    +0.000 A 
ATOM      4  C   UNL     1       2.638   9.298  17.662  0.00  0.00    +0.000 A 
ATOM      5  C   UNL     1       1.649   9.900  18.435  0.00  0.00    +0.000 A 
ATOM      6  C   UNL     1       1.040   9.180  19.461  0.00  0.00    +0.000 A 
ATOM      7  C   UNL     1       1.469   7.863  19.712  0.00  0.00    +0.000 A 
ATOM      8  C   UNL     1       2.475   7.216  18.943  0.00  0.00    +0.000 A 
ATOM      9  C   UNL     1       2.921   5.862  19.156  0.00  0.00    +0.000 A 
ATOM     10  C   UNL     1       2.442   5.060  20.225  0.00  0.00    +0.000 A 
ATOM     11  C   UNL     1       2.841   3.731  20.433  0.00  0.00    +0.000 A 
ATOM     12  C   UNL     1       3.755   3.171  19.548  0.00  0.00    +0.000 A 
ATOM     13  C   UNL     1       4.255   3.930  18.491  0.00  0.00    +0.000 A 
ATOM     14  C   UNL     1       3.868   5.274  18.266  0.00  0.00    +0.000 A 
ENDROOT
BRANCH   6  15
ATOM     15  C   UNL     1      -0.077   9.773  20.283  0.00  0.00    +0.000 C 
ATOM     16  F   UNL     1      -0.389   9.041  21.390  0.00  0.00    +0.000 F 
ATOM     17  F   UNL     1       0.220  11.021  20.735  0.00  0.00    +0.000 F 
ATOM     18  F   UNL     1      -1.234   9.897  19.577  0.00  0.00    +0.000 F 
ENDBRANCH   6  15
BRANCH  11  19
ATOM     19  C   UNL     1       2.298   2.916  21.580  0.00  0.00    +0.000 C 
ATOM     20  F   UNL     1       3.069   1.838  21.895  0.00  0.00    +0.000 F 
ATOM     21  F   UNL     1       2.190   3.643  22.726  0.00  0.00    +0.000 F 
ATOM     22  F   UNL     1       1.054   2.425  21.328  0.00  0.00    +0.000 F 
ENDBRANCH  11  19
BRANCH   1  23
ATOM     23  C   UNL     1       5.235   5.418  16.085  0.00  0.00    +0.000 C 
BRANCH  23  24
ATOM     24  O   UNL     1       5.103   3.988  16.080  0.00  0.00    +0.000 OA
ATOM     25  H   UNL     1       5.520   3.660  15.269  0.00  0.00    +0.000 HD
ENDBRANCH  23  24
BRANCH  23  26
ATOM     26  C   UNL     1       6.717   5.835  16.295  0.00  0.00    +0.000 C 
BRANCH  26  27
ATOM     27  N   UNL     1       7.232   5.433  17.613  0.00  0.00    +0.000 NA
ATOM     28  H   UNL     1       6.498   4.967  18.147  0.00  0.00    +0.000 HD
BRANCH  27  29
ATOM     29  C   UNL     1       7.751   6.590  18.340  0.00  0.00    +0.000 C 
BRANCH  29  31
ATOM     30  C   UNL     1       8.333   9.026  18.155  0.00  0.00    +0.000 C 
ATOM     31  C   UNL     1       7.650   7.847  17.478  0.00  0.00    +0.000 C 
ENDBRANCH  29  31
ENDBRANCH  27  29
ENDBRANCH  26  27
ENDBRANCH  23  26
ENDBRANCH   1  23
TORSDOF 8
ENDMDL
MODEL 7
REMARK VINA RESULT:      -8.0      3.938      6.044
REMARK  Name = 
REMARK  9 active torsions:
REMARK  status: ('A' for Active; 'I' for Inactive)
REMARK    1  A    between atoms: C_1  and  C_2
REMARK    2  A    between atoms: C_2  and  C_3
REMARK    3  A    between atoms: C_3  and  N_4
REMARK    4  A    between atoms: N_4  and  C_5
REMARK    5  A    between atoms: C_5  and  C_6
REMARK    6  A    between atoms: C_6  and  O_7
REMARK    7  A    between atoms: C_6  and  C_8
REMARK    8  A    between atoms: C_13  and  C_14
REMARK    9  A    between atoms: C_22  and  C_23
REMARK                            x       y       z     vdW  Elec       q    Type
REMARK                         _______ _______ _______ _____ _____    ______ ____
ROOT
ATOM      1  C   UNL     1       6.949   5.796  17.904  0.00  0.00    +0.000 A 
ATOM      2  C   UNL     1       6.090   5.577  18.996  0.00  0.00    +0.000 A 
ATOM      3  C   UNL     1       4.883   4.891  18.864  0.00  0.00    +0.000 A 
ATOM      4  C   UNL     1       4.042   4.756  19.983  0.00  0.00    +0.000 A 
ATOM      5  C   UNL     1       2.794   4.147  19.880  0.00  0.00    +0.000 A 
ATOM      6  C   UNL     1       2.365   3.655  18.650  0.00  0.00    +0.000 A 
ATOM      7  C   UNL     1       3.225   3.757  17.540  0.00  0.00    +0.000 A 
ATOM      8  C   UNL     1       4.505   4.373  17.607  0.00  0.00    +0.000 A 
ATOM      9  C   UNL     1       5.401   4.517  16.487  0.00  0.00    +0.000 A 
ATOM     10  C   UNL     1       5.115   3.976  15.206  0.00  0.00    +0.000 A 
ATOM     11  C   UNL     1       5.960   4.130  14.096  0.00  0.00    +0.000 A 
ATOM     12  C   UNL     1       7.139   4.846  14.260  0.00  0.00    +0.000 A 
ATOM     13  C   UNL     1       7.460   5.384  15.505  0.00  0.00    +0.000 A 
ATOM     14  C   UNL     1       6.623   5.237  16.639  0.00  0.00    +0.000 A 
ENDROOT
BRANCH   6  15
ATOM     15  C   UNL     1       0.996   3.043  18.481  0.00  0.00    +0.000 C 
ATOM     16  F   UNL     1       0.241   3.072  19.615  0.00  0.00    +0.000 F 
ATOM     17  F   UNL     1       0.260   3.680  17.529  0.00  0.00    +0.000 F 
ATOM     18  F   UNL     1       1.052   1.739  18.099  0.00  0.00    +0.000 F 
ENDBRANCH   6  15
BRANCH  11  19
ATOM     19  C   UNL     1       5.608   3.543  12.753  0.00  0.00    +0.000 C 
ATOM     20  F   UNL     1       6.336   4.062  11.724  0.00  0.00    +0.000 F 
ATOM     21  F   UNL     1       5.808   2.196  12.707  0.00  0.00    +0.000 F 
ATOM     22  F   UNL     1       4.303   3.740  12.422  0.00  0.00    +0.000 F 
ENDBRANCH  11  19
BRANCH   1  23
ATOM     23  C   UNL     1       8.137   6.738  18.088  0.00  0.00    +0.000 C 
BRANCH  23  24
ATOM     24  O   UNL     1       8.642   6.669  19.431  0.00  0.00    +0.000 OA
ATOM     25  H   UNL     1       7.914   6.380  20.002  0.00  0.00    +0.000 HD
ENDBRANCH  23  24
BRANCH  23  26
ATOM     26  C   UNL     1       7.704   8.188  17.736  0.00  0.00    +0.000 C 
BRANCH  26  27
ATOM     27  N   UNL     1       8.453   9.199  18.497  0.00  0.00    +0.000 NA
ATOM     28  H   UNL     1       8.012   9.351  19.404  0.00  0.00    +0.000 HD
BRANCH  27  29
ATOM     29  C   UNL     1       8.544  10.450  17.745  0.00  0.00    +0.000 C 
BRANCH  29  31
ATOM     30  C   UNL     1      10.710  11.720  17.744  0.00  0.00    +0.000 C 
ATOM     31  C   UNL     1       9.414  11.456  18.496  0.00  0.00    +0.000 C 
ENDBRANCH  29  31
ENDBRANCH  27  29
ENDBRANCH  26  27
ENDBRANCH  23  26
ENDBRANCH   1  23
TORSDOF 8
ENDMDL
MODEL 8
REMARK VINA RESULT:      -8.0      4.190      6.482
REMARK  Name = 
REMARK  9 active torsions:
REMARK  status: ('A' for Active; 'I' for Inactive)
REMARK    1  A    between atoms: C_1  and  C_2
REMARK    2  A    between atoms: C_2  and  C_3
REMARK    3  A    between atoms: C_3  and  N_4
REMARK    4  A    between atoms: N_4  and  C_5
REMARK    5  A    between atoms: C_5  and  C_6
REMARK    6  A    between atoms: C_6  and  O_7
REMARK    7  A    between atoms: C_6  and  C_8
REMARK    8  A    between atoms: C_13  and  C_14
REMARK    9  A    between atoms: C_22  and  C_23
REMARK                            x       y       z     vdW  Elec       q    Type
REMARK                         _______ _______ _______ _____ _____    ______ ____
ROOT
ATOM      1  C   UNL     1       7.038   5.401  17.299  0.00  0.00    +0.000 A 
ATOM      2  C   UNL     1       7.558   5.337  15.994  0.00  0.00    +0.000 A 
ATOM      3  C   UNL     1       6.811   4.854  14.920  0.00  0.00    +0.000 A 
ATOM      4  C   UNL     1       7.409   4.763  13.652  0.00  0.00    +0.000 A 
ATOM      5  C   UNL     1       6.726   4.215  12.568  0.00  0.00    +0.000 A 
ATOM      6  C   UNL     1       5.423   3.751  12.735  0.00  0.00    +0.000 A 
ATOM      7  C   UNL     1       4.814   3.879  13.998  0.00  0.00    +0.000 A 
ATOM      8  C   UNL     1       5.480   4.432  15.126  0.00  0.00    +0.000 A 
ATOM      9  C   UNL     1       4.896   4.557  16.438  0.00  0.00    +0.000 A 
ATOM     10  C   UNL     1       3.548   4.204  16.711  0.00  0.00    +0.000 A 
ATOM     11  C   UNL     1       2.970   4.290  17.986  0.00  0.00    +0.000 A 
ATOM     12  C   UNL     1       3.755   4.748  19.037  0.00  0.00    +0.000 A 
ATOM     13  C   UNL     1       5.081   5.113  18.807  0.00  0.00    +0.000 A 
ATOM     14  C   UNL     1       5.683   5.036  17.527  0.00  0.00    +0.000 A 
ENDROOT
BRANCH   6  15
ATOM     15  C   UNL     1       4.670   3.096  11.605  0.00  0.00    +0.000 C 
ATOM     16  F   UNL     1       3.369   2.820  11.901  0.00  0.00    +0.000 F 
ATOM     17  F   UNL     1       4.639   3.872  10.486  0.00  0.00    +0.000 F 
ATOM     18  F   UNL     1       5.227   1.914  11.223  0.00  0.00    +0.000 F 
ENDBRANCH   6  15
BRANCH  11  19
ATOM     19  C   UNL     1       1.534   3.896  18.227  0.00  0.00    +0.000 C 
ATOM     20  F   UNL     1       1.049   4.316  19.429  0.00  0.00    +0.000 F 
ATOM     21  F   UNL     1       0.691   4.408  17.287  0.00  0.00    +0.000 F 
ATOM     22  F   UNL     1       1.351   2.548  18.201  0.00  0.00    +0.000 F 
ENDBRANCH  11  19
BRANCH   1  23
ATOM     23  C   UNL     1       7.987   5.735  18.447  0.00  0.00    +0.000 C 
BRANCH  23  24
ATOM     24  O   UNL     1       7.614   5.032  19.643  0.00  0.00    +0.000 OA
ATOM     25  H   UNL     1       7.085   5.638  20.184  0.00  0.00    +0.000 HD
ENDBRANCH  23  24
BRANCH  23  26
ATOM     26  C   UNL     1       7.985   7.270  18.687  0.00  0.00    +0.000 C 
BRANCH  26  27
ATOM     27  N   UNL     1       7.993   8.035  17.432  0.00  0.00    +0.000 NA
ATOM     28  H   UNL     1       8.845   7.836  16.907  0.00  0.00    +0.000 HD
BRANCH  27  29
ATOM     29  C   UNL     1       7.868   9.468  17.697  0.00  0.00    +0.000 C 
BRANCH  29  31
ATOM     30  C   UNL     1       9.703  11.131  18.111  0.00  0.00    +0.000 C 
ATOM     31  C   UNL     1       8.960   9.924  18.663  0.00  0.00    +0.000 C 
ENDBRANCH  29  31
ENDBRANCH  27  29
ENDBRANCH  26  27
ENDBRANCH  23  26
ENDBRANCH   1  23
TORSDOF 8
ENDMDL
MODEL 9
REMARK VINA RESULT:      -8.0      0.775      1.202
REMARK  Name = 
REMARK  9 active torsions:
REMARK  status: ('A' for Active; 'I' for Inactive)
REMARK    1  A    between atoms: C_1  and  C_2
REMARK    2  A    between atoms: C_2  and  C_3
REMARK    3  A    between atoms: C_3  and  N_4
REMARK    4  A    between atoms: N_4  and  C_5
REMARK    5  A    between atoms: C_5  and  C_6
REMARK    6  A    between atoms: C_6  and  O_7
REMARK    7  A    between atoms: C_6  and  C_8
REMARK    8  A    between atoms: C_13  and  C_14
REMARK    9  A    between atoms: C_22  and  C_23
REMARK                            x       y       z     vdW  Elec       q    Type
REMARK                         _______ _______ _______ _____ _____    ______ ____
ROOT
ATOM      1  C   UNL     1       4.381   5.644  17.083  0.00  0.00    +0.000 A 
ATOM      2  C   UNL     1       4.023   6.995  16.929  0.00  0.00    +0.000 A 
ATOM      3  C   UNL     1       3.147   7.636  17.805  0.00  0.00    +0.000 A 
ATOM      4  C   UNL     1       2.785   8.972  17.563  0.00  0.00    +0.000 A 
ATOM      5  C   UNL     1       1.856   9.626  18.367  0.00  0.00    +0.000 A 
ATOM      6  C   UNL     1       1.272   8.953  19.437  0.00  0.00    +0.000 A 
ATOM      7  C   UNL     1       1.666   7.627  19.701  0.00  0.00    +0.000 A 
ATOM      8  C   UNL     1       2.611   6.927  18.901  0.00  0.00    +0.000 A 
ATOM      9  C   UNL     1       3.019   5.563  19.127  0.00  0.00    +0.000 A 
ATOM     10  C   UNL     1       2.564   4.804  20.237  0.00  0.00    +0.000 A 
ATOM     11  C   UNL     1       2.926   3.466  20.458  0.00  0.00    +0.000 A 
ATOM     12  C   UNL     1       3.777   2.853  19.546  0.00  0.00    +0.000 A 
ATOM     13  C   UNL     1       4.252   3.569  18.448  0.00  0.00    +0.000 A 
ATOM     14  C   UNL     1       3.901   4.921  18.208  0.00  0.00    +0.000 A 
ENDROOT
BRANCH   6  15
ATOM     15  C   UNL     1       0.216   9.604  20.296  0.00  0.00    +0.000 C 
ATOM     16  F   UNL     1       0.670  10.680  20.999  0.00  0.00    +0.000 F 
ATOM     17  F   UNL     1      -0.837  10.058  19.563  0.00  0.00    +0.000 F 
ATOM     18  F   UNL     1      -0.309   8.749  21.214  0.00  0.00    +0.000 F 
ENDBRANCH   6  15
BRANCH  11  19
ATOM     19  C   UNL     1       2.410   2.699  21.649  0.00  0.00    +0.000 C 
ATOM     20  F   UNL     1       2.201   3.476  22.749  0.00  0.00    +0.000 F 
ATOM     21  F   UNL     1       1.220   2.086  21.396  0.00  0.00    +0.000 F 
ATOM     22  F   UNL     1       3.262   1.714  22.045  0.00  0.00    +0.000 F 
ENDBRANCH  11  19
BRANCH   1  23
ATOM     23  C   UNL     1       5.167   4.965  15.963  0.00  0.00    +0.000 C 
BRANCH  23  24
ATOM     24  O   UNL     1       5.724   3.719  16.410  0.00  0.00    +0.000 OA
ATOM     25  H   UNL     1       5.850   3.784  17.369  0.00  0.00    +0.000 HD
ENDBRANCH  23  24
BRANCH  23  26
ATOM     26  C   UNL     1       6.285   5.923  15.466  0.00  0.00    +0.000 C 
BRANCH  26  27
ATOM     27  N   UNL     1       7.452   5.936  16.361  0.00  0.00    +0.000 NA
ATOM     28  H   UNL     1       7.398   5.157  17.018  0.00  0.00    +0.000 HD
BRANCH  27  29
ATOM     29  C   UNL     1       7.543   7.211  17.073  0.00  0.00    +0.000 C 
BRANCH  29  31
ATOM     30  C   UNL     1       7.557   5.604  19.002  0.00  0.00    +0.000 C 
ATOM     31  C   UNL     1       7.985   6.981  18.516  0.00  0.00    +0.000 C 
ENDBRANCH  29  31
ENDBRANCH  27  29
ENDBRANCH  26  27
ENDBRANCH  23  26
ENDBRANCH   1  23
TORSDOF 8
ENDMDL
