MODEL 1
REMARK VINA RESULT:      -7.6      0.000      0.000
REMARK  Name = 
REMARK  8 active torsions:
REMARK  status: ('A' for Active; 'I' for Inactive)
REMARK    1  A    between atoms: C_1  and  O_2
REMARK    2  A    between atoms: O_2  and  C_3
REMARK    3  A    between atoms: C_7  and  C_8
REMARK    4  A    between atoms: C_12  and  C_13
REMARK    5  A    between atoms: N_15  and  C_16
REMARK    6  A    between atoms: N_15  and  C_17
REMARK    7  A    between atoms: C_29  and  O_30
REMARK    8  A    between atoms: O_30  and  C_31
REMARK                            x       y       z     vdW  Elec       q    Type
REMARK                         _______ _______ _______ _____ _____    ______ ____
ROOT
ATOM      1  C   UNL     1       1.796   3.658  20.324  0.00  0.00    +0.000 A 
ATOM      2  C   UNL     1       1.466   5.032  20.314  0.00  0.00    +0.000 A 
ATOM      3  C   UNL     1       2.128   5.956  19.503  0.00  0.00    +0.000 A 
ATOM      4  N   UNL     1       1.703   7.222  19.469  0.00  0.00    +0.000 NA
ATOM      5  C   UNL     1       2.309   8.059  18.604  0.00  0.00    +0.000 A 
ATOM      6  N   UNL     1       3.332   7.717  17.797  0.00  0.00    +0.000 NA
ATOM      7  C   UNL     1       3.800   6.461  17.880  0.00  0.00    +0.000 A 
ATOM      8  N   UNL     1       4.840   6.084  17.048  0.00  0.00    +0.000 N 
ATOM      9  C   UNL     1       5.069   6.769  15.775  0.00  0.00    +0.000 C 
ATOM     10  C   UNL     1       5.666   5.727  14.801  0.00  0.00    +0.000 C 
ATOM     11  O   UNL     1       6.853   5.096  15.329  0.00  0.00    +0.000 OA
ATOM     12  C   UNL     1       6.588   4.482  16.606  0.00  0.00    +0.000 C 
ATOM     13  C   UNL     1       6.085   5.536  17.608  0.00  0.00    +0.000 C 
ATOM     14  C   UNL     1       3.185   5.509  18.718  0.00  0.00    +0.000 A 
ATOM     15  C   UNL     1       3.529   4.138  18.764  0.00  0.00    +0.000 A 
ATOM     16  C   UNL     1       2.879   3.214  19.576  0.00  0.00    +0.000 A 
ENDROOT
BRANCH   5  17
ATOM     17  C   UNL     1       1.754   9.424  18.472  0.00  0.00    +0.000 A 
ATOM     18  C   UNL     1       2.586  10.529  18.195  0.00  0.00    +0.000 A 
ATOM     19  C   UNL     1       2.070  11.822  18.103  0.00  0.00    +0.000 A 
ATOM     20  C   UNL     1       0.716  12.046  18.329  0.00  0.00    +0.000 A 
ATOM     21  C   UNL     1      -0.142  10.981  18.632  0.00  0.00    +0.000 A 
ATOM     22  C   UNL     1       0.376   9.678  18.643  0.00  0.00    +0.000 A 
BRANCH  21  23
ATOM     23  C   UNL     1      -1.581  11.313  18.862  0.00  0.00    +0.000 C 
ATOM     24  O   UNL     1      -1.853  11.795  19.967  0.00  0.00    +0.000 OA
ATOM     25  N   UNL     1      -2.569  11.056  17.912  0.00  0.00    +0.000 N 
ATOM     26  C   UNL     1      -2.383  10.515  16.571  0.00  0.00    +0.000 C 
ATOM     27  C   UNL     1      -3.940  11.437  18.234  0.00  0.00    +0.000 C 
ENDBRANCH  21  23
ENDBRANCH   5  17
BRANCH   1  29
ATOM     28  C   UNL     1       1.667   2.389  22.304  0.00  0.00    +0.000 C 
ATOM     29  O   UNL     1       1.070   2.760  21.059  0.00  0.00    +0.000 OA
ENDBRANCH   1  29
BRANCH  16  30
ATOM     30  O   UNL     1       3.432   1.975  19.450  0.00  0.00    +0.000 OA
ATOM     31  C   UNL     1       3.656   1.428  18.164  0.00  0.00    +0.000 C 
ENDBRANCH  16  30
TORSDOF 4
ENDMDL
MODEL 2
REMARK VINA RESULT:      -7.6      1.699      2.065
REMARK  Name = 
REMARK  8 active torsions:
REMARK  status: ('A' for Active; 'I' for Inactive)
REMARK    1  A    between atoms: C_1  and  O_2
REMARK    2  A    between atoms: O_2  and  C_3
REMARK    3  A    between atoms: C_7  and  C_8
REMARK    4  A    between atoms: C_12  and  C_13
REMARK    5  A    between atoms: N_15  and  C_16
REMARK    6  A    between atoms: N_15  and  C_17
REMARK    7  A    between atoms: C_29  and  O_30
REMARK    8  A    between atoms: O_30  and  C_31
REMARK                            x       y       z     vdW  Elec       q    Type
REMARK                         _______ _______ _______ _____ _____    ______ ____
ROOT
ATOM      1  C   UNL     1       2.939   3.254  20.935  0.00  0.00    +0.000 A 
ATOM      2  C   UNL     1       2.413   4.566  20.932  0.00  0.00    +0.000 A 
ATOM      3  C   UNL     1       2.813   5.532  20.007  0.00  0.00    +0.000 A 
ATOM      4  N   UNL     1       2.207   6.722  19.997  0.00  0.00    +0.000 NA
ATOM      5  C   UNL     1       2.556   7.591  19.030  0.00  0.00    +0.000 A 
ATOM      6  N   UNL     1       3.495   7.357  18.093  0.00  0.00    +0.000 NA
ATOM      7  C   UNL     1       4.150   6.185  18.143  0.00  0.00    +0.000 A 
ATOM      8  N   UNL     1       5.107   5.917  17.180  0.00  0.00    +0.000 N 
ATOM      9  C   UNL     1       5.052   6.563  15.868  0.00  0.00    +0.000 C 
ATOM     10  C   UNL     1       5.653   5.567  14.848  0.00  0.00    +0.000 C 
ATOM     11  O   UNL     1       6.982   5.137  15.216  0.00  0.00    +0.000 OA
ATOM     12  C   UNL     1       6.991   4.557  16.535  0.00  0.00    +0.000 C 
ATOM     13  C   UNL     1       6.485   5.578  17.569  0.00  0.00    +0.000 C 
ATOM     14  C   UNL     1       3.804   5.199  19.089  0.00  0.00    +0.000 A 
ATOM     15  C   UNL     1       4.347   3.894  19.125  0.00  0.00    +0.000 A 
ATOM     16  C   UNL     1       3.960   2.930  20.050  0.00  0.00    +0.000 A 
ENDROOT
BRANCH   5  17
ATOM     17  C   UNL     1       1.795   8.857  18.940  0.00  0.00    +0.000 A 
ATOM     18  C   UNL     1       1.977   9.746  17.860  0.00  0.00    +0.000 A 
ATOM     19  C   UNL     1       1.284  10.956  17.790  0.00  0.00    +0.000 A 
ATOM     20  C   UNL     1       0.425  11.323  18.821  0.00  0.00    +0.000 A 
ATOM     21  C   UNL     1       0.233  10.481  19.924  0.00  0.00    +0.000 A 
ATOM     22  C   UNL     1       0.875   9.235  19.942  0.00  0.00    +0.000 A 
BRANCH  21  23
ATOM     23  C   UNL     1      -0.706  10.956  20.986  0.00  0.00    +0.000 C 
ATOM     24  O   UNL     1      -1.564  11.767  20.622  0.00  0.00    +0.000 OA
ATOM     25  N   UNL     1      -0.600  10.548  22.315  0.00  0.00    +0.000 N 
ATOM     26  C   UNL     1       0.345   9.587  22.870  0.00  0.00    +0.000 C 
ATOM     27  C   UNL     1      -1.582  11.060  23.265  0.00  0.00    +0.000 C 
ENDBRANCH  21  23
ENDBRANCH   5  17
BRANCH   1  29
ATOM     28  C   UNL     1       1.070   2.414  22.095  0.00  0.00    +0.000 C 
ATOM     29  O   UNL     1       2.463   2.300  21.794  0.00  0.00    +0.000 OA
ENDBRANCH   1  29
BRANCH  16  30
ATOM     30  O   UNL     1       4.666   1.776  19.881  0.00  0.00    +0.000 OA
ATOM     31  C   UNL     1       4.317   0.879  18.844  0.00  0.00    +0.000 C 
ENDBRANCH  16  30
TORSDOF 4
ENDMDL
MODEL 3
REMARK VINA RESULT:      -7.5      1.655      1.879
REMARK  Name = 
REMARK  8 active torsions:
REMARK  status: ('A' for Active; 'I' for Inactive)
REMARK    1  A    between atoms: C_1  and  O_2
REMARK    2  A    between atoms: O_2  and  C_3
REMARK    3  A    between atoms: C_7  and  C_8
REMARK    4  A    between atoms: C_12  and  C_13
REMARK    5  A    between atoms: N_15  and  C_16
REMARK    6  A    between atoms: N_15  and  C_17
REMARK    7  A    between atoms: C_29  and  O_30
REMARK    8  A    between atoms: O_30  and  C_31
REMARK                            x       y       z     vdW  Elec       q    Type
REMARK                         _______ _______ _______ _____ _____    ______ ____
ROOT
ATOM      1  C   UNL     1       2.904   3.041  21.034  0.00  0.00    +0.000 A 
ATOM      2  C   UNL     1       2.344   4.339  21.024  0.00  0.00    +0.000 A 
ATOM      3  C   UNL     1       2.762   5.329  20.133  0.00  0.00    +0.000 A 
ATOM      4  N   UNL     1       2.125   6.503  20.111  0.00  0.00    +0.000 NA
ATOM      5  C   UNL     1       2.497   7.396  19.174  0.00  0.00    +0.000 A 
ATOM      6  N   UNL     1       3.486   7.200  18.280  0.00  0.00    +0.000 NA
ATOM      7  C   UNL     1       4.168   6.045  18.346  0.00  0.00    +0.000 A 
ATOM      8  N   UNL     1       5.178   5.817  17.427  0.00  0.00    +0.000 N 
ATOM      9  C   UNL     1       5.169   6.481  16.122  0.00  0.00    +0.000 C 
ATOM     10  C   UNL     1       5.845   5.518  15.120  0.00  0.00    +0.000 C 
ATOM     11  O   UNL     1       7.166   5.117  15.546  0.00  0.00    +0.000 OA
ATOM     12  C   UNL     1       7.127   4.517  16.855  0.00  0.00    +0.000 C 
ATOM     13  C   UNL     1       6.544   5.509  17.877  0.00  0.00    +0.000 C 
ATOM     14  C   UNL     1       3.805   5.036  19.260  0.00  0.00    +0.000 A 
ATOM     15  C   UNL     1       4.381   3.746  19.304  0.00  0.00    +0.000 A 
ATOM     16  C   UNL     1       3.976   2.757  20.196  0.00  0.00    +0.000 A 
ENDROOT
BRANCH   5  17
ATOM     17  C   UNL     1       1.707   8.642  19.065  0.00  0.00    +0.000 A 
ATOM     18  C   UNL     1       1.627   9.354  17.850  0.00  0.00    +0.000 A 
ATOM     19  C   UNL     1       0.909  10.547  17.753  0.00  0.00    +0.000 A 
ATOM     20  C   UNL     1       0.291  11.078  18.881  0.00  0.00    +0.000 A 
ATOM     21  C   UNL     1       0.365  10.415  20.113  0.00  0.00    +0.000 A 
ATOM     22  C   UNL     1       1.022   9.179  20.177  0.00  0.00    +0.000 A 
BRANCH  21  23
ATOM     23  C   UNL     1      -0.327  11.057  21.272  0.00  0.00    +0.000 C 
ATOM     24  O   UNL     1       0.194  10.877  22.378  0.00  0.00    +0.000 OA
ATOM     25  N   UNL     1      -1.512  11.779  21.130  0.00  0.00    +0.000 N 
ATOM     26  C   UNL     1      -2.214  12.084  19.889  0.00  0.00    +0.000 C 
ATOM     27  C   UNL     1      -2.093  12.379  22.326  0.00  0.00    +0.000 C 
ENDBRANCH  21  23
ENDBRANCH   5  17
BRANCH   1  29
ATOM     28  C   UNL     1       1.064   2.266  22.282  0.00  0.00    +0.000 C 
ATOM     29  O   UNL     1       2.413   2.062  21.856  0.00  0.00    +0.000 OA
ENDBRANCH   1  29
BRANCH  16  30
ATOM     30  O   UNL     1       4.719   1.625  20.045  0.00  0.00    +0.000 OA
ATOM     31  C   UNL     1       5.420   1.087  21.149  0.00  0.00    +0.000 C 
ENDBRANCH  16  30
TORSDOF 4
ENDMDL
MODEL 4
REMARK VINA RESULT:      -7.4      1.626      4.394
REMARK  Name = 
REMARK  8 active torsions:
REMARK  status: ('A' for Active; 'I' for Inactive)
REMARK    1  A    between atoms: C_1  and  O_2
REMARK    2  A    between atoms: O_2  and  C_3
REMARK    3  A    between atoms: C_7  and  C_8
REMARK    4  A    between atoms: C_12  and  C_13
REMARK    5  A    between atoms: N_15  and  C_16
REMARK    6  A    between atoms: N_15  and  C_17
REMARK    7  A    between atoms: C_29  and  O_30
REMARK    8  A    between atoms: O_30  and  C_31
REMARK                            x       y       z     vdW  Elec       q    Type
REMARK                         _______ _______ _______ _____ _____    ______ ____
ROOT
ATOM      1  C   UNL     1       6.300   6.909  17.064  0.00  0.00    +0.000 A 
ATOM      2  C   UNL     1       5.270   7.836  17.344  0.00  0.00    +0.000 A 
ATOM      3  C   UNL     1       4.017   7.444  17.821  0.00  0.00    +0.000 A 
ATOM      4  N   UNL     1       3.123   8.377  18.158  0.00  0.00    +0.000 NA
ATOM      5  C   UNL     1       1.963   7.960  18.701  0.00  0.00    +0.000 A 
ATOM      6  N   UNL     1       1.631   6.669  18.898  0.00  0.00    +0.000 NA
ATOM      7  C   UNL     1       2.505   5.730  18.498  0.00  0.00    +0.000 A 
ATOM      8  N   UNL     1       2.190   4.399  18.706  0.00  0.00    +0.000 N 
ATOM      9  C   UNL     1       1.269   4.003  19.773  0.00  0.00    +0.000 C 
ATOM     10  C   UNL     1       1.714   2.604  20.258  0.00  0.00    +0.000 C 
ATOM     11  O   UNL     1       1.785   1.644  19.181  0.00  0.00    +0.000 OA
ATOM     12  C   UNL     1       2.662   2.104  18.135  0.00  0.00    +0.000 C 
ATOM     13  C   UNL     1       2.167   3.451  17.581  0.00  0.00    +0.000 C 
ATOM     14  C   UNL     1       3.763   6.085  17.973  0.00  0.00    +0.000 A 
ATOM     15  C   UNL     1       4.790   5.166  17.656  0.00  0.00    +0.000 A 
ATOM     16  C   UNL     1       6.037   5.549  17.172  0.00  0.00    +0.000 A 
ENDROOT
BRANCH   5  17
ATOM     17  C   UNL     1       1.027   8.995  19.193  0.00  0.00    +0.000 A 
ATOM     18  C   UNL     1       0.941   9.311  20.565  0.00  0.00    +0.000 A 
ATOM     19  C   UNL     1       0.036  10.264  21.035  0.00  0.00    +0.000 A 
ATOM     20  C   UNL     1      -0.834  10.890  20.149  0.00  0.00    +0.000 A 
ATOM     21  C   UNL     1      -0.799  10.588  18.781  0.00  0.00    +0.000 A 
ATOM     22  C   UNL     1       0.168   9.689  18.313  0.00  0.00    +0.000 A 
BRANCH  21  23
ATOM     23  C   UNL     1      -1.770  11.308  17.902  0.00  0.00    +0.000 C 
ATOM     24  O   UNL     1      -1.441  12.447  17.554  0.00  0.00    +0.000 OA
ATOM     25  N   UNL     1      -2.994  10.754  17.528  0.00  0.00    +0.000 N 
ATOM     26  C   UNL     1      -3.492   9.421  17.848  0.00  0.00    +0.000 C 
ATOM     27  C   UNL     1      -3.858  11.537  16.651  0.00  0.00    +0.000 C 
ENDBRANCH  21  23
ENDBRANCH   5  17
BRANCH   1  29
ATOM     28  C   UNL     1       8.167   8.244  17.591  0.00  0.00    +0.000 C 
ATOM     29  O   UNL     1       7.548   7.327  16.686  0.00  0.00    +0.000 OA
ENDBRANCH   1  29
BRANCH  16  30
ATOM     30  O   UNL     1       6.819   4.462  16.918  0.00  0.00    +0.000 OA
ATOM     31  C   UNL     1       6.903   3.942  15.605  0.00  0.00    +0.000 C 
ENDBRANCH  16  30
TORSDOF 4
ENDMDL
MODEL 5
REMARK VINA RESULT:      -7.4      2.486      8.728
REMARK  Name = 
REMARK  8 active torsions:
REMARK  status: ('A' for Active; 'I' for Inactive)
REMARK    1  A    between atoms: C_1  and  O_2
REMARK    2  A    between atoms: O_2  and  C_3
REMARK    3  A    between atoms: C_7  and  C_8
REMARK    4  A    between atoms: C_12  and  C_13
REMARK    5  A    between atoms: N_15  and  C_16
REMARK    6  A    between atoms: N_15  and  C_17
REMARK    7  A    between atoms: C_29  and  O_30
REMARK    8  A    between atoms: O_30  and  C_31
REMARK                            x       y       z     vdW  Elec       q    Type
REMARK                         _______ _______ _______ _____ _____    ______ ____
ROOT
ATOM      1  C   UNL     1      -2.679  10.730  16.834  0.00  0.00    +0.000 A 
ATOM      2  C   UNL     1      -1.508   9.989  16.551  0.00  0.00    +0.000 A 
ATOM      3  C   UNL     1      -0.566   9.672  17.533  0.00  0.00    +0.000 A 
ATOM      4  N   UNL     1       0.468   8.887  17.220  0.00  0.00    +0.000 NA
ATOM      5  C   UNL     1       1.301   8.530  18.216  0.00  0.00    +0.000 A 
ATOM      6  N   UNL     1       1.183   8.934  19.495  0.00  0.00    +0.000 NA
ATOM      7  C   UNL     1       0.180   9.776  19.795  0.00  0.00    +0.000 A 
ATOM      8  N   UNL     1       0.030  10.190  21.107  0.00  0.00    +0.000 N 
ATOM      9  C   UNL     1       0.533   9.375  22.214  0.00  0.00    +0.000 C 
ATOM     10  C   UNL     1      -0.404   9.622  23.419  0.00  0.00    +0.000 C 
ATOM     11  O   UNL     1      -0.518  11.023  23.750  0.00  0.00    +0.000 OA
ATOM     12  C   UNL     1      -0.965  11.788  22.614  0.00  0.00    +0.000 C 
ATOM     13  C   UNL     1       0.018  11.623  21.441  0.00  0.00    +0.000 C 
ATOM     14  C   UNL     1      -0.768  10.152  18.822  0.00  0.00    +0.000 A 
ATOM     15  C   UNL     1      -1.925  10.922  19.084  0.00  0.00    +0.000 A 
ATOM     16  C   UNL     1      -2.863  11.249  18.109  0.00  0.00    +0.000 A 
ENDROOT
BRANCH   5  17
ATOM     17  C   UNL     1       2.370   7.557  17.896  0.00  0.00    +0.000 A 
ATOM     18  C   UNL     1       3.619   7.981  17.396  0.00  0.00    +0.000 A 
ATOM     19  C   UNL     1       4.617   7.063  17.063  0.00  0.00    +0.000 A 
ATOM     20  C   UNL     1       4.372   5.699  17.182  0.00  0.00    +0.000 A 
ATOM     21  C   UNL     1       3.137   5.235  17.652  0.00  0.00    +0.000 A 
ATOM     22  C   UNL     1       2.173   6.169  18.057  0.00  0.00    +0.000 A 
BRANCH  21  23
ATOM     23  C   UNL     1       2.960   3.753  17.746  0.00  0.00    +0.000 C 
ATOM     24  O   UNL     1       2.115   3.263  16.989  0.00  0.00    +0.000 OA
ATOM     25  N   UNL     1       3.667   2.972  18.659  0.00  0.00    +0.000 N 
ATOM     26  C   UNL     1       4.701   3.417  19.585  0.00  0.00    +0.000 C 
ATOM     27  C   UNL     1       3.429   1.532  18.652  0.00  0.00    +0.000 C 
ENDBRANCH  21  23
ENDBRANCH   5  17
BRANCH   1  29
ATOM     28  C   UNL     1      -3.468  10.164  14.688  0.00  0.00    +0.000 C 
ATOM     29  O   UNL     1      -3.630  10.946  15.873  0.00  0.00    +0.000 OA
ENDBRANCH   1  29
BRANCH  16  30
ATOM     30  O   UNL     1      -3.857  12.025  18.625  0.00  0.00    +0.000 OA
ATOM     31  C   UNL     1      -3.710  12.603  19.908  0.00  0.00    +0.000 C 
ENDBRANCH  16  30
TORSDOF 4
ENDMDL
MODEL 6
REMARK VINA RESULT:      -7.4      1.701      2.382
REMARK  Name = 
REMARK  8 active torsions:
REMARK  status: ('A' for Active; 'I' for Inactive)
REMARK    1  A    between atoms: C_1  and  O_2
REMARK    2  A    between atoms: O_2  and  C_3
REMARK    3  A    between atoms: C_7  and  C_8
REMARK    4  A    between atoms: C_12  and  C_13
REMARK    5  A    between atoms: N_15  and  C_16
REMARK    6  A    between atoms: N_15  and  C_17
REMARK    7  A    between atoms: C_29  and  O_30
REMARK    8  A    between atoms: O_30  and  C_31
REMARK                            x       y       z     vdW  Elec       q    Type
REMARK                         _______ _______ _______ _____ _____    ______ ____
ROOT
ATOM      1  C   UNL     1       2.898   3.323  20.997  0.00  0.00    +0.000 A 
ATOM      2  C   UNL     1       2.294   4.602  20.986  0.00  0.00    +0.000 A 
ATOM      3  C   UNL     1       2.651   5.592  20.069  0.00  0.00    +0.000 A 
ATOM      4  N   UNL     1       1.974   6.743  20.050  0.00  0.00    +0.000 NA
ATOM      5  C   UNL     1       2.289   7.634  19.089  0.00  0.00    +0.000 A 
ATOM      6  N   UNL     1       3.257   7.458  18.170  0.00  0.00    +0.000 NA
ATOM      7  C   UNL     1       3.980   6.328  18.231  0.00  0.00    +0.000 A 
ATOM      8  N   UNL     1       4.969   6.120  17.286  0.00  0.00    +0.000 N 
ATOM      9  C   UNL     1       4.900   6.764  15.973  0.00  0.00    +0.000 C 
ATOM     10  C   UNL     1       5.579   5.809  14.964  0.00  0.00    +0.000 C 
ATOM     11  O   UNL     1       6.924   5.459  15.357  0.00  0.00    +0.000 OA
ATOM     12  C   UNL     1       6.944   4.878  16.675  0.00  0.00    +0.000 C 
ATOM     13  C   UNL     1       6.358   5.865  17.700  0.00  0.00    +0.000 C 
ATOM     14  C   UNL     1       3.678   5.321  19.170  0.00  0.00    +0.000 A 
ATOM     15  C   UNL     1       4.298   4.051  19.215  0.00  0.00    +0.000 A 
ATOM     16  C   UNL     1       3.953   3.064  20.132  0.00  0.00    +0.000 A 
ENDROOT
BRANCH   5  17
ATOM     17  C   UNL     1       1.453   8.851  18.987  0.00  0.00    +0.000 A 
ATOM     18  C   UNL     1       0.599   9.062  17.885  0.00  0.00    +0.000 A 
ATOM     19  C   UNL     1      -0.165  10.224  17.769  0.00  0.00    +0.000 A 
ATOM     20  C   UNL     1      -0.058  11.222  18.732  0.00  0.00    +0.000 A 
ATOM     21  C   UNL     1       0.797  11.065  19.831  0.00  0.00    +0.000 A 
ATOM     22  C   UNL     1       1.497   9.859  19.975  0.00  0.00    +0.000 A 
BRANCH  21  23
ATOM     23  C   UNL     1       0.850  12.188  20.816  0.00  0.00    +0.000 C 
ATOM     24  O   UNL     1       0.184  12.033  21.845  0.00  0.00    +0.000 OA
ATOM     25  N   UNL     1       1.569  13.359  20.578  0.00  0.00    +0.000 N 
ATOM     26  C   UNL     1       2.409  13.658  19.424  0.00  0.00    +0.000 C 
ATOM     27  C   UNL     1       1.567  14.383  21.617  0.00  0.00    +0.000 C 
ENDBRANCH  21  23
ENDBRANCH   5  17
BRANCH   1  29
ATOM     28  C   UNL     1       1.069   2.393  22.153  0.00  0.00    +0.000 C 
ATOM     29  O   UNL     1       2.464   2.341  21.847  0.00  0.00    +0.000 OA
ENDBRANCH   1  29
BRANCH  16  30
ATOM     30  O   UNL     1       4.730   1.955  19.974  0.00  0.00    +0.000 OA
ATOM     31  C   UNL     1       4.384   0.980  19.010  0.00  0.00    +0.000 C 
ENDBRANCH  16  30
TORSDOF 4
ENDMDL
MODEL 7
REMARK VINA RESULT:      -7.4      2.484      8.870
REMARK  Name = 
REMARK  8 active torsions:
REMARK  status: ('A' for Active; 'I' for Inactive)
REMARK    1  A    between atoms: C_1  and  O_2
REMARK    2  A    between atoms: O_2  and  C_3
REMARK    3  A    between atoms: C_7  and  C_8
REMARK    4  A    between atoms: C_12  and  C_13
REMARK    5  A    between atoms: N_15  and  C_16
REMARK    6  A    between atoms: N_15  and  C_17
REMARK    7  A    between atoms: C_29  and  O_30
REMARK    8  A    between atoms: O_30  and  C_31
REMARK                            x       y       z     vdW  Elec       q    Type
REMARK                         _______ _______ _______ _____ _____    ______ ____
ROOT
ATOM      1  C   UNL     1      -3.177  10.748  16.605  0.00  0.00    +0.000 A 
ATOM      2  C   UNL     1      -1.957  10.044  16.476  0.00  0.00    +0.000 A 
ATOM      3  C   UNL     1      -1.036   9.943  17.520  0.00  0.00    +0.000 A 
ATOM      4  N   UNL     1       0.051   9.181  17.364  0.00  0.00    +0.000 NA
ATOM      5  C   UNL     1       0.866   9.035  18.426  0.00  0.00    +0.000 A 
ATOM      6  N   UNL     1       0.679   9.627  19.622  0.00  0.00    +0.000 NA
ATOM      7  C   UNL     1      -0.379  10.443  19.757  0.00  0.00    +0.000 A 
ATOM      8  N   UNL     1      -0.599  11.048  20.982  0.00  0.00    +0.000 N 
ATOM      9  C   UNL     1      -0.093  10.448  22.217  0.00  0.00    +0.000 C 
ATOM     10  C   UNL     1      -1.085  10.824  23.342  0.00  0.00    +0.000 C 
ATOM     11  O   UNL     1      -1.288  12.251  23.444  0.00  0.00    +0.000 OA
ATOM     12  C   UNL     1      -1.734  12.800  22.189  0.00  0.00    +0.000 C 
ATOM     13  C   UNL     1      -0.702  12.513  21.085  0.00  0.00    +0.000 C 
ATOM     14  C   UNL     1      -1.310  10.606  18.712  0.00  0.00    +0.000 A 
ATOM     15  C   UNL     1      -2.517  11.336  18.816  0.00  0.00    +0.000 A 
ATOM     16  C   UNL     1      -3.435  11.449  17.777  0.00  0.00    +0.000 A 
ENDROOT
BRANCH   5  17
ATOM     17  C   UNL     1       1.997   8.091  18.295  0.00  0.00    +0.000 A 
ATOM     18  C   UNL     1       3.105   8.386  17.473  0.00  0.00    +0.000 A 
ATOM     19  C   UNL     1       4.158   7.483  17.321  0.00  0.00    +0.000 A 
ATOM     20  C   UNL     1       4.106   6.245  17.953  0.00  0.00    +0.000 A 
ATOM     21  C   UNL     1       3.013   5.901  18.759  0.00  0.00    +0.000 A 
ATOM     22  C   UNL     1       2.001   6.849  18.966  0.00  0.00    +0.000 A 
BRANCH  21  23
ATOM     23  C   UNL     1       3.039   4.550  19.399  0.00  0.00    +0.000 C 
ATOM     24  O   UNL     1       3.274   4.533  20.612  0.00  0.00    +0.000 OA
ATOM     25  N   UNL     1       2.855   3.374  18.672  0.00  0.00    +0.000 N 
ATOM     26  C   UNL     1       2.550   3.255  17.252  0.00  0.00    +0.000 C 
ATOM     27  C   UNL     1       2.882   2.111  19.402  0.00  0.00    +0.000 C 
ENDBRANCH  21  23
ENDBRANCH   5  17
BRANCH   1  29
ATOM     28  C   UNL     1      -3.694  10.070  14.410  0.00  0.00    +0.000 C 
ATOM     29  O   UNL     1      -4.103  10.754  15.597  0.00  0.00    +0.000 OA
ENDBRANCH   1  29
BRANCH  16  30
ATOM     30  O   UNL     1      -4.488  12.236  18.136  0.00  0.00    +0.000 OA
ATOM     31  C   UNL     1      -5.639  11.654  18.719  0.00  0.00    +0.000 C 
ENDBRANCH  16  30
TORSDOF 4
ENDMDL
MODEL 8
REMARK VINA RESULT:      -7.4      1.062      1.413
REMARK  Name = 
REMARK  8 active torsions:
REMARK  status: ('A' for Active; 'I' for Inactive)
REMARK    1  A    between atoms: C_1  and  O_2
REMARK    2  A    between atoms: O_2  and  C_3
REMARK    3  A    between atoms: C_7  and  C_8
REMARK    4  A    between atoms: C_12  and  C_13
REMARK    5  A    between atoms: N_15  and  C_16
REMARK    6  A    between atoms: N_15  and  C_17
REMARK    7  A    between atoms: C_29  and  O_30
REMARK    8  A    between atoms: O_30  and  C_31
REMARK                            x       y       z     vdW  Elec       q    Type
REMARK                         _______ _______ _______ _____ _____    ______ ____
ROOT
ATOM      1  C   UNL     1       1.758   3.691  20.389  0.00  0.00    +0.000 A 
ATOM      2  C   UNL     1       1.451   5.071  20.393  0.00  0.00    +0.000 A 
ATOM      3  C   UNL     1       2.124   5.992  19.587  0.00  0.00    +0.000 A 
ATOM      4  N   UNL     1       1.720   7.265  19.567  0.00  0.00    +0.000 NA
ATOM      5  C   UNL     1       2.334   8.099  18.707  0.00  0.00    +0.000 A 
ATOM      6  N   UNL     1       3.346   7.748  17.890  0.00  0.00    +0.000 NA
ATOM      7  C   UNL     1       3.794   6.483  17.959  0.00  0.00    +0.000 A 
ATOM      8  N   UNL     1       4.823   6.097  17.117  0.00  0.00    +0.000 N 
ATOM      9  C   UNL     1       5.056   6.790  15.849  0.00  0.00    +0.000 C 
ATOM     10  C   UNL     1       5.629   5.748  14.862  0.00  0.00    +0.000 C 
ATOM     11  O   UNL     1       6.809   5.092  15.377  0.00  0.00    +0.000 OA
ATOM     12  C   UNL     1       6.541   4.471  16.649  0.00  0.00    +0.000 C 
ATOM     13  C   UNL     1       6.062   5.523  17.665  0.00  0.00    +0.000 C 
ATOM     14  C   UNL     1       3.169   5.534  18.792  0.00  0.00    +0.000 A 
ATOM     15  C   UNL     1       3.489   4.157  18.823  0.00  0.00    +0.000 A 
ATOM     16  C   UNL     1       2.830   3.236  19.630  0.00  0.00    +0.000 A 
ENDROOT
BRANCH   5  17
ATOM     17  C   UNL     1       1.801   9.475  18.591  0.00  0.00    +0.000 A 
ATOM     18  C   UNL     1       2.566  10.509  18.013  0.00  0.00    +0.000 A 
ATOM     19  C   UNL     1       2.079  11.815  17.932  0.00  0.00    +0.000 A 
ATOM     20  C   UNL     1       0.832  12.124  18.468  0.00  0.00    +0.000 A 
ATOM     21  C   UNL     1       0.050  11.132  19.073  0.00  0.00    +0.000 A 
ATOM     22  C   UNL     1       0.518   9.810  19.076  0.00  0.00    +0.000 A 
BRANCH  21  23
ATOM     23  C   UNL     1      -1.274  11.552  19.624  0.00  0.00    +0.000 C 
ATOM     24  O   UNL     1      -2.250  11.351  18.893  0.00  0.00    +0.000 OA
ATOM     25  N   UNL     1      -1.405  12.175  20.865  0.00  0.00    +0.000 N 
ATOM     26  C   UNL     1      -0.347  12.449  21.829  0.00  0.00    +0.000 C 
ATOM     27  C   UNL     1      -2.748  12.527  21.312  0.00  0.00    +0.000 C 
ENDBRANCH  21  23
ENDBRANCH   5  17
BRANCH   1  29
ATOM     28  C   UNL     1       1.653   2.348  22.321  0.00  0.00    +0.000 C 
ATOM     29  O   UNL     1       1.021   2.798  21.120  0.00  0.00    +0.000 OA
ENDBRANCH   1  29
BRANCH  16  30
ATOM     30  O   UNL     1       3.361   1.990  19.489  0.00  0.00    +0.000 OA
ATOM     31  C   UNL     1       3.571   1.452  18.197  0.00  0.00    +0.000 C 
ENDBRANCH  16  30
TORSDOF 4
ENDMDL
MODEL 9
REMARK VINA RESULT:      -7.4      1.979      4.770
REMARK  Name = 
REMARK  8 active torsions:
REMARK  status: ('A' for Active; 'I' for Inactive)
REMARK    1  A    between atoms: C_1  and  O_2
REMARK    2  A    between atoms: O_2  and  C_3
REMARK    3  A    between atoms: C_7  and  C_8
REMARK    4  A    between atoms: C_12  and  C_13
REMARK    5  A    between atoms: N_15  and  C_16
REMARK    6  A    between atoms: N_15  and  C_17
REMARK    7  A    between atoms: C_29  and  O_30
REMARK    8  A    between atoms: O_30  and  C_31
REMARK                            x       y       z     vdW  Elec       q    Type
REMARK                         _______ _______ _______ _____ _____    ______ ____
ROOT
ATOM      1  C   UNL     1       5.658   6.625  17.018  0.00  0.00    +0.000 A 
ATOM      2  C   UNL     1       4.744   7.591  17.496  0.00  0.00    +0.000 A 
ATOM      3  C   UNL     1       3.597   7.247  18.215  0.00  0.00    +0.000 A 
ATOM      4  N   UNL     1       2.827   8.213  18.723  0.00  0.00    +0.000 NA
ATOM      5  C   UNL     1       1.783   7.839  19.488  0.00  0.00    +0.000 A 
ATOM      6  N   UNL     1       1.445   6.562  19.751  0.00  0.00    +0.000 NA
ATOM      7  C   UNL     1       2.183   5.591  19.186  0.00  0.00    +0.000 A 
ATOM      8  N   UNL     1       1.862   4.272  19.456  0.00  0.00    +0.000 N 
ATOM      9  C   UNL     1       1.159   3.906  20.686  0.00  0.00    +0.000 C 
ATOM     10  C   UNL     1       1.635   2.488  21.075  0.00  0.00    +0.000 C 
ATOM     11  O   UNL     1       1.450   1.532  20.008  0.00  0.00    +0.000 OA
ATOM     12  C   UNL     1       2.117   1.963  18.806  0.00  0.00    +0.000 C 
ATOM     13  C   UNL     1       1.576   3.333  18.360  0.00  0.00    +0.000 C 
ATOM     14  C   UNL     1       3.324   5.898  18.419  0.00  0.00    +0.000 A 
ATOM     15  C   UNL     1       4.228   4.941  17.904  0.00  0.00    +0.000 A 
ATOM     16  C   UNL     1       5.367   5.276  17.179  0.00  0.00    +0.000 A 
ENDROOT
BRANCH   5  17
ATOM     17  C   UNL     1       1.008   8.908  20.156  0.00  0.00    +0.000 A 
ATOM     18  C   UNL     1       0.492   8.734  21.457  0.00  0.00    +0.000 A 
ATOM     19  C   UNL     1      -0.267   9.728  22.076  0.00  0.00    +0.000 A 
ATOM     20  C   UNL     1      -0.565  10.901  21.390  0.00  0.00    +0.000 A 
ATOM     21  C   UNL     1      -0.094  11.104  20.087  0.00  0.00    +0.000 A 
ATOM     22  C   UNL     1       0.734  10.132  19.508  0.00  0.00    +0.000 A 
BRANCH  21  23
ATOM     23  C   UNL     1      -0.463  12.393  19.424  0.00  0.00    +0.000 C 
ATOM     24  O   UNL     1      -1.487  12.369  18.734  0.00  0.00    +0.000 OA
ATOM     25  N   UNL     1       0.319  13.542  19.537  0.00  0.00    +0.000 N 
ATOM     26  C   UNL     1       1.529  13.711  20.331  0.00  0.00    +0.000 C 
ATOM     27  C   UNL     1      -0.146  14.750  18.863  0.00  0.00    +0.000 C 
ENDBRANCH  21  23
ENDBRANCH   5  17
BRANCH   1  29
ATOM     28  C   UNL     1       7.748   7.689  17.234  0.00  0.00    +0.000 C 
ATOM     29  O   UNL     1       6.821   6.995  16.396  0.00  0.00    +0.000 OA
ENDBRANCH   1  29
BRANCH  16  30
ATOM     30  O   UNL     1       6.038   4.161  16.775  0.00  0.00    +0.000 OA
ATOM     31  C   UNL     1       6.054   3.801  15.407  0.00  0.00    +0.000 C 
ENDBRANCH  16  30
TORSDOF 4
ENDMDL
