MODEL 1
REMARK VINA RESULT:      -8.0      0.000      0.000
REMARK  Name = 
REMARK  7 active torsions:
REMARK  status: ('A' for Active; 'I' for Inactive)
REMARK    1  A    between atoms: C_1  and  C_2
REMARK    2  A    between atoms: C_5  and  N_6
REMARK    3  A    between atoms: N_6  and  C_7
REMARK    4  A    between atoms: N_6  and  S_8
REMARK    5  A    between atoms: S_8  and  C_11
REMARK    6  A    between atoms: C_14  and  C_15
REMARK    7  A    between atoms: C_18  and  C_19
REMARK                            x       y       z     vdW  Elec       q    Type
REMARK                         _______ _______ _______ _____ _____    ______ ____
ROOT
ATOM      1  S   UNL     1       4.452   3.610  18.296  0.00  0.00    +0.000 S 
ATOM      2  O   UNL     1       3.601   2.660  17.609  0.00  0.00    +0.000 OA
ATOM      3  O   UNL     1       5.221   3.200  19.455  0.00  0.00    +0.000 OA
ENDROOT
BRANCH   1   4
ATOM      4  C   UNL     1       3.382   4.944  18.836  0.00  0.00    +0.000 A 
ATOM      5  C   UNL     1       2.914   4.969  20.155  0.00  0.00    +0.000 A 
ATOM      6  C   UNL     1       2.229   6.096  20.635  0.00  0.00    +0.000 A 
ATOM      7  C   UNL     1       2.013   7.209  19.807  0.00  0.00    +0.000 A 
ATOM      8  C   UNL     1       2.485   7.165  18.486  0.00  0.00    +0.000 A 
ATOM      9  C   UNL     1       3.179   6.047  18.004  0.00  0.00    +0.000 A 
BRANCH   7  10
ATOM     10  C   UNL     1       1.340   8.407  20.282  0.00  0.00    +0.000 A 
ATOM     11  C   UNL     1       1.092   9.559  19.569  0.00  0.00    +0.000 A 
ATOM     12  O   UNL     1       0.411  10.423  20.373  0.00  0.00    +0.000 OA
ATOM     13  C   UNL     1       0.269   9.738  21.549  0.00  0.00    +0.000 A 
ATOM     14  C   UNL     1      -0.450  10.426  22.639  0.00  0.00    +0.000 C 
ATOM     15  N   UNL     1       0.799   8.531  21.545  0.00  0.00    +0.000 NA
ENDBRANCH   7  10
ENDBRANCH   1   4
BRANCH   1  16
ATOM     16  N   UNL     1       5.488   4.301  17.156  0.00  0.00    +0.000 N 
ATOM     17  C   UNL     1       5.317   3.972  15.740  0.00  0.00    +0.000 C 
BRANCH  16  22
ATOM     18  C   UNL     1       8.712   8.844  18.510  0.00  0.00    +0.000 C 
ATOM     19  C   UNL     1       7.855   7.657  18.176  0.00  0.00    +0.000 A 
ATOM     20  C   UNL     1       6.897   7.732  17.160  0.00  0.00    +0.000 A 
ATOM     21  C   UNL     1       6.128   6.612  16.833  0.00  0.00    +0.000 A 
ATOM     22  C   UNL     1       6.308   5.408  17.517  0.00  0.00    +0.000 A 
ATOM     23  C   UNL     1       7.240   5.330  18.551  0.00  0.00    +0.000 A 
ATOM     24  C   UNL     1       8.015   6.451  18.875  0.00  0.00    +0.000 A 
ENDBRANCH  16  22
ENDBRANCH   1  16
TORSDOF 4
ENDMDL
MODEL 2
REMARK VINA RESULT:      -7.9      1.778      2.547
REMARK  Name = 
REMARK  7 active torsions:
REMARK  status: ('A' for Active; 'I' for Inactive)
REMARK    1  A    between atoms: C_1  and  C_2
REMARK    2  A    between atoms: C_5  and  N_6
REMARK    3  A    between atoms: N_6  and  C_7
REMARK    4  A    between atoms: N_6  and  S_8
REMARK    5  A    between atoms: S_8  and  C_11
REMARK    6  A    between atoms: C_14  and  C_15
REMARK    7  A    between atoms: C_18  and  C_19
REMARK                            x       y       z     vdW  Elec       q    Type
REMARK                         _______ _______ _______ _____ _____    ______ ____
ROOT
ATOM      1  S   UNL     1       2.079   3.343  18.386  0.00  0.00    +0.000 S 
ATOM      2  O   UNL     1       1.607   3.514  17.027  0.00  0.00    +0.000 OA
ATOM      3  O   UNL     1       1.398   2.434  19.288  0.00  0.00    +0.000 OA
ENDROOT
BRANCH   1   4
ATOM      4  C   UNL     1       2.016   4.964  19.148  0.00  0.00    +0.000 A 
ATOM      5  C   UNL     1       2.203   6.108  18.364  0.00  0.00    +0.000 A 
ATOM      6  C   UNL     1       1.978   7.380  18.914  0.00  0.00    +0.000 A 
ATOM      7  C   UNL     1       1.556   7.519  20.245  0.00  0.00    +0.000 A 
ATOM      8  C   UNL     1       1.378   6.362  21.018  0.00  0.00    +0.000 A 
ATOM      9  C   UNL     1       1.591   5.089  20.473  0.00  0.00    +0.000 A 
BRANCH   7  10
ATOM     10  C   UNL     1       1.278   8.819  20.836  0.00  0.00    +0.000 A 
ATOM     11  C   UNL     1       1.262   9.136  22.176  0.00  0.00    +0.000 A 
ATOM     12  O   UNL     1       0.990  10.466  22.299  0.00  0.00    +0.000 OA
ATOM     13  C   UNL     1       0.863  10.898  21.007  0.00  0.00    +0.000 A 
ATOM     14  C   UNL     1       0.568  12.331  20.809  0.00  0.00    +0.000 C 
ATOM     15  N   UNL     1       1.031   9.958  20.098  0.00  0.00    +0.000 NA
ENDBRANCH   7  10
ENDBRANCH   1   4
BRANCH   1  16
ATOM     16  N   UNL     1       3.717   2.940  18.321  0.00  0.00    +0.000 N 
ATOM     17  C   UNL     1       4.106   1.535  18.189  0.00  0.00    +0.000 C 
BRANCH  16  22
ATOM     18  C   UNL     1       7.672   7.017  17.539  0.00  0.00    +0.000 C 
ATOM     19  C   UNL     1       6.651   5.934  17.733  0.00  0.00    +0.000 A 
ATOM     20  C   UNL     1       6.395   5.414  19.007  0.00  0.00    +0.000 A 
ATOM     21  C   UNL     1       5.419   4.430  19.182  0.00  0.00    +0.000 A 
ATOM     22  C   UNL     1       4.690   3.955  18.090  0.00  0.00    +0.000 A 
ATOM     23  C   UNL     1       4.957   4.445  16.813  0.00  0.00    +0.000 A 
ATOM     24  C   UNL     1       5.931   5.436  16.637  0.00  0.00    +0.000 A 
ENDBRANCH  16  22
ENDBRANCH   1  16
TORSDOF 4
ENDMDL
MODEL 3
REMARK VINA RESULT:      -7.9      0.313      1.035
REMARK  Name = 
REMARK  7 active torsions:
REMARK  status: ('A' for Active; 'I' for Inactive)
REMARK    1  A    between atoms: C_1  and  C_2
REMARK    2  A    between atoms: C_5  and  N_6
REMARK    3  A    between atoms: N_6  and  C_7
REMARK    4  A    between atoms: N_6  and  S_8
REMARK    5  A    between atoms: S_8  and  C_11
REMARK    6  A    between atoms: C_14  and  C_15
REMARK    7  A    between atoms: C_18  and  C_19
REMARK                            x       y       z     vdW  Elec       q    Type
REMARK                         _______ _______ _______ _____ _____    ______ ____
ROOT
ATOM      1  S   UNL     1       4.209   3.817  18.039  0.00  0.00    +0.000 S 
ATOM      2  O   UNL     1       3.180   3.216  17.215  0.00  0.00    +0.000 OA
ATOM      3  O   UNL     1       4.796   3.072  19.137  0.00  0.00    +0.000 OA
ENDROOT
BRANCH   1   4
ATOM      4  C   UNL     1       3.486   5.294  18.750  0.00  0.00    +0.000 A 
ATOM      5  C   UNL     1       3.221   6.401  17.936  0.00  0.00    +0.000 A 
ATOM      6  C   UNL     1       2.494   7.489  18.443  0.00  0.00    +0.000 A 
ATOM      7  C   UNL     1       2.016   7.477  19.763  0.00  0.00    +0.000 A 
ATOM      8  C   UNL     1       2.294   6.361  20.568  0.00  0.00    +0.000 A 
ATOM      9  C   UNL     1       3.011   5.268  20.065  0.00  0.00    +0.000 A 
BRANCH   7  10
ATOM     10  C   UNL     1       1.227   8.570  20.310  0.00  0.00    +0.000 A 
ATOM     11  C   UNL     1       0.709   9.645  19.623  0.00  0.00    +0.000 A 
ATOM     12  O   UNL     1       0.009  10.417  20.502  0.00  0.00    +0.000 OA
ATOM     13  C   UNL     1       0.132   9.756  21.694  0.00  0.00    +0.000 A 
ATOM     14  C   UNL     1      -0.541  10.358  22.863  0.00  0.00    +0.000 C 
ATOM     15  N   UNL     1       0.842   8.648  21.633  0.00  0.00    +0.000 NA
ENDBRANCH   7  10
ENDBRANCH   1   4
BRANCH   1  16
ATOM     16  N   UNL     1       5.438   4.366  17.019  0.00  0.00    +0.000 N 
ATOM     17  C   UNL     1       5.438   3.957  15.613  0.00  0.00    +0.000 C 
BRANCH  16  22
ATOM     18  C   UNL     1       8.746   8.783  18.573  0.00  0.00    +0.000 C 
ATOM     19  C   UNL     1       7.867   7.629  18.186  0.00  0.00    +0.000 A 
ATOM     20  C   UNL     1       6.943   7.754  17.143  0.00  0.00    +0.000 A 
ATOM     21  C   UNL     1       6.153   6.664  16.769  0.00  0.00    +0.000 A 
ATOM     22  C   UNL     1       6.277   5.441  17.430  0.00  0.00    +0.000 A 
ATOM     23  C   UNL     1       7.174   5.314  18.489  0.00  0.00    +0.000 A 
ATOM     24  C   UNL     1       7.970   6.404  18.862  0.00  0.00    +0.000 A 
ENDBRANCH  16  22
ENDBRANCH   1  16
TORSDOF 4
ENDMDL
MODEL 4
REMARK VINA RESULT:      -7.8      3.608      6.609
REMARK  Name = 
REMARK  7 active torsions:
REMARK  status: ('A' for Active; 'I' for Inactive)
REMARK    1  A    between atoms: C_1  and  C_2
REMARK    2  A    between atoms: C_5  and  N_6
REMARK    3  A    between atoms: N_6  and  C_7
REMARK    4  A    between atoms: N_6  and  S_8
REMARK    5  A    between atoms: S_8  and  C_11
REMARK    6  A    between atoms: C_14  and  C_15
REMARK    7  A    between atoms: C_18  and  C_19
REMARK                            x       y       z     vdW  Elec       q    Type
REMARK                         _______ _______ _______ _____ _____    ______ ____
ROOT
ATOM      1  S   UNL     1       6.901   4.845  17.309  0.00  0.00    +0.000 S 
ATOM      2  O   UNL     1       6.744   4.069  18.522  0.00  0.00    +0.000 OA
ATOM      3  O   UNL     1       7.862   4.440  16.300  0.00  0.00    +0.000 OA
ENDROOT
BRANCH   1   4
ATOM      4  C   UNL     1       7.365   6.497  17.825  0.00  0.00    +0.000 A 
ATOM      5  C   UNL     1       8.241   6.670  18.903  0.00  0.00    +0.000 A 
ATOM      6  C   UNL     1       8.749   7.943  19.199  0.00  0.00    +0.000 A 
ATOM      7  C   UNL     1       8.395   9.054  18.416  0.00  0.00    +0.000 A 
ATOM      8  C   UNL     1       7.512   8.865  17.342  0.00  0.00    +0.000 A 
ATOM      9  C   UNL     1       7.009   7.594  17.036  0.00  0.00    +0.000 A 
BRANCH   7  10
ATOM     10  C   UNL     1       8.931  10.382  18.671  0.00  0.00    +0.000 A 
ATOM     11  C   UNL     1       9.698  10.776  19.745  0.00  0.00    +0.000 A 
ATOM     12  O   UNL     1      10.017  12.092  19.583  0.00  0.00    +0.000 OA
ATOM     13  C   UNL     1       9.426  12.432  18.397  0.00  0.00    +0.000 A 
ATOM     14  C   UNL     1       9.603  13.825  17.939  0.00  0.00    +0.000 C 
ATOM     15  N   UNL     1       8.773  11.449  17.811  0.00  0.00    +0.000 NA
ENDBRANCH   7  10
ENDBRANCH   1   4
BRANCH   1  16
ATOM     16  N   UNL     1       5.380   5.009  16.595  0.00  0.00    +0.000 N 
ATOM     17  C   UNL     1       5.284   5.212  15.149  0.00  0.00    +0.000 C 
BRANCH  16  22
ATOM     18  C   UNL     1       0.684   3.432  19.483  0.00  0.00    +0.000 C 
ATOM     19  C   UNL     1       1.926   3.845  18.748  0.00  0.00    +0.000 A 
ATOM     20  C   UNL     1       2.607   2.937  17.930  0.00  0.00    +0.000 A 
ATOM     21  C   UNL     1       3.742   3.340  17.223  0.00  0.00    +0.000 A 
ATOM     22  C   UNL     1       4.209   4.652  17.325  0.00  0.00    +0.000 A 
ATOM     23  C   UNL     1       3.555   5.558  18.159  0.00  0.00    +0.000 A 
ATOM     24  C   UNL     1       2.413   5.155  18.864  0.00  0.00    +0.000 A 
ENDBRANCH  16  22
ENDBRANCH   1  16
TORSDOF 4
ENDMDL
MODEL 5
REMARK VINA RESULT:      -7.8      3.765      6.696
REMARK  Name = 
REMARK  7 active torsions:
REMARK  status: ('A' for Active; 'I' for Inactive)
REMARK    1  A    between atoms: C_1  and  C_2
REMARK    2  A    between atoms: C_5  and  N_6
REMARK    3  A    between atoms: N_6  and  C_7
REMARK    4  A    between atoms: N_6  and  S_8
REMARK    5  A    between atoms: S_8  and  C_11
REMARK    6  A    between atoms: C_14  and  C_15
REMARK    7  A    between atoms: C_18  and  C_19
REMARK                            x       y       z     vdW  Elec       q    Type
REMARK                         _______ _______ _______ _____ _____    ______ ____
ROOT
ATOM      1  S   UNL     1       6.868   4.823  17.359  0.00  0.00    +0.000 S 
ATOM      2  O   UNL     1       6.658   4.054  18.569  0.00  0.00    +0.000 OA
ATOM      3  O   UNL     1       7.844   4.391  16.378  0.00  0.00    +0.000 OA
ENDROOT
BRANCH   1   4
ATOM      4  C   UNL     1       7.360   6.464  17.885  0.00  0.00    +0.000 A 
ATOM      5  C   UNL     1       8.208   6.616  18.988  0.00  0.00    +0.000 A 
ATOM      6  C   UNL     1       8.741   7.877  19.296  0.00  0.00    +0.000 A 
ATOM      7  C   UNL     1       8.440   8.994  18.501  0.00  0.00    +0.000 A 
ATOM      8  C   UNL     1       7.585   8.825  17.401  0.00  0.00    +0.000 A 
ATOM      9  C   UNL     1       7.058   7.567  17.083  0.00  0.00    +0.000 A 
BRANCH   7  10
ATOM     10  C   UNL     1       9.004  10.308  18.768  0.00  0.00    +0.000 A 
ATOM     11  C   UNL     1       9.447  10.791  19.980  0.00  0.00    +0.000 A 
ATOM     12  O   UNL     1       9.929  12.052  19.788  0.00  0.00    +0.000 OA
ATOM     13  C   UNL     1       9.761  12.270  18.447  0.00  0.00    +0.000 A 
ATOM     14  C   UNL     1      10.205  13.577  17.923  0.00  0.00    +0.000 C 
ATOM     15  N   UNL     1       9.220  11.261  17.794  0.00  0.00    +0.000 NA
ENDBRANCH   7  10
ENDBRANCH   1   4
BRANCH   1  16
ATOM     16  N   UNL     1       5.371   5.024  16.604  0.00  0.00    +0.000 N 
ATOM     17  C   UNL     1       5.323   5.517  15.227  0.00  0.00    +0.000 C 
BRANCH  16  22
ATOM     18  C   UNL     1       0.616   2.824  18.934  0.00  0.00    +0.000 C 
ATOM     19  C   UNL     1       1.853   3.396  18.302  0.00  0.00    +0.000 A 
ATOM     20  C   UNL     1       2.093   4.774  18.322  0.00  0.00    +0.000 A 
ATOM     21  C   UNL     1       3.262   5.293  17.762  0.00  0.00    +0.000 A 
ATOM     22  C   UNL     1       4.202   4.443  17.175  0.00  0.00    +0.000 A 
ATOM     23  C   UNL     1       3.960   3.071  17.124  0.00  0.00    +0.000 A 
ATOM     24  C   UNL     1       2.790   2.550  17.691  0.00  0.00    +0.000 A 
ENDBRANCH  16  22
ENDBRANCH   1  16
TORSDOF 4
ENDMDL
MODEL 6
REMARK VINA RESULT:      -7.8      3.564      6.578
REMARK  Name = 
REMARK  7 active torsions:
REMARK  status: ('A' for Active; 'I' for Inactive)
REMARK    1  A    between atoms: C_1  and  C_2
REMARK    2  A    between atoms: C_5  and  N_6
REMARK    3  A    between atoms: N_6  and  C_7
REMARK    4  A    between atoms: N_6  and  S_8
REMARK    5  A    between atoms: S_8  and  C_11
REMARK    6  A    between atoms: C_14  and  C_15
REMARK    7  A    between atoms: C_18  and  C_19
REMARK                            x       y       z     vdW  Elec       q    Type
REMARK                         _______ _______ _______ _____ _____    ______ ____
ROOT
ATOM      1  S   UNL     1       6.891   4.908  17.277  0.00  0.00    +0.000 S 
ATOM      2  O   UNL     1       6.757   4.071  18.452  0.00  0.00    +0.000 OA
ATOM      3  O   UNL     1       7.797   4.531  16.209  0.00  0.00    +0.000 OA
ENDROOT
BRANCH   1   4
ATOM      4  C   UNL     1       7.428   6.515  17.862  0.00  0.00    +0.000 A 
ATOM      5  C   UNL     1       8.235   6.606  19.001  0.00  0.00    +0.000 A 
ATOM      6  C   UNL     1       8.806   7.836  19.360  0.00  0.00    +0.000 A 
ATOM      7  C   UNL     1       8.585   8.983  18.581  0.00  0.00    +0.000 A 
ATOM      8  C   UNL     1       7.770   8.875  17.444  0.00  0.00    +0.000 A 
ATOM      9  C   UNL     1       7.205   7.647  17.074  0.00  0.00    +0.000 A 
BRANCH   7  10
ATOM     10  C   UNL     1       9.191  10.266  18.902  0.00  0.00    +0.000 A 
ATOM     11  C   UNL     1       9.687  11.195  18.016  0.00  0.00    +0.000 A 
ATOM     12  O   UNL     1      10.135  12.269  18.727  0.00  0.00    +0.000 OA
ATOM     13  C   UNL     1       9.874  11.935  20.029  0.00  0.00    +0.000 A 
ATOM     14  C   UNL     1      10.249  12.925  21.058  0.00  0.00    +0.000 C 
ATOM     15  N   UNL     1       9.308  10.756  20.187  0.00  0.00    +0.000 NA
ENDBRANCH   7  10
ENDBRANCH   1   4
BRANCH   1  16
ATOM     16  N   UNL     1       5.348   5.157  16.637  0.00  0.00    +0.000 N 
ATOM     17  C   UNL     1       5.201   5.430  15.206  0.00  0.00    +0.000 C 
BRANCH  16  22
ATOM     18  C   UNL     1       0.714   3.616  19.640  0.00  0.00    +0.000 C 
ATOM     19  C   UNL     1       1.941   4.017  18.873  0.00  0.00    +0.000 A 
ATOM     20  C   UNL     1       2.493   3.162  17.913  0.00  0.00    +0.000 A 
ATOM     21  C   UNL     1       3.615   3.558  17.181  0.00  0.00    +0.000 A 
ATOM     22  C   UNL     1       4.197   4.808  17.399  0.00  0.00    +0.000 A 
ATOM     23  C   UNL     1       3.672   5.656  18.374  0.00  0.00    +0.000 A 
ATOM     24  C   UNL     1       2.544   5.262  19.104  0.00  0.00    +0.000 A 
ENDBRANCH  16  22
ENDBRANCH   1  16
TORSDOF 4
ENDMDL
MODEL 7
REMARK VINA RESULT:      -7.8      0.832      1.402
REMARK  Name = 
REMARK  7 active torsions:
REMARK  status: ('A' for Active; 'I' for Inactive)
REMARK    1  A    between atoms: C_1  and  C_2
REMARK    2  A    between atoms: C_5  and  N_6
REMARK    3  A    between atoms: N_6  and  C_7
REMARK    4  A    between atoms: N_6  and  S_8
REMARK    5  A    between atoms: S_8  and  C_11
REMARK    6  A    between atoms: C_14  and  C_15
REMARK    7  A    between atoms: C_18  and  C_19
REMARK                            x       y       z     vdW  Elec       q    Type
REMARK                         _______ _______ _______ _____ _____    ______ ____
ROOT
ATOM      1  S   UNL     1       4.419   3.636  18.330  0.00  0.00    +0.000 S 
ATOM      2  O   UNL     1       3.555   2.690  17.654  0.00  0.00    +0.000 OA
ATOM      3  O   UNL     1       5.173   3.231  19.501  0.00  0.00    +0.000 OA
ENDROOT
BRANCH   1   4
ATOM      4  C   UNL     1       3.373   4.999  18.840  0.00  0.00    +0.000 A 
ATOM      5  C   UNL     1       2.888   5.051  20.151  0.00  0.00    +0.000 A 
ATOM      6  C   UNL     1       2.221   6.198  20.608  0.00  0.00    +0.000 A 
ATOM      7  C   UNL     1       2.041   7.305  19.764  0.00  0.00    +0.000 A 
ATOM      8  C   UNL     1       2.529   7.234  18.450  0.00  0.00    +0.000 A 
ATOM      9  C   UNL     1       3.205   6.096  17.991  0.00  0.00    +0.000 A 
BRANCH   7  10
ATOM     10  C   UNL     1       1.388   8.524  20.215  0.00  0.00    +0.000 A 
ATOM     11  C   UNL     1       1.054   8.857  21.509  0.00  0.00    +0.000 A 
ATOM     12  O   UNL     1       0.489  10.098  21.500  0.00  0.00    +0.000 OA
ATOM     13  C   UNL     1       0.517  10.464  20.181  0.00  0.00    +0.000 A 
ATOM     14  C   UNL     1      -0.032  11.793  19.846  0.00  0.00    +0.000 C 
ATOM     15  N   UNL     1       1.048   9.565  19.377  0.00  0.00    +0.000 NA
ENDBRANCH   7  10
ENDBRANCH   1   4
BRANCH   1  16
ATOM     16  N   UNL     1       5.476   4.286  17.185  0.00  0.00    +0.000 N 
ATOM     17  C   UNL     1       5.349   3.883  15.783  0.00  0.00    +0.000 C 
BRANCH  16  22
ATOM     18  C   UNL     1       8.734   8.784  18.607  0.00  0.00    +0.000 C 
ATOM     19  C   UNL     1       7.894   7.603  18.214  0.00  0.00    +0.000 A 
ATOM     20  C   UNL     1       7.986   6.396  18.917  0.00  0.00    +0.000 A 
ATOM     21  C   UNL     1       7.177   5.314  18.566  0.00  0.00    +0.000 A 
ATOM     22  C   UNL     1       6.268   5.424  17.512  0.00  0.00    +0.000 A 
ATOM     23  C   UNL     1       6.187   6.612  16.787  0.00  0.00    +0.000 A 
ATOM     24  C   UNL     1       6.995   7.700  17.142  0.00  0.00    +0.000 A 
ENDBRANCH  16  22
ENDBRANCH   1  16
TORSDOF 4
ENDMDL
MODEL 8
REMARK VINA RESULT:      -7.7      2.183      3.482
REMARK  Name = 
REMARK  7 active torsions:
REMARK  status: ('A' for Active; 'I' for Inactive)
REMARK    1  A    between atoms: C_1  and  C_2
REMARK    2  A    between atoms: C_5  and  N_6
REMARK    3  A    between atoms: N_6  and  C_7
REMARK    4  A    between atoms: N_6  and  S_8
REMARK    5  A    between atoms: S_8  and  C_11
REMARK    6  A    between atoms: C_14  and  C_15
REMARK    7  A    between atoms: C_18  and  C_19
REMARK                            x       y       z     vdW  Elec       q    Type
REMARK                         _______ _______ _______ _____ _____    ______ ____
ROOT
ATOM      1  S   UNL     1       3.114   5.108  18.831  0.00  0.00    +0.000 S 
ATOM      2  O   UNL     1       2.387   4.618  17.677  0.00  0.00    +0.000 OA
ATOM      3  O   UNL     1       3.048   4.396  20.093  0.00  0.00    +0.000 OA
ENDROOT
BRANCH   1   4
ATOM      4  C   UNL     1       2.504   6.764  19.143  0.00  0.00    +0.000 A 
ATOM      5  C   UNL     1       2.374   7.669  18.084  0.00  0.00    +0.000 A 
ATOM      6  C   UNL     1       1.732   8.900  18.286  0.00  0.00    +0.000 A 
ATOM      7  C   UNL     1       1.206   9.234  19.544  0.00  0.00    +0.000 A 
ATOM      8  C   UNL     1       1.348   8.317  20.597  0.00  0.00    +0.000 A 
ATOM      9  C   UNL     1       1.979   7.082  20.399  0.00  0.00    +0.000 A 
BRANCH   7  10
ATOM     10  C   UNL     1       0.502  10.485  19.780  0.00  0.00    +0.000 A 
ATOM     11  C   UNL     1       1.054  11.694  20.141  0.00  0.00    +0.000 A 
ATOM     12  O   UNL     1       0.052  12.614  20.229  0.00  0.00    +0.000 OA
ATOM     13  C   UNL     1      -1.074  11.908  19.903  0.00  0.00    +0.000 A 
ATOM     14  C   UNL     1      -2.350  12.651  19.903  0.00  0.00    +0.000 C 
ATOM     15  N   UNL     1      -0.860  10.638  19.622  0.00  0.00    +0.000 NA
ENDBRANCH   7  10
ENDBRANCH   1   4
BRANCH   1  16
ATOM     16  N   UNL     1       4.730   5.302  18.384  0.00  0.00    +0.000 N 
ATOM     17  C   UNL     1       5.751   5.436  19.425  0.00  0.00    +0.000 C 
BRANCH  16  22
ATOM     18  C   UNL     1       6.377   4.083  13.030  0.00  0.00    +0.000 C 
ATOM     19  C   UNL     1       5.923   4.404  14.424  0.00  0.00    +0.000 A 
ATOM     20  C   UNL     1       5.920   3.419  15.418  0.00  0.00    +0.000 A 
ATOM     21  C   UNL     1       5.528   3.735  16.721  0.00  0.00    +0.000 A 
ATOM     22  C   UNL     1       5.135   5.035  17.045  0.00  0.00    +0.000 A 
ATOM     23  C   UNL     1       5.107   6.018  16.056  0.00  0.00    +0.000 A 
ATOM     24  C   UNL     1       5.506   5.702  14.750  0.00  0.00    +0.000 A 
ENDBRANCH  16  22
ENDBRANCH   1  16
TORSDOF 4
ENDMDL
MODEL 9
REMARK VINA RESULT:      -7.7      2.201      3.444
REMARK  Name = 
REMARK  7 active torsions:
REMARK  status: ('A' for Active; 'I' for Inactive)
REMARK    1  A    between atoms: C_1  and  C_2
REMARK    2  A    between atoms: C_5  and  N_6
REMARK    3  A    between atoms: N_6  and  C_7
REMARK    4  A    between atoms: N_6  and  S_8
REMARK    5  A    between atoms: S_8  and  C_11
REMARK    6  A    between atoms: C_14  and  C_15
REMARK    7  A    between atoms: C_18  and  C_19
REMARK                            x       y       z     vdW  Elec       q    Type
REMARK                         _______ _______ _______ _____ _____    ______ ____
ROOT
ATOM      1  S   UNL     1       3.152   5.198  18.830  0.00  0.00    +0.000 S 
ATOM      2  O   UNL     1       2.400   4.618  17.736  0.00  0.00    +0.000 OA
ATOM      3  O   UNL     1       3.126   4.583  20.143  0.00  0.00    +0.000 OA
ENDROOT
BRANCH   1   4
ATOM      4  C   UNL     1       2.534   6.869  19.033  0.00  0.00    +0.000 A 
ATOM      5  C   UNL     1       2.428   7.712  17.922  0.00  0.00    +0.000 A 
ATOM      6  C   UNL     1       1.781   8.951  18.039  0.00  0.00    +0.000 A 
ATOM      7  C   UNL     1       1.226   9.355  19.263  0.00  0.00    +0.000 A 
ATOM      8  C   UNL     1       1.345   8.500  20.369  0.00  0.00    +0.000 A 
ATOM      9  C   UNL     1       1.981   7.257  20.257  0.00  0.00    +0.000 A 
BRANCH   7  10
ATOM     10  C   UNL     1       0.517  10.616  19.412  0.00  0.00    +0.000 A 
ATOM     11  C   UNL     1       1.036  11.883  19.269  0.00  0.00    +0.000 A 
ATOM     12  O   UNL     1       0.029  12.783  19.460  0.00  0.00    +0.000 OA
ATOM     13  C   UNL     1      -1.069  12.004  19.703  0.00  0.00    +0.000 A 
ATOM     14  C   UNL     1      -2.344  12.706  19.947  0.00  0.00    +0.000 C 
ATOM     15  N   UNL     1      -0.834  10.707  19.680  0.00  0.00    +0.000 NA
ENDBRANCH   7  10
ENDBRANCH   1   4
BRANCH   1  16
ATOM     16  N   UNL     1       4.754   5.371  18.327  0.00  0.00    +0.000 N 
ATOM     17  C   UNL     1       5.797   5.613  19.325  0.00  0.00    +0.000 C 
BRANCH  16  22
ATOM     18  C   UNL     1       6.263   3.971  12.976  0.00  0.00    +0.000 C 
ATOM     19  C   UNL     1       5.891   4.335  14.384  0.00  0.00    +0.000 A 
ATOM     20  C   UNL     1       5.562   5.653  14.718  0.00  0.00    +0.000 A 
ATOM     21  C   UNL     1       5.184   5.975  16.023  0.00  0.00    +0.000 A 
ATOM     22  C   UNL     1       5.131   4.987  17.008  0.00  0.00    +0.000 A 
ATOM     23  C   UNL     1       5.484   3.675  16.693  0.00  0.00    +0.000 A 
ATOM     24  C   UNL     1       5.858   3.351  15.383  0.00  0.00    +0.000 A 
ENDBRANCH  16  22
ENDBRANCH   1  16
TORSDOF 4
ENDMDL
