MODEL 1
REMARK VINA RESULT:      -7.1      0.000      0.000
REMARK  Name = 
REMARK  5 active torsions:
REMARK  status: ('A' for Active; 'I' for Inactive)
REMARK    1  A    between atoms: N_11  and  C_12
REMARK    2  A    between atoms: C_12  and  C_13
REMARK    3  A    between atoms: C_13  and  C_14
REMARK    4  A    between atoms: C_14  and  O_15
REMARK    5  A    between atoms: O_15  and  C_16
REMARK                            x       y       z     vdW  Elec       q    Type
REMARK                         _______ _______ _______ _____ _____    ______ ____
ROOT
ATOM      1  O   UNL     1       2.202   3.304  16.669  0.00  0.00    +0.000 OA
ATOM      2  C   UNL     1       3.188   3.439  17.369  0.00  0.00    +0.000 C 
ATOM      3  C   UNL     1       4.424   4.090  16.931  0.00  0.00    +0.000 A 
ATOM      4  C   UNL     1       4.758   4.666  15.721  0.00  0.00    +0.000 A 
ATOM      5  C   UNL     1       6.040   5.214  15.604  0.00  0.00    +0.000 A 
ATOM      6  C   UNL     1       6.946   5.171  16.685  0.00  0.00    +0.000 A 
ATOM      7  C   UNL     1       6.585   4.582  17.900  0.00  0.00    +0.000 A 
ATOM      8  C   UNL     1       5.312   4.051  17.992  0.00  0.00    +0.000 A 
ATOM      9  C   UNL     1       4.643   3.384  19.106  0.00  0.00    +0.000 C 
ATOM     10  O   UNL     1       5.145   3.195  20.196  0.00  0.00    +0.000 OA
ATOM     11  N   UNL     1       3.395   3.041  18.662  0.00  0.00    +0.000 N 
ENDROOT
BRANCH  11  12
ATOM     12  C   UNL     1       2.398   2.370  19.477  0.00  0.00    +0.000 C 
BRANCH  12  13
ATOM     13  C   UNL     1       2.020   3.192  20.706  0.00  0.00    +0.000 C 
BRANCH  13  14
ATOM     14  C   UNL     1       1.371   4.519  20.316  0.00  0.00    +0.000 C 
BRANCH  14  15
ATOM     15  O   UNL     1       2.275   5.567  20.671  0.00  0.00    +0.000 OA
BRANCH  15  16
ATOM     16  C   UNL     1       2.153   6.735  19.968  0.00  0.00    +0.000 A 
ATOM     17  C   UNL     1       2.707   6.719  18.685  0.00  0.00    +0.000 A 
ATOM     18  C   UNL     1       2.632   7.846  17.863  0.00  0.00    +0.000 A 
ATOM     19  C   UNL     1       1.985   8.993  18.318  0.00  0.00    +0.000 A 
ATOM     20  C   UNL     1       1.411   9.008  19.588  0.00  0.00    +0.000 A 
ATOM     21  C   UNL     1       1.494   7.882  20.413  0.00  0.00    +0.000 A 
ENDBRANCH  15  16
ENDBRANCH  14  15
ENDBRANCH  13  14
ENDBRANCH  12  13
ENDBRANCH  11  12
TORSDOF 5
ENDMDL
MODEL 2
REMARK VINA RESULT:      -7.1      2.383      6.350
REMARK  Name = 
REMARK  5 active torsions:
REMARK  status: ('A' for Active; 'I' for Inactive)
REMARK    1  A    between atoms: N_11  and  C_12
REMARK    2  A    between atoms: C_12  and  C_13
REMARK    3  A    between atoms: C_13  and  C_14
REMARK    4  A    between atoms: C_14  and  O_15
REMARK    5  A    between atoms: O_15  and  C_16
REMARK                            x       y       z     vdW  Elec       q    Type
REMARK                         _______ _______ _______ _____ _____    ______ ____
ROOT
ATOM      1  O   UNL     1       3.026   6.944  19.287  0.00  0.00    +0.000 OA
ATOM      2  C   UNL     1       3.153   5.798  18.896  0.00  0.00    +0.000 C 
ATOM      3  C   UNL     1       2.398   4.661  19.422  0.00  0.00    +0.000 A 
ATOM      4  C   UNL     1       1.434   4.599  20.410  0.00  0.00    +0.000 A 
ATOM      5  C   UNL     1       0.888   3.343  20.696  0.00  0.00    +0.000 A 
ATOM      6  C   UNL     1       1.316   2.194  20.000  0.00  0.00    +0.000 A 
ATOM      7  C   UNL     1       2.295   2.280  19.005  0.00  0.00    +0.000 A 
ATOM      8  C   UNL     1       2.815   3.533  18.738  0.00  0.00    +0.000 A 
ATOM      9  C   UNL     1       3.829   3.950  17.771  0.00  0.00    +0.000 C 
ATOM     10  O   UNL     1       4.394   3.200  17.001  0.00  0.00    +0.000 OA
ATOM     11  N   UNL     1       3.984   5.300  17.929  0.00  0.00    +0.000 N 
ENDROOT
BRANCH  11  12
ATOM     12  C   UNL     1       4.893   6.112  17.139  0.00  0.00    +0.000 C 
BRANCH  12  13
ATOM     13  C   UNL     1       6.345   5.925  17.573  0.00  0.00    +0.000 C 
BRANCH  13  14
ATOM     14  C   UNL     1       7.129   5.086  16.565  0.00  0.00    +0.000 C 
BRANCH  14  15
ATOM     15  O   UNL     1       7.139   5.794  15.324  0.00  0.00    +0.000 OA
BRANCH  15  16
ATOM     16  C   UNL     1       6.952   5.040  14.196  0.00  0.00    +0.000 A 
ATOM     17  C   UNL     1       5.837   4.198  14.221  0.00  0.00    +0.000 A 
ATOM     18  C   UNL     1       5.531   3.391  13.123  0.00  0.00    +0.000 A 
ATOM     19  C   UNL     1       6.333   3.436  11.985  0.00  0.00    +0.000 A 
ATOM     20  C   UNL     1       7.434   4.291  11.945  0.00  0.00    +0.000 A 
ATOM     21  C   UNL     1       7.744   5.092  13.049  0.00  0.00    +0.000 A 
ENDBRANCH  15  16
ENDBRANCH  14  15
ENDBRANCH  13  14
ENDBRANCH  12  13
ENDBRANCH  11  12
TORSDOF 5
ENDMDL
MODEL 3
REMARK VINA RESULT:      -7.1      0.101      1.910
REMARK  Name = 
REMARK  5 active torsions:
REMARK  status: ('A' for Active; 'I' for Inactive)
REMARK    1  A    between atoms: N_11  and  C_12
REMARK    2  A    between atoms: C_12  and  C_13
REMARK    3  A    between atoms: C_13  and  C_14
REMARK    4  A    between atoms: C_14  and  O_15
REMARK    5  A    between atoms: O_15  and  C_16
REMARK                            x       y       z     vdW  Elec       q    Type
REMARK                         _______ _______ _______ _____ _____    ______ ____
ROOT
ATOM      1  O   UNL     1       5.269   3.323  20.224  0.00  0.00    +0.000 OA
ATOM      2  C   UNL     1       4.734   3.460  19.139  0.00  0.00    +0.000 C 
ATOM      3  C   UNL     1       5.365   4.104  17.986  0.00  0.00    +0.000 A 
ATOM      4  C   UNL     1       6.616   4.672  17.845  0.00  0.00    +0.000 A 
ATOM      5  C   UNL     1       6.934   5.220  16.598  0.00  0.00    +0.000 A 
ATOM      6  C   UNL     1       6.005   5.192  15.538  0.00  0.00    +0.000 A 
ATOM      7  C   UNL     1       4.743   4.613  15.705  0.00  0.00    +0.000 A 
ATOM      8  C   UNL     1       4.455   4.074  16.944  0.00  0.00    +0.000 A 
ATOM      9  C   UNL     1       3.248   3.406  17.428  0.00  0.00    +0.000 C 
ATOM     10  O   UNL     1       2.257   3.206  16.755  0.00  0.00    +0.000 OA
ATOM     11  N   UNL     1       3.482   3.080  18.736  0.00  0.00    +0.000 N 
ENDROOT
BRANCH  11  12
ATOM     12  C   UNL     1       2.531   2.381  19.582  0.00  0.00    +0.000 C 
BRANCH  12  13
ATOM     13  C   UNL     1       2.078   3.242  20.759  0.00  0.00    +0.000 C 
BRANCH  13  14
ATOM     14  C   UNL     1       1.397   4.525  20.287  0.00  0.00    +0.000 C 
BRANCH  14  15
ATOM     15  O   UNL     1       2.184   5.628  20.741  0.00  0.00    +0.000 OA
BRANCH  15  16
ATOM     16  C   UNL     1       2.095   6.779  20.005  0.00  0.00    +0.000 A 
ATOM     17  C   UNL     1       2.635   6.706  18.718  0.00  0.00    +0.000 A 
ATOM     18  C   UNL     1       2.590   7.811  17.864  0.00  0.00    +0.000 A 
ATOM     19  C   UNL     1       1.987   8.992  18.290  0.00  0.00    +0.000 A 
ATOM     20  C   UNL     1       1.427   9.064  19.565  0.00  0.00    +0.000 A 
ATOM     21  C   UNL     1       1.480   7.960  20.422  0.00  0.00    +0.000 A 
ENDBRANCH  15  16
ENDBRANCH  14  15
ENDBRANCH  13  14
ENDBRANCH  12  13
ENDBRANCH  11  12
TORSDOF 5
ENDMDL
MODEL 4
REMARK VINA RESULT:      -7.0      4.994      6.553
REMARK  Name = 
REMARK  5 active torsions:
REMARK  status: ('A' for Active; 'I' for Inactive)
REMARK    1  A    between atoms: N_11  and  C_12
REMARK    2  A    between atoms: C_12  and  C_13
REMARK    3  A    between atoms: C_13  and  C_14
REMARK    4  A    between atoms: C_14  and  O_15
REMARK    5  A    between atoms: O_15  and  C_16
REMARK                            x       y       z     vdW  Elec       q    Type
REMARK                         _______ _______ _______ _____ _____    ______ ____
ROOT
ATOM      1  O   UNL     1       5.129   5.990  15.619  0.00  0.00    +0.000 OA
ATOM      2  C   UNL     1       5.291   5.623  16.768  0.00  0.00    +0.000 C 
ATOM      3  C   UNL     1       4.344   4.786  17.506  0.00  0.00    +0.000 A 
ATOM      4  C   UNL     1       3.132   4.245  17.123  0.00  0.00    +0.000 A 
ATOM      5  C   UNL     1       2.445   3.477  18.069  0.00  0.00    +0.000 A 
ATOM      6  C   UNL     1       2.977   3.273  19.359  0.00  0.00    +0.000 A 
ATOM      7  C   UNL     1       4.206   3.831  19.724  0.00  0.00    +0.000 A 
ATOM      8  C   UNL     1       4.867   4.582  18.770  0.00  0.00    +0.000 A 
ATOM      9  C   UNL     1       6.148   5.282  18.839  0.00  0.00    +0.000 C 
ATOM     10  O   UNL     1       6.873   5.295  19.813  0.00  0.00    +0.000 OA
ATOM     11  N   UNL     1       6.329   5.883  17.623  0.00  0.00    +0.000 N 
ENDROOT
BRANCH  11  12
ATOM     12  C   UNL     1       7.498   6.669  17.269  0.00  0.00    +0.000 C 
BRANCH  12  13
ATOM     13  C   UNL     1       7.308   8.148  17.596  0.00  0.00    +0.000 C 
BRANCH  13  14
ATOM     14  C   UNL     1       8.503   8.711  18.363  0.00  0.00    +0.000 C 
BRANCH  14  15
ATOM     15  O   UNL     1       8.533  10.123  18.145  0.00  0.00    +0.000 OA
BRANCH  15  16
ATOM     16  C   UNL     1       9.522  10.815  18.793  0.00  0.00    +0.000 A 
ATOM     17  C   UNL     1      10.547  11.296  17.975  0.00  0.00    +0.000 A 
ATOM     18  C   UNL     1      11.604  12.030  18.516  0.00  0.00    +0.000 A 
ATOM     19  C   UNL     1      11.631  12.302  19.882  0.00  0.00    +0.000 A 
ATOM     20  C   UNL     1      10.600  11.844  20.701  0.00  0.00    +0.000 A 
ATOM     21  C   UNL     1       9.546  11.101  20.159  0.00  0.00    +0.000 A 
ENDBRANCH  15  16
ENDBRANCH  14  15
ENDBRANCH  13  14
ENDBRANCH  12  13
ENDBRANCH  11  12
TORSDOF 5
ENDMDL
MODEL 5
REMARK VINA RESULT:      -7.0      2.328      4.198
REMARK  Name = 
REMARK  5 active torsions:
REMARK  status: ('A' for Active; 'I' for Inactive)
REMARK    1  A    between atoms: N_11  and  C_12
REMARK    2  A    between atoms: C_12  and  C_13
REMARK    3  A    between atoms: C_13  and  C_14
REMARK    4  A    between atoms: C_14  and  O_15
REMARK    5  A    between atoms: O_15  and  C_16
REMARK                            x       y       z     vdW  Elec       q    Type
REMARK                         _______ _______ _______ _____ _____    ______ ____
ROOT
ATOM      1  O   UNL     1       4.128   3.527  16.162  0.00  0.00    +0.000 OA
ATOM      2  C   UNL     1       5.102   4.195  15.869  0.00  0.00    +0.000 C 
ATOM      3  C   UNL     1       5.770   4.149  14.568  0.00  0.00    +0.000 A 
ATOM      4  C   UNL     1       5.492   3.403  13.439  0.00  0.00    +0.000 A 
ATOM      5  C   UNL     1       6.328   3.580  12.332  0.00  0.00    +0.000 A 
ATOM      6  C   UNL     1       7.410   4.484  12.380  0.00  0.00    +0.000 A 
ATOM      7  C   UNL     1       7.673   5.228  13.534  0.00  0.00    +0.000 A 
ATOM      8  C   UNL     1       6.829   5.038  14.613  0.00  0.00    +0.000 A 
ATOM      9  C   UNL     1       6.834   5.656  15.937  0.00  0.00    +0.000 C 
ATOM     10  O   UNL     1       7.634   6.494  16.302  0.00  0.00    +0.000 OA
ATOM     11  N   UNL     1       5.791   5.102  16.629  0.00  0.00    +0.000 N 
ENDROOT
BRANCH  11  12
ATOM     12  C   UNL     1       5.436   5.461  17.990  0.00  0.00    +0.000 C 
BRANCH  12  13
ATOM     13  C   UNL     1       4.537   6.694  18.037  0.00  0.00    +0.000 C 
BRANCH  13  14
ATOM     14  C   UNL     1       3.060   6.315  17.946  0.00  0.00    +0.000 C 
BRANCH  14  15
ATOM     15  O   UNL     1       2.549   6.228  19.277  0.00  0.00    +0.000 OA
BRANCH  15  16
ATOM     16  C   UNL     1       2.129   4.990  19.685  0.00  0.00    +0.000 A 
ATOM     17  C   UNL     1       2.360   4.696  21.031  0.00  0.00    +0.000 A 
ATOM     18  C   UNL     1       1.962   3.471  21.570  0.00  0.00    +0.000 A 
ATOM     19  C   UNL     1       1.313   2.538  20.765  0.00  0.00    +0.000 A 
ATOM     20  C   UNL     1       1.059   2.834  19.427  0.00  0.00    +0.000 A 
ATOM     21  C   UNL     1       1.466   4.058  18.886  0.00  0.00    +0.000 A 
ENDBRANCH  15  16
ENDBRANCH  14  15
ENDBRANCH  13  14
ENDBRANCH  12  13
ENDBRANCH  11  12
TORSDOF 5
ENDMDL
MODEL 6
REMARK VINA RESULT:      -7.0      5.232      6.881
REMARK  Name = 
REMARK  5 active torsions:
REMARK  status: ('A' for Active; 'I' for Inactive)
REMARK    1  A    between atoms: N_11  and  C_12
REMARK    2  A    between atoms: C_12  and  C_13
REMARK    3  A    between atoms: C_13  and  C_14
REMARK    4  A    between atoms: C_14  and  O_15
REMARK    5  A    between atoms: O_15  and  C_16
REMARK                            x       y       z     vdW  Elec       q    Type
REMARK                         _______ _______ _______ _____ _____    ______ ____
ROOT
ATOM      1  O   UNL     1       5.175   6.708  15.938  0.00  0.00    +0.000 OA
ATOM      2  C   UNL     1       5.339   6.212  17.037  0.00  0.00    +0.000 C 
ATOM      3  C   UNL     1       4.319   5.443  17.753  0.00  0.00    +0.000 A 
ATOM      4  C   UNL     1       3.026   5.113  17.398  0.00  0.00    +0.000 A 
ATOM      5  C   UNL     1       2.284   4.357  18.311  0.00  0.00    +0.000 A 
ATOM      6  C   UNL     1       2.843   3.958  19.543  0.00  0.00    +0.000 A 
ATOM      7  C   UNL     1       4.155   4.305  19.881  0.00  0.00    +0.000 A 
ATOM      8  C   UNL     1       4.869   5.048  18.960  0.00  0.00    +0.000 A 
ATOM      9  C   UNL     1       6.238   5.556  19.012  0.00  0.00    +0.000 C 
ATOM     10  O   UNL     1       7.004   5.376  19.937  0.00  0.00    +0.000 OA
ATOM     11  N   UNL     1       6.443   6.243  17.846  0.00  0.00    +0.000 N 
ENDROOT
BRANCH  11  12
ATOM     12  C   UNL     1       7.693   6.893  17.493  0.00  0.00    +0.000 C 
BRANCH  12  13
ATOM     13  C   UNL     1       7.570   8.414  17.523  0.00  0.00    +0.000 C 
BRANCH  13  14
ATOM     14  C   UNL     1       8.584   9.041  18.478  0.00  0.00    +0.000 C 
BRANCH  14  15
ATOM     15  O   UNL     1       8.644  10.440  18.194  0.00  0.00    +0.000 OA
BRANCH  15  16
ATOM     16  C   UNL     1       9.770  11.095  18.613  0.00  0.00    +0.000 A 
ATOM     17  C   UNL     1       9.887  11.253  19.997  0.00  0.00    +0.000 A 
ATOM     18  C   UNL     1      10.999  11.892  20.549  0.00  0.00    +0.000 A 
ATOM     19  C   UNL     1      12.012  12.362  19.716  0.00  0.00    +0.000 A 
ATOM     20  C   UNL     1      11.913  12.188  18.336  0.00  0.00    +0.000 A 
ATOM     21  C   UNL     1      10.793  11.555  17.784  0.00  0.00    +0.000 A 
ENDBRANCH  15  16
ENDBRANCH  14  15
ENDBRANCH  13  14
ENDBRANCH  12  13
ENDBRANCH  11  12
TORSDOF 5
ENDMDL
MODEL 7
REMARK VINA RESULT:      -7.0      2.452      4.197
REMARK  Name = 
REMARK  5 active torsions:
REMARK  status: ('A' for Active; 'I' for Inactive)
REMARK    1  A    between atoms: N_11  and  C_12
REMARK    2  A    between atoms: C_12  and  C_13
REMARK    3  A    between atoms: C_13  and  C_14
REMARK    4  A    between atoms: C_14  and  O_15
REMARK    5  A    between atoms: O_15  and  C_16
REMARK                            x       y       z     vdW  Elec       q    Type
REMARK                         _______ _______ _______ _____ _____    ______ ____
ROOT
ATOM      1  O   UNL     1       4.060   3.687  15.996  0.00  0.00    +0.000 OA
ATOM      2  C   UNL     1       5.064   4.320  15.724  0.00  0.00    +0.000 C 
ATOM      3  C   UNL     1       5.780   4.221  14.451  0.00  0.00    +0.000 A 
ATOM      4  C   UNL     1       5.523   3.453  13.332  0.00  0.00    +0.000 A 
ATOM      5  C   UNL     1       6.406   3.577  12.253  0.00  0.00    +0.000 A 
ATOM      6  C   UNL     1       7.510   4.451  12.320  0.00  0.00    +0.000 A 
ATOM      7  C   UNL     1       7.750   5.219  13.464  0.00  0.00    +0.000 A 
ATOM      8  C   UNL     1       6.861   5.081  14.514  0.00  0.00    +0.000 A 
ATOM      9  C   UNL     1       6.833   5.734  15.821  0.00  0.00    +0.000 C 
ATOM     10  O   UNL     1       7.642   6.559  16.195  0.00  0.00    +0.000 OA
ATOM     11  N   UNL     1       5.749   5.228  16.486  0.00  0.00    +0.000 N 
ENDROOT
BRANCH  11  12
ATOM     12  C   UNL     1       5.353   5.633  17.823  0.00  0.00    +0.000 C 
BRANCH  12  13
ATOM     13  C   UNL     1       4.571   6.943  17.812  0.00  0.00    +0.000 C 
BRANCH  13  14
ATOM     14  C   UNL     1       3.231   6.804  18.532  0.00  0.00    +0.000 C 
BRANCH  14  15
ATOM     15  O   UNL     1       2.591   5.626  18.036  0.00  0.00    +0.000 OA
BRANCH  15  16
ATOM     16  C   UNL     1       2.132   4.745  18.978  0.00  0.00    +0.000 A 
ATOM     17  C   UNL     1       1.416   3.655  18.476  0.00  0.00    +0.000 A 
ATOM     18  C   UNL     1       0.910   2.679  19.336  0.00  0.00    +0.000 A 
ATOM     19  C   UNL     1       1.133   2.781  20.708  0.00  0.00    +0.000 A 
ATOM     20  C   UNL     1       1.865   3.854  21.214  0.00  0.00    +0.000 A 
ATOM     21  C   UNL     1       2.365   4.836  20.351  0.00  0.00    +0.000 A 
ENDBRANCH  15  16
ENDBRANCH  14  15
ENDBRANCH  13  14
ENDBRANCH  12  13
ENDBRANCH  11  12
TORSDOF 5
ENDMDL
MODEL 8
REMARK VINA RESULT:      -7.0      5.221      7.086
REMARK  Name = 
REMARK  5 active torsions:
REMARK  status: ('A' for Active; 'I' for Inactive)
REMARK    1  A    between atoms: N_11  and  C_12
REMARK    2  A    between atoms: C_12  and  C_13
REMARK    3  A    between atoms: C_13  and  C_14
REMARK    4  A    between atoms: C_14  and  O_15
REMARK    5  A    between atoms: O_15  and  C_16
REMARK                            x       y       z     vdW  Elec       q    Type
REMARK                         _______ _______ _______ _____ _____    ______ ____
ROOT
ATOM      1  O   UNL     1       7.167   5.323  19.875  0.00  0.00    +0.000 OA
ATOM      2  C   UNL     1       6.471   5.389  18.879  0.00  0.00    +0.000 C 
ATOM      3  C   UNL     1       5.200   4.681  18.715  0.00  0.00    +0.000 A 
ATOM      4  C   UNL     1       4.526   3.832  19.571  0.00  0.00    +0.000 A 
ATOM      5  C   UNL     1       3.313   3.299  19.121  0.00  0.00    +0.000 A 
ATOM      6  C   UNL     1       2.812   3.621  17.843  0.00  0.00    +0.000 A 
ATOM      7  C   UNL     1       3.513   4.483  16.993  0.00  0.00    +0.000 A 
ATOM      8  C   UNL     1       4.706   4.999  17.463  0.00  0.00    +0.000 A 
ATOM      9  C   UNL     1       5.655   5.913  16.831  0.00  0.00    +0.000 C 
ATOM     10  O   UNL     1       5.514   6.393  15.724  0.00  0.00    +0.000 OA
ATOM     11  N   UNL     1       6.677   6.091  17.722  0.00  0.00    +0.000 N 
ENDROOT
BRANCH  11  12
ATOM     12  C   UNL     1       7.824   6.949  17.485  0.00  0.00    +0.000 C 
BRANCH  12  13
ATOM     13  C   UNL     1       7.482   8.424  17.683  0.00  0.00    +0.000 C 
BRANCH  13  14
ATOM     14  C   UNL     1       8.524   9.131  18.548  0.00  0.00    +0.000 C 
BRANCH  14  15
ATOM     15  O   UNL     1       8.905  10.332  17.875  0.00  0.00    +0.000 OA
BRANCH  15  16
ATOM     16  C   UNL     1       9.893  11.071  18.468  0.00  0.00    +0.000 A 
ATOM     17  C   UNL     1       9.821  11.152  19.861  0.00  0.00    +0.000 A 
ATOM     18  C   UNL     1      10.781  11.864  20.583  0.00  0.00    +0.000 A 
ATOM     19  C   UNL     1      11.832  12.486  19.913  0.00  0.00    +0.000 A 
ATOM     20  C   UNL     1      11.922  12.390  18.525  0.00  0.00    +0.000 A 
ATOM     21  C   UNL     1      10.955  11.684  17.802  0.00  0.00    +0.000 A 
ENDBRANCH  15  16
ENDBRANCH  14  15
ENDBRANCH  13  14
ENDBRANCH  12  13
ENDBRANCH  11  12
TORSDOF 5
ENDMDL
MODEL 9
REMARK VINA RESULT:      -6.9      2.510      6.215
REMARK  Name = 
REMARK  5 active torsions:
REMARK  status: ('A' for Active; 'I' for Inactive)
REMARK    1  A    between atoms: N_11  and  C_12
REMARK    2  A    between atoms: C_12  and  C_13
REMARK    3  A    between atoms: C_13  and  C_14
REMARK    4  A    between atoms: C_14  and  O_15
REMARK    5  A    between atoms: O_15  and  C_16
REMARK                            x       y       z     vdW  Elec       q    Type
REMARK                         _______ _______ _______ _____ _____    ______ ____
ROOT
ATOM      1  O   UNL     1       5.590   3.058  19.784  0.00  0.00    +0.000 OA
ATOM      2  C   UNL     1       4.854   3.841  19.211  0.00  0.00    +0.000 C 
ATOM      3  C   UNL     1       3.460   3.558  18.867  0.00  0.00    +0.000 A 
ATOM      4  C   UNL     1       2.690   2.431  19.083  0.00  0.00    +0.000 A 
ATOM      5  C   UNL     1       1.367   2.462  18.628  0.00  0.00    +0.000 A 
ATOM      6  C   UNL     1       0.854   3.601  17.973  0.00  0.00    +0.000 A 
ATOM      7  C   UNL     1       1.653   4.729  17.765  0.00  0.00    +0.000 A 
ATOM      8  C   UNL     1       2.955   4.676  18.228  0.00  0.00    +0.000 A 
ATOM      9  C   UNL     1       4.021   5.674  18.170  0.00  0.00    +0.000 C 
ATOM     10  O   UNL     1       3.903   6.778  17.679  0.00  0.00    +0.000 OA
ATOM     11  N   UNL     1       5.117   5.107  18.762  0.00  0.00    +0.000 N 
ENDROOT
BRANCH  11  12
ATOM     12  C   UNL     1       6.392   5.781  18.926  0.00  0.00    +0.000 C 
BRANCH  12  13
ATOM     13  C   UNL     1       6.970   6.238  17.589  0.00  0.00    +0.000 C 
BRANCH  13  14
ATOM     14  C   UNL     1       7.191   5.061  16.641  0.00  0.00    +0.000 C 
BRANCH  14  15
ATOM     15  O   UNL     1       7.548   5.592  15.363  0.00  0.00    +0.000 OA
BRANCH  15  16
ATOM     16  C   UNL     1       7.077   4.912  14.272  0.00  0.00    +0.000 A 
ATOM     17  C   UNL     1       5.870   4.235  14.467  0.00  0.00    +0.000 A 
ATOM     18  C   UNL     1       5.280   3.518  13.425  0.00  0.00    +0.000 A 
ATOM     19  C   UNL     1       5.889   3.488  12.172  0.00  0.00    +0.000 A 
ATOM     20  C   UNL     1       7.081   4.180  11.964  0.00  0.00    +0.000 A 
ATOM     21  C   UNL     1       7.676   4.891  13.012  0.00  0.00    +0.000 A 
ENDBRANCH  15  16
ENDBRANCH  14  15
ENDBRANCH  13  14
ENDBRANCH  12  13
ENDBRANCH  11  12
TORSDOF 5
ENDMDL
