MODEL 1
REMARK VINA RESULT:      -8.3      0.000      0.000
REMARK  Name = 
REMARK  5 active torsions:
REMARK  status: ('A' for Active; 'I' for Inactive)
REMARK    1  A    between atoms: C_1  and  C_2
REMARK    2  A    between atoms: C_7  and  N_8
REMARK    3  A    between atoms: N_11  and  C_12
REMARK    4  A    between atoms: C_16  and  C_17
REMARK    5  A    between atoms: C_19  and  C_20
REMARK                            x       y       z     vdW  Elec       q    Type
REMARK                         _______ _______ _______ _____ _____    ______ ____
ROOT
ATOM      1  N   UNL     1       2.542   7.317  19.746  0.00  0.00    +0.000 NA
ATOM      2  C   UNL     1       2.320   6.054  19.644  0.00  0.00    +0.000 C 
ATOM      3  N   UNL     1       1.177   5.385  19.965  0.00  0.00    +0.000 N 
ATOM      4  N   UNL     1       3.199   5.110  19.195  0.00  0.00    +0.000 N 
ATOM      5  H   UNL     1       0.425   6.028  20.185  0.00  0.00    +0.000 HD
ATOM      6  H   UNL     1       1.355   4.805  20.780  0.00  0.00    +0.000 HD
ATOM      7  H   UNL     1       2.704   4.256  18.971  0.00  0.00    +0.000 HD
ENDROOT
BRANCH   4   8
ATOM      8  C   UNL     1       4.370   5.317  18.342  0.00  0.00    +0.000 C 
ATOM      9  C   UNL     1       4.166   6.665  17.590  0.00  0.00    +0.000 C 
ATOM     10  C   UNL     1       5.344   6.961  16.650  0.00  0.00    +0.000 C 
ATOM     11  C   UNL     1       6.639   7.049  17.471  0.00  0.00    +0.000 C 
ATOM     12  C   UNL     1       6.884   5.722  18.224  0.00  0.00    +0.000 C 
ATOM     13  C   UNL     1       8.175   5.813  19.035  0.00  0.00    +0.000 C 
ATOM     14  C   UNL     1       6.990   4.581  17.184  0.00  0.00    +0.000 C 
ATOM     15  C   UNL     1       5.696   4.479  16.341  0.00  0.00    +0.000 C 
ATOM     16  C   UNL     1       5.816   3.349  15.316  0.00  0.00    +0.000 C 
ATOM     17  C   UNL     1       5.468   5.827  15.623  0.00  0.00    +0.000 C 
ATOM     18  C   UNL     1       4.504   4.203  17.289  0.00  0.00    +0.000 C 
ATOM     19  C   UNL     1       5.678   5.437  19.157  0.00  0.00    +0.000 C 
ENDBRANCH   4   8
BRANCH   1  26
ATOM     20  C   UNL     1       1.190   9.469  17.964  0.00  0.00    +0.000 C 
ATOM     21  C   UNL     1       0.926   9.233  19.426  0.00  0.00    +0.000 A 
ATOM     22  C   UNL     1      -0.076  10.036  20.018  0.00  0.00    +0.000 A 
ATOM     23  C   UNL     1      -0.430   9.887  21.356  0.00  0.00    +0.000 A 
ATOM     24  C   UNL     1       0.241   8.958  22.136  0.00  0.00    +0.000 A 
ATOM     25  C   UNL     1       1.256   8.178  21.570  0.00  0.00    +0.000 A 
ATOM     26  C   UNL     1       1.621   8.288  20.215  0.00  0.00    +0.000 A 
ENDBRANCH   1  26
TORSDOF 2
ENDMDL
MODEL 2
REMARK VINA RESULT:      -8.1      2.890      7.271
REMARK  Name = 
REMARK  5 active torsions:
REMARK  status: ('A' for Active; 'I' for Inactive)
REMARK    1  A    between atoms: C_1  and  C_2
REMARK    2  A    between atoms: C_7  and  N_8
REMARK    3  A    between atoms: N_11  and  C_12
REMARK    4  A    between atoms: C_16  and  C_17
REMARK    5  A    between atoms: C_19  and  C_20
REMARK                            x       y       z     vdW  Elec       q    Type
REMARK                         _______ _______ _______ _____ _____    ______ ____
ROOT
ATOM      1  N   UNL     1       5.956   4.164  15.692  0.00  0.00    +0.000 NA
ATOM      2  C   UNL     1       6.558   4.125  16.829  0.00  0.00    +0.000 C 
ATOM      3  N   UNL     1       7.891   4.277  17.068  0.00  0.00    +0.000 N 
ATOM      4  N   UNL     1       5.976   3.911  18.047  0.00  0.00    +0.000 N 
ATOM      5  H   UNL     1       8.382   4.569  16.231  0.00  0.00    +0.000 HD
ATOM      6  H   UNL     1       8.273   3.386  17.372  0.00  0.00    +0.000 HD
ATOM      7  H   UNL     1       6.612   4.183  18.786  0.00  0.00    +0.000 HD
ENDROOT
BRANCH   4   8
ATOM      8  C   UNL     1       4.574   4.116  18.412  0.00  0.00    +0.000 C 
ATOM      9  C   UNL     1       3.703   3.446  17.309  0.00  0.00    +0.000 C 
ATOM     10  C   UNL     1       2.205   3.626  17.598  0.00  0.00    +0.000 C 
ATOM     11  C   UNL     1       1.868   2.979  18.949  0.00  0.00    +0.000 C 
ATOM     12  C   UNL     1       2.705   3.626  20.075  0.00  0.00    +0.000 C 
ATOM     13  C   UNL     1       2.362   2.983  21.417  0.00  0.00    +0.000 C 
ATOM     14  C   UNL     1       2.384   5.140  20.116  0.00  0.00    +0.000 C 
ATOM     15  C   UNL     1       2.712   5.811  18.760  0.00  0.00    +0.000 C 
ATOM     16  C   UNL     1       2.388   7.306  18.813  0.00  0.00    +0.000 C 
ATOM     17  C   UNL     1       1.878   5.124  17.656  0.00  0.00    +0.000 C 
ATOM     18  C   UNL     1       4.216   5.612  18.456  0.00  0.00    +0.000 C 
ATOM     19  C   UNL     1       4.213   3.444  19.757  0.00  0.00    +0.000 C 
ENDBRANCH   4   8
BRANCH   1  26
ATOM     20  C   UNL     1       4.954   2.974  13.007  0.00  0.00    +0.000 C 
ATOM     21  C   UNL     1       6.105   3.927  13.181  0.00  0.00    +0.000 A 
ATOM     22  C   UNL     1       6.745   4.358  11.996  0.00  0.00    +0.000 A 
ATOM     23  C   UNL     1       7.801   5.264  12.029  0.00  0.00    +0.000 A 
ATOM     24  C   UNL     1       8.262   5.724  13.253  0.00  0.00    +0.000 A 
ATOM     25  C   UNL     1       7.657   5.282  14.435  0.00  0.00    +0.000 A 
ATOM     26  C   UNL     1       6.572   4.385  14.434  0.00  0.00    +0.000 A 
ENDBRANCH   1  26
TORSDOF 2
ENDMDL
MODEL 3
REMARK VINA RESULT:      -8.1      3.316      7.330
REMARK  Name = 
REMARK  5 active torsions:
REMARK  status: ('A' for Active; 'I' for Inactive)
REMARK    1  A    between atoms: C_1  and  C_2
REMARK    2  A    between atoms: C_7  and  N_8
REMARK    3  A    between atoms: N_11  and  C_12
REMARK    4  A    between atoms: C_16  and  C_17
REMARK    5  A    between atoms: C_19  and  C_20
REMARK                            x       y       z     vdW  Elec       q    Type
REMARK                         _______ _______ _______ _____ _____    ______ ____
ROOT
ATOM      1  N   UNL     1       5.305   4.319  15.437  0.00  0.00    +0.000 NA
ATOM      2  C   UNL     1       4.974   5.397  16.058  0.00  0.00    +0.000 C 
ATOM      3  N   UNL     1       5.064   6.677  15.601  0.00  0.00    +0.000 N 
ATOM      4  N   UNL     1       4.466   5.480  17.323  0.00  0.00    +0.000 N 
ATOM      5  H   UNL     1       5.311   6.699  14.618  0.00  0.00    +0.000 HD
ATOM      6  H   UNL     1       5.786   7.162  16.126  0.00  0.00    +0.000 HD
ATOM      7  H   UNL     1       4.057   6.393  17.472  0.00  0.00    +0.000 HD
ENDROOT
BRANCH   4   8
ATOM      8  C   UNL     1       3.781   4.430  18.079  0.00  0.00    +0.000 C 
ATOM      9  C   UNL     1       3.139   3.457  17.047  0.00  0.00    +0.000 C 
ATOM     10  C   UNL     1       2.378   2.325  17.752  0.00  0.00    +0.000 C 
ATOM     11  C   UNL     1       3.350   1.530  18.636  0.00  0.00    +0.000 C 
ATOM     12  C   UNL     1       4.001   2.462  19.684  0.00  0.00    +0.000 C 
ATOM     13  C   UNL     1       4.963   1.667  20.563  0.00  0.00    +0.000 C 
ATOM     14  C   UNL     1       2.878   3.081  20.552  0.00  0.00    +0.000 C 
ATOM     15  C   UNL     1       1.882   3.882  19.678  0.00  0.00    +0.000 C 
ATOM     16  C   UNL     1       0.778   4.486  20.548  0.00  0.00    +0.000 C 
ATOM     17  C   UNL     1       1.271   2.928  18.627  0.00  0.00    +0.000 C 
ATOM     18  C   UNL     1       2.652   5.010  18.950  0.00  0.00    +0.000 C 
ATOM     19  C   UNL     1       4.753   3.604  18.951  0.00  0.00    +0.000 C 
ENDBRANCH   4   8
BRANCH   1  26
ATOM     20  C   UNL     1       8.046   5.487  14.572  0.00  0.00    +0.000 C 
ATOM     21  C   UNL     1       7.106   4.695  13.706  0.00  0.00    +0.000 A 
ATOM     22  C   UNL     1       7.551   4.414  12.394  0.00  0.00    +0.000 A 
ATOM     23  C   UNL     1       6.782   3.662  11.510  0.00  0.00    +0.000 A 
ATOM     24  C   UNL     1       5.533   3.211  11.913  0.00  0.00    +0.000 A 
ATOM     25  C   UNL     1       5.068   3.508  13.199  0.00  0.00    +0.000 A 
ATOM     26  C   UNL     1       5.832   4.245  14.123  0.00  0.00    +0.000 A 
ENDBRANCH   1  26
TORSDOF 2
ENDMDL
MODEL 4
REMARK VINA RESULT:      -7.9      1.693      3.130
REMARK  Name = 
REMARK  5 active torsions:
REMARK  status: ('A' for Active; 'I' for Inactive)
REMARK    1  A    between atoms: C_1  and  C_2
REMARK    2  A    between atoms: C_7  and  N_8
REMARK    3  A    between atoms: N_11  and  C_12
REMARK    4  A    between atoms: C_16  and  C_17
REMARK    5  A    between atoms: C_19  and  C_20
REMARK                            x       y       z     vdW  Elec       q    Type
REMARK                         _______ _______ _______ _____ _____    ______ ____
ROOT
ATOM      1  N   UNL     1       1.528   8.118  19.618  0.00  0.00    +0.000 NA
ATOM      2  C   UNL     1       2.214   8.470  18.588  0.00  0.00    +0.000 C 
ATOM      3  N   UNL     1       2.468   9.737  18.154  0.00  0.00    +0.000 N 
ATOM      4  N   UNL     1       2.831   7.634  17.700  0.00  0.00    +0.000 N 
ATOM      5  H   UNL     1       2.156  10.425  18.829  0.00  0.00    +0.000 HD
ATOM      6  H   UNL     1       1.970   9.890  17.282  0.00  0.00    +0.000 HD
ATOM      7  H   UNL     1       3.503   8.151  17.149  0.00  0.00    +0.000 HD
ENDROOT
BRANCH   4   8
ATOM      8  C   UNL     1       3.237   6.245  17.920  0.00  0.00    +0.000 C 
ATOM      9  C   UNL     1       3.970   6.185  19.292  0.00  0.00    +0.000 C 
ATOM     10  C   UNL     1       4.453   4.761  19.602  0.00  0.00    +0.000 C 
ATOM     11  C   UNL     1       3.245   3.814  19.650  0.00  0.00    +0.000 C 
ATOM     12  C   UNL     1       2.496   3.836  18.298  0.00  0.00    +0.000 C 
ATOM     13  C   UNL     1       1.299   2.889  18.349  0.00  0.00    +0.000 C 
ATOM     14  C   UNL     1       3.478   3.390  17.187  0.00  0.00    +0.000 C 
ATOM     15  C   UNL     1       4.707   4.329  17.126  0.00  0.00    +0.000 C 
ATOM     16  C   UNL     1       5.669   3.875  16.027  0.00  0.00    +0.000 C 
ATOM     17  C   UNL     1       5.416   4.302  18.498  0.00  0.00    +0.000 C 
ATOM     18  C   UNL     1       4.220   5.768  16.836  0.00  0.00    +0.000 C 
ATOM     19  C   UNL     1       2.029   5.285  17.999  0.00  0.00    +0.000 C 
ENDBRANCH   4   8
BRANCH   1  26
ATOM     20  C   UNL     1      -0.695  10.145  18.856  0.00  0.00    +0.000 C 
ATOM     21  C   UNL     1      -0.176   9.877  20.241  0.00  0.00    +0.000 A 
ATOM     22  C   UNL     1      -0.808  10.580  21.293  0.00  0.00    +0.000 A 
ATOM     23  C   UNL     1      -0.434  10.391  22.621  0.00  0.00    +0.000 A 
ATOM     24  C   UNL     1       0.607   9.523  22.916  0.00  0.00    +0.000 A 
ATOM     25  C   UNL     1       1.261   8.844  21.881  0.00  0.00    +0.000 A 
ATOM     26  C   UNL     1       0.892   8.996  20.532  0.00  0.00    +0.000 A 
ENDBRANCH   1  26
TORSDOF 2
ENDMDL
MODEL 5
REMARK VINA RESULT:      -7.9      3.353      7.252
REMARK  Name = 
REMARK  5 active torsions:
REMARK  status: ('A' for Active; 'I' for Inactive)
REMARK    1  A    between atoms: C_1  and  C_2
REMARK    2  A    between atoms: C_7  and  N_8
REMARK    3  A    between atoms: N_11  and  C_12
REMARK    4  A    between atoms: C_16  and  C_17
REMARK    5  A    between atoms: C_19  and  C_20
REMARK                            x       y       z     vdW  Elec       q    Type
REMARK                         _______ _______ _______ _____ _____    ______ ____
ROOT
ATOM      1  N   UNL     1       5.638   4.506  15.552  0.00  0.00    +0.000 NA
ATOM      2  C   UNL     1       5.125   5.548  16.106  0.00  0.00    +0.000 C 
ATOM      3  N   UNL     1       5.137   6.828  15.637  0.00  0.00    +0.000 N 
ATOM      4  N   UNL     1       4.461   5.587  17.300  0.00  0.00    +0.000 N 
ATOM      5  H   UNL     1       5.498   6.867  14.691  0.00  0.00    +0.000 HD
ATOM      6  H   UNL     1       5.736   7.389  16.235  0.00  0.00    +0.000 HD
ATOM      7  H   UNL     1       3.945   6.454  17.379  0.00  0.00    +0.000 HD
ENDROOT
BRANCH   4   8
ATOM      8  C   UNL     1       3.802   4.478  17.990  0.00  0.00    +0.000 C 
ATOM      9  C   UNL     1       3.229   3.526  16.898  0.00  0.00    +0.000 C 
ATOM     10  C   UNL     1       2.497   2.333  17.531  0.00  0.00    +0.000 C 
ATOM     11  C   UNL     1       3.480   1.540  18.406  0.00  0.00    +0.000 C 
ATOM     12  C   UNL     1       4.062   2.450  19.511  0.00  0.00    +0.000 C 
ATOM     13  C   UNL     1       5.034   1.656  20.382  0.00  0.00    +0.000 C 
ATOM     14  C   UNL     1       2.893   2.983  20.374  0.00  0.00    +0.000 C 
ATOM     15  C   UNL     1       1.887   3.780  19.509  0.00  0.00    +0.000 C 
ATOM     16  C   UNL     1       0.735   4.299  20.373  0.00  0.00    +0.000 C 
ATOM     17  C   UNL     1       1.344   2.851  18.401  0.00  0.00    +0.000 C 
ATOM     18  C   UNL     1       2.627   4.970  18.853  0.00  0.00    +0.000 C 
ATOM     19  C   UNL     1       4.785   3.653  18.851  0.00  0.00    +0.000 C 
ENDBRANCH   4   8
BRANCH   1  26
ATOM     20  C   UNL     1       4.588   3.112  12.986  0.00  0.00    +0.000 C 
ATOM     21  C   UNL     1       5.849   3.922  13.103  0.00  0.00    +0.000 A 
ATOM     22  C   UNL     1       6.587   4.107  11.911  0.00  0.00    +0.000 A 
ATOM     23  C   UNL     1       7.755   4.865  11.888  0.00  0.00    +0.000 A 
ATOM     24  C   UNL     1       8.226   5.419  13.069  0.00  0.00    +0.000 A 
ATOM     25  C   UNL     1       7.521   5.219  14.261  0.00  0.00    +0.000 A 
ATOM     26  C   UNL     1       6.326   4.478  14.313  0.00  0.00    +0.000 A 
ENDBRANCH   1  26
TORSDOF 2
ENDMDL
MODEL 6
REMARK VINA RESULT:      -7.8      0.548      2.316
REMARK  Name = 
REMARK  5 active torsions:
REMARK  status: ('A' for Active; 'I' for Inactive)
REMARK    1  A    between atoms: C_1  and  C_2
REMARK    2  A    between atoms: C_7  and  N_8
REMARK    3  A    between atoms: N_11  and  C_12
REMARK    4  A    between atoms: C_16  and  C_17
REMARK    5  A    between atoms: C_19  and  C_20
REMARK                            x       y       z     vdW  Elec       q    Type
REMARK                         _______ _______ _______ _____ _____    ______ ____
ROOT
ATOM      1  N   UNL     1       2.508   7.305  19.838  0.00  0.00    +0.000 NA
ATOM      2  C   UNL     1       2.323   6.034  19.915  0.00  0.00    +0.000 C 
ATOM      3  N   UNL     1       1.231   5.383  20.405  0.00  0.00    +0.000 N 
ATOM      4  N   UNL     1       3.199   5.063  19.522  0.00  0.00    +0.000 N 
ATOM      5  H   UNL     1       0.476   6.030  20.600  0.00  0.00    +0.000 HD
ATOM      6  H   UNL     1       1.489   4.918  21.271  0.00  0.00    +0.000 HD
ATOM      7  H   UNL     1       2.720   4.174  19.448  0.00  0.00    +0.000 HD
ENDROOT
BRANCH   4   8
ATOM      8  C   UNL     1       4.297   5.188  18.561  0.00  0.00    +0.000 C 
ATOM      9  C   UNL     1       4.553   3.775  17.961  0.00  0.00    +0.000 C 
ATOM     10  C   UNL     1       5.708   3.803  16.949  0.00  0.00    +0.000 C 
ATOM     11  C   UNL     1       5.358   4.766  15.805  0.00  0.00    +0.000 C 
ATOM     12  C   UNL     1       5.107   6.186  16.360  0.00  0.00    +0.000 C 
ATOM     13  C   UNL     1       4.763   7.140  15.219  0.00  0.00    +0.000 C 
ATOM     14  C   UNL     1       6.390   6.663  17.082  0.00  0.00    +0.000 C 
ATOM     15  C   UNL     1       6.765   5.702  18.236  0.00  0.00    +0.000 C 
ATOM     16  C   UNL     1       8.036   6.184  18.939  0.00  0.00    +0.000 C 
ATOM     17  C   UNL     1       6.983   4.290  17.651  0.00  0.00    +0.000 C 
ATOM     18  C   UNL     1       5.593   5.655  19.246  0.00  0.00    +0.000 C 
ATOM     19  C   UNL     1       3.946   6.132  17.389  0.00  0.00    +0.000 C 
ENDBRANCH   4   8
BRANCH   1  26
ATOM     20  C   UNL     1       1.197   9.383  17.942  0.00  0.00    +0.000 C 
ATOM     21  C   UNL     1       0.913   9.218  19.410  0.00  0.00    +0.000 A 
ATOM     22  C   UNL     1      -0.089  10.056  19.952  0.00  0.00    +0.000 A 
ATOM     23  C   UNL     1      -0.461   9.972  21.291  0.00  0.00    +0.000 A 
ATOM     24  C   UNL     1       0.193   9.075  22.121  0.00  0.00    +0.000 A 
ATOM     25  C   UNL     1       1.208   8.260  21.604  0.00  0.00    +0.000 A 
ATOM     26  C   UNL     1       1.590   8.304  20.250  0.00  0.00    +0.000 A 
ENDBRANCH   1  26
TORSDOF 2
ENDMDL
MODEL 7
REMARK VINA RESULT:      -7.7      2.591      7.130
REMARK  Name = 
REMARK  5 active torsions:
REMARK  status: ('A' for Active; 'I' for Inactive)
REMARK    1  A    between atoms: C_1  and  C_2
REMARK    2  A    between atoms: C_7  and  N_8
REMARK    3  A    between atoms: N_11  and  C_12
REMARK    4  A    between atoms: C_16  and  C_17
REMARK    5  A    between atoms: C_19  and  C_20
REMARK                            x       y       z     vdW  Elec       q    Type
REMARK                         _______ _______ _______ _____ _____    ______ ____
ROOT
ATOM      1  N   UNL     1       5.365   4.168  16.295  0.00  0.00    +0.000 NA
ATOM      2  C   UNL     1       5.946   3.952  17.423  0.00  0.00    +0.000 C 
ATOM      3  N   UNL     1       7.284   3.955  17.681  0.00  0.00    +0.000 N 
ATOM      4  N   UNL     1       5.331   3.663  18.608  0.00  0.00    +0.000 N 
ATOM      5  H   UNL     1       7.810   4.289  16.882  0.00  0.00    +0.000 HD
ATOM      6  H   UNL     1       7.579   3.005  17.888  0.00  0.00    +0.000 HD
ATOM      7  H   UNL     1       5.980   3.794  19.374  0.00  0.00    +0.000 HD
ENDROOT
BRANCH   4   8
ATOM      8  C   UNL     1       3.948   3.955  18.989  0.00  0.00    +0.000 C 
ATOM      9  C   UNL     1       3.045   3.594  17.774  0.00  0.00    +0.000 C 
ATOM     10  C   UNL     1       1.567   3.886  18.075  0.00  0.00    +0.000 C 
ATOM     11  C   UNL     1       1.120   3.051  19.283  0.00  0.00    +0.000 C 
ATOM     12  C   UNL     1       1.988   3.390  20.517  0.00  0.00    +0.000 C 
ATOM     13  C   UNL     1       1.536   2.561  21.717  0.00  0.00    +0.000 C 
ATOM     14  C   UNL     1       1.831   4.898  20.826  0.00  0.00    +0.000 C 
ATOM     15  C   UNL     1       2.271   5.759  19.617  0.00  0.00    +0.000 C 
ATOM     16  C   UNL     1       2.109   7.247  19.935  0.00  0.00    +0.000 C 
ATOM     17  C   UNL     1       1.402   5.377  18.398  0.00  0.00    +0.000 C 
ATOM     18  C   UNL     1       3.753   5.450  19.298  0.00  0.00    +0.000 C 
ATOM     19  C   UNL     1       3.476   3.099  20.187  0.00  0.00    +0.000 C 
ENDBRANCH   4   8
BRANCH   1  26
ATOM     20  C   UNL     1       7.417   6.464  15.902  0.00  0.00    +0.000 C 
ATOM     21  C   UNL     1       7.010   5.451  14.868  0.00  0.00    +0.000 A 
ATOM     22  C   UNL     1       7.674   5.527  13.622  0.00  0.00    +0.000 A 
ATOM     23  C   UNL     1       7.404   4.624  12.598  0.00  0.00    +0.000 A 
ATOM     24  C   UNL     1       6.435   3.651  12.789  0.00  0.00    +0.000 A 
ATOM     25  C   UNL     1       5.749   3.583  14.007  0.00  0.00    +0.000 A 
ATOM     26  C   UNL     1       6.015   4.467  15.070  0.00  0.00    +0.000 A 
ENDBRANCH   1  26
TORSDOF 2
ENDMDL
MODEL 8
REMARK VINA RESULT:      -7.5      1.754      3.563
REMARK  Name = 
REMARK  5 active torsions:
REMARK  status: ('A' for Active; 'I' for Inactive)
REMARK    1  A    between atoms: C_1  and  C_2
REMARK    2  A    between atoms: C_7  and  N_8
REMARK    3  A    between atoms: N_11  and  C_12
REMARK    4  A    between atoms: C_16  and  C_17
REMARK    5  A    between atoms: C_19  and  C_20
REMARK                            x       y       z     vdW  Elec       q    Type
REMARK                         _______ _______ _______ _____ _____    ______ ____
ROOT
ATOM      1  N   UNL     1       1.118   8.634  19.203  0.00  0.00    +0.000 NA
ATOM      2  C   UNL     1       1.930   8.945  18.254  0.00  0.00    +0.000 C 
ATOM      3  N   UNL     1       2.212  10.190  17.778  0.00  0.00    +0.000 N 
ATOM      4  N   UNL     1       2.680   8.076  17.514  0.00  0.00    +0.000 N 
ATOM      5  H   UNL     1       1.794  10.907  18.359  0.00  0.00    +0.000 HD
ATOM      6  H   UNL     1       1.833  10.274  16.839  0.00  0.00    +0.000 HD
ATOM      7  H   UNL     1       3.410   8.579  17.025  0.00  0.00    +0.000 HD
ENDROOT
BRANCH   4   8
ATOM      8  C   UNL     1       3.085   6.716  17.875  0.00  0.00    +0.000 C 
ATOM      9  C   UNL     1       3.578   6.754  19.351  0.00  0.00    +0.000 C 
ATOM     10  C   UNL     1       4.044   5.366  19.816  0.00  0.00    +0.000 C 
ATOM     11  C   UNL     1       2.873   4.377  19.715  0.00  0.00    +0.000 C 
ATOM     12  C   UNL     1       2.362   4.302  18.259  0.00  0.00    +0.000 C 
ATOM     13  C   UNL     1       1.202   3.314  18.163  0.00  0.00    +0.000 C 
ATOM     14  C   UNL     1       3.529   3.839  17.353  0.00  0.00    +0.000 C 
ATOM     15  C   UNL     1       4.723   4.820  17.445  0.00  0.00    +0.000 C 
ATOM     16  C   UNL     1       5.869   4.349  16.548  0.00  0.00    +0.000 C 
ATOM     17  C   UNL     1       5.191   4.890  18.915  0.00  0.00    +0.000 C 
ATOM     18  C   UNL     1       4.250   6.224  16.998  0.00  0.00    +0.000 C 
ATOM     19  C   UNL     1       1.909   5.715  17.806  0.00  0.00    +0.000 C 
ENDBRANCH   4   8
BRANCH   1  26
ATOM     20  C   UNL     1       1.426   9.086  22.258  0.00  0.00    +0.000 C 
ATOM     21  C   UNL     1       0.503   9.837  21.339  0.00  0.00    +0.000 A 
ATOM     22  C   UNL     1      -0.248  10.883  21.924  0.00  0.00    +0.000 A 
ATOM     23  C   UNL     1      -1.112  11.668  21.166  0.00  0.00    +0.000 A 
ATOM     24  C   UNL     1      -1.271  11.395  19.816  0.00  0.00    +0.000 A 
ATOM     25  C   UNL     1      -0.556  10.342  19.231  0.00  0.00    +0.000 A 
ATOM     26  C   UNL     1       0.343   9.546  19.964  0.00  0.00    +0.000 A 
ENDBRANCH   1  26
TORSDOF 2
ENDMDL
MODEL 9
REMARK VINA RESULT:      -7.4      3.443      7.315
REMARK  Name = 
REMARK  5 active torsions:
REMARK  status: ('A' for Active; 'I' for Inactive)
REMARK    1  A    between atoms: C_1  and  C_2
REMARK    2  A    between atoms: C_7  and  N_8
REMARK    3  A    between atoms: N_11  and  C_12
REMARK    4  A    between atoms: C_16  and  C_17
REMARK    5  A    between atoms: C_19  and  C_20
REMARK                            x       y       z     vdW  Elec       q    Type
REMARK                         _______ _______ _______ _____ _____    ______ ____
ROOT
ATOM      1  N   UNL     1       5.177   4.460  15.557  0.00  0.00    +0.000 NA
ATOM      2  C   UNL     1       4.856   5.557  16.148  0.00  0.00    +0.000 C 
ATOM      3  N   UNL     1       5.003   6.827  15.677  0.00  0.00    +0.000 N 
ATOM      4  N   UNL     1       4.302   5.675  17.391  0.00  0.00    +0.000 N 
ATOM      5  H   UNL     1       5.289   6.825  14.704  0.00  0.00    +0.000 HD
ATOM      6  H   UNL     1       5.718   7.298  16.223  0.00  0.00    +0.000 HD
ATOM      7  H   UNL     1       3.915   6.603  17.510  0.00  0.00    +0.000 HD
ENDROOT
BRANCH   4   8
ATOM      8  C   UNL     1       3.555   4.659  18.135  0.00  0.00    +0.000 C 
ATOM      9  C   UNL     1       2.138   4.563  17.498  0.00  0.00    +0.000 C 
ATOM     10  C   UNL     1       1.270   3.528  18.228  0.00  0.00    +0.000 C 
ATOM     11  C   UNL     1       1.941   2.149  18.140  0.00  0.00    +0.000 C 
ATOM     12  C   UNL     1       3.349   2.200  18.775  0.00  0.00    +0.000 C 
ATOM     13  C   UNL     1       4.011   0.827  18.689  0.00  0.00    +0.000 C 
ATOM     14  C   UNL     1       3.204   2.627  20.255  0.00  0.00    +0.000 C 
ATOM     15  C   UNL     1       2.524   4.013  20.366  0.00  0.00    +0.000 C 
ATOM     16  C   UNL     1       2.384   4.422  21.835  0.00  0.00    +0.000 C 
ATOM     17  C   UNL     1       1.132   3.934  19.701  0.00  0.00    +0.000 C 
ATOM     18  C   UNL     1       3.386   5.054  19.613  0.00  0.00    +0.000 C 
ATOM     19  C   UNL     1       4.204   3.260  18.030  0.00  0.00    +0.000 C 
ENDBRANCH   4   8
BRANCH   1  26
ATOM     20  C   UNL     1       7.999   5.501  14.794  0.00  0.00    +0.000 C 
ATOM     21  C   UNL     1       7.062   4.740  13.897  0.00  0.00    +0.000 A 
ATOM     22  C   UNL     1       7.547   4.426  12.606  0.00  0.00    +0.000 A 
ATOM     23  C   UNL     1       6.781   3.698  11.700  0.00  0.00    +0.000 A 
ATOM     24  C   UNL     1       5.500   3.305  12.055  0.00  0.00    +0.000 A 
ATOM     25  C   UNL     1       4.997   3.635  13.319  0.00  0.00    +0.000 A 
ATOM     26  C   UNL     1       5.754   4.349  14.267  0.00  0.00    +0.000 A 
ENDBRANCH   1  26
TORSDOF 2
ENDMDL
