MODEL 1
REMARK VINA RESULT:      -7.6      0.000      0.000
REMARK  Name = 
REMARK  4 active torsions:
REMARK  status: ('A' for Active; 'I' for Inactive)
REMARK    1  A    between atoms: C_1  and  O_2
REMARK    2  A    between atoms: O_2  and  C_3
REMARK    3  A    between atoms: C_6  and  C_7
REMARK    4  A    between atoms: C_23  and  O_24
REMARK                            x       y       z     vdW  Elec       q    Type
REMARK                         _______ _______ _______ _____ _____    ______ ____
ROOT
ATOM      1  C   UNL     1       3.027   7.616  18.000  0.00  0.00    +0.000 C 
ATOM      2  C   UNL     1       3.444   6.340  18.221  0.00  0.00    +0.000 C 
ATOM      3  C   UNL     1       4.737   5.859  17.602  0.00  0.00    +0.000 A 
ATOM      4  C   UNL     1       5.420   6.535  16.573  0.00  0.00    +0.000 A 
ATOM      5  C   UNL     1       6.621   6.044  16.045  0.00  0.00    +0.000 A 
ATOM      6  C   UNL     1       7.161   4.850  16.512  0.00  0.00    +0.000 A 
ATOM      7  C   UNL     1       6.515   4.159  17.530  0.00  0.00    +0.000 A 
ATOM      8  C   UNL     1       5.325   4.663  18.086  0.00  0.00    +0.000 A 
ATOM      9  C   UNL     1       4.721   3.894  19.218  0.00  0.00    +0.000 C 
ATOM     10  O   UNL     1       5.313   2.942  19.712  0.00  0.00    +0.000 OA
ATOM     11  C   UNL     1       3.402   4.306  19.666  0.00  0.00    +0.000 A 
ATOM     12  C   UNL     1       2.613   3.654  20.665  0.00  0.00    +0.000 A 
ATOM     13  C   UNL     1       1.368   4.222  20.789  0.00  0.00    +0.000 A 
ATOM     14  S   UNL     1       1.151   5.490  19.676  0.00  0.00    +0.000 S 
ATOM     15  C   UNL     1       2.788   5.439  19.150  0.00  0.00    +0.000 A 
ENDROOT
BRANCH   1  19
ATOM     16  C   UNL     1       0.047  10.000  19.951  0.00  0.00    +0.000 A 
ATOM     17  C   UNL     1       0.895   9.174  20.704  0.00  0.00    +0.000 A 
ATOM     18  C   UNL     1       1.849   8.356  20.085  0.00  0.00    +0.000 A 
ATOM     19  C   UNL     1       1.962   8.356  18.693  0.00  0.00    +0.000 A 
ATOM     20  C   UNL     1       1.079   9.129  17.932  0.00  0.00    +0.000 A 
ATOM     21  C   UNL     1       0.148   9.965  18.557  0.00  0.00    +0.000 A 
BRANCH  16  23
ATOM     22  C   UNL     1      -0.566  10.778  22.125  0.00  0.00    +0.000 C 
ATOM     23  O   UNL     1      -0.779  10.775  20.720  0.00  0.00    +0.000 OA
ENDBRANCH  16  23
BRANCH  21  24
ATOM     24  O   UNL     1      -0.625  10.757  17.754  0.00  0.00    +0.000 OA
ATOM     25  H   UNL     1      -0.418  11.685  17.954  0.00  0.00    +0.000 HD
ENDBRANCH  21  24
ENDBRANCH   1  19
TORSDOF 3
ENDMDL
MODEL 2
REMARK VINA RESULT:      -7.6      3.776      5.455
REMARK  Name = 
REMARK  4 active torsions:
REMARK  status: ('A' for Active; 'I' for Inactive)
REMARK    1  A    between atoms: C_1  and  O_2
REMARK    2  A    between atoms: O_2  and  C_3
REMARK    3  A    between atoms: C_6  and  C_7
REMARK    4  A    between atoms: C_23  and  O_24
REMARK                            x       y       z     vdW  Elec       q    Type
REMARK                         _______ _______ _______ _____ _____    ______ ____
ROOT
ATOM      1  C   UNL     1       3.895   3.319  16.203  0.00  0.00    +0.000 C 
ATOM      2  C   UNL     1       5.122   3.896  16.088  0.00  0.00    +0.000 C 
ATOM      3  C   UNL     1       5.756   4.035  14.721  0.00  0.00    +0.000 A 
ATOM      4  C   UNL     1       5.308   3.361  13.570  0.00  0.00    +0.000 A 
ATOM      5  C   UNL     1       5.931   3.538  12.328  0.00  0.00    +0.000 A 
ATOM      6  C   UNL     1       7.035   4.375  12.206  0.00  0.00    +0.000 A 
ATOM      7  C   UNL     1       7.501   5.060  13.322  0.00  0.00    +0.000 A 
ATOM      8  C   UNL     1       6.861   4.910  14.565  0.00  0.00    +0.000 A 
ATOM      9  C   UNL     1       7.383   5.725  15.706  0.00  0.00    +0.000 C 
ATOM     10  O   UNL     1       8.247   6.574  15.521  0.00  0.00    +0.000 OA
ATOM     11  C   UNL     1       6.848   5.434  17.025  0.00  0.00    +0.000 A 
ATOM     12  C   UNL     1       7.274   6.029  18.253  0.00  0.00    +0.000 A 
ATOM     13  C   UNL     1       6.649   5.468  19.340  0.00  0.00    +0.000 A 
ATOM     14  S   UNL     1       5.604   4.210  18.874  0.00  0.00    +0.000 S 
ATOM     15  C   UNL     1       5.810   4.529  17.196  0.00  0.00    +0.000 A 
ENDROOT
BRANCH   1  19
ATOM     16  C   UNL     1       1.494   3.396  19.753  0.00  0.00    +0.000 A 
ATOM     17  C   UNL     1       1.843   2.172  19.162  0.00  0.00    +0.000 A 
ATOM     18  C   UNL     1       2.592   2.124  17.979  0.00  0.00    +0.000 A 
ATOM     19  C   UNL     1       3.002   3.312  17.371  0.00  0.00    +0.000 A 
ATOM     20  C   UNL     1       2.606   4.537  17.919  0.00  0.00    +0.000 A 
ATOM     21  C   UNL     1       1.882   4.578  19.116  0.00  0.00    +0.000 A 
BRANCH  16  23
ATOM     22  C   UNL     1       1.446   2.525  21.977  0.00  0.00    +0.000 C 
ATOM     23  O   UNL     1       0.815   3.255  20.933  0.00  0.00    +0.000 OA
ENDBRANCH  16  23
BRANCH  21  24
ATOM     24  O   UNL     1       1.603   5.809  19.639  0.00  0.00    +0.000 OA
ATOM     25  H   UNL     1       0.685   6.034  19.411  0.00  0.00    +0.000 HD
ENDBRANCH  21  24
ENDBRANCH   1  19
TORSDOF 3
ENDMDL
MODEL 3
REMARK VINA RESULT:      -7.3      8.722      9.942
REMARK  Name = 
REMARK  4 active torsions:
REMARK  status: ('A' for Active; 'I' for Inactive)
REMARK    1  A    between atoms: C_1  and  O_2
REMARK    2  A    between atoms: O_2  and  C_3
REMARK    3  A    between atoms: C_6  and  C_7
REMARK    4  A    between atoms: C_23  and  O_24
REMARK                            x       y       z     vdW  Elec       q    Type
REMARK                         _______ _______ _______ _____ _____    ______ ____
ROOT
ATOM      1  C   UNL     1       8.956  12.218  22.618  0.00  0.00    +0.000 C 
ATOM      2  C   UNL     1       8.882  13.008  21.513  0.00  0.00    +0.000 C 
ATOM      3  C   UNL     1       9.770  12.714  20.324  0.00  0.00    +0.000 A 
ATOM      4  C   UNL     1      10.882  11.853  20.363  0.00  0.00    +0.000 A 
ATOM      5  C   UNL     1      11.662  11.612  19.225  0.00  0.00    +0.000 A 
ATOM      6  C   UNL     1      11.369  12.244  18.021  0.00  0.00    +0.000 A 
ATOM      7  C   UNL     1      10.274  13.098  17.946  0.00  0.00    +0.000 A 
ATOM      8  C   UNL     1       9.469  13.320  19.078  0.00  0.00    +0.000 A 
ATOM      9  C   UNL     1       8.275  14.204  18.904  0.00  0.00    +0.000 C 
ATOM     10  O   UNL     1       7.954  14.607  17.792  0.00  0.00    +0.000 OA
ATOM     11  C   UNL     1       7.553  14.583  20.107  0.00  0.00    +0.000 A 
ATOM     12  C   UNL     1       6.447  15.487  20.172  0.00  0.00    +0.000 A 
ATOM     13  C   UNL     1       6.050  15.722  21.466  0.00  0.00    +0.000 A 
ATOM     14  S   UNL     1       7.037  14.895  22.577  0.00  0.00    +0.000 S 
ATOM     15  C   UNL     1       7.883  14.046  21.343  0.00  0.00    +0.000 A 
ENDROOT
BRANCH   1  19
ATOM     16  C   UNL     1       6.420  11.880  26.057  0.00  0.00    +0.000 A 
ATOM     17  C   UNL     1       5.970  11.444  24.801  0.00  0.00    +0.000 A 
ATOM     18  C   UNL     1       6.765  11.582  23.657  0.00  0.00    +0.000 A 
ATOM     19  C   UNL     1       8.030  12.165  23.760  0.00  0.00    +0.000 A 
ATOM     20  C   UNL     1       8.460  12.659  24.995  0.00  0.00    +0.000 A 
ATOM     21  C   UNL     1       7.673  12.493  26.139  0.00  0.00    +0.000 A 
BRANCH  16  23
ATOM     22  C   UNL     1       4.541  10.629  26.840  0.00  0.00    +0.000 C 
ATOM     23  O   UNL     1       5.540  11.612  27.072  0.00  0.00    +0.000 OA
ENDBRANCH  16  23
BRANCH  21  24
ATOM     24  O   UNL     1       8.192  12.923  27.328  0.00  0.00    +0.000 OA
ATOM     25  H   UNL     1       9.135  12.688  27.350  0.00  0.00    +0.000 HD
ENDBRANCH  21  24
ENDBRANCH   1  19
TORSDOF 3
ENDMDL
MODEL 4
REMARK VINA RESULT:      -7.1      2.984      7.052
REMARK  Name = 
REMARK  4 active torsions:
REMARK  status: ('A' for Active; 'I' for Inactive)
REMARK    1  A    between atoms: C_1  and  O_2
REMARK    2  A    between atoms: O_2  and  C_3
REMARK    3  A    between atoms: C_6  and  C_7
REMARK    4  A    between atoms: C_23  and  O_24
REMARK                            x       y       z     vdW  Elec       q    Type
REMARK                         _______ _______ _______ _____ _____    ______ ____
ROOT
ATOM      1  C   UNL     1       4.416   6.715  16.520  0.00  0.00    +0.000 C 
ATOM      2  C   UNL     1       3.904   6.497  17.762  0.00  0.00    +0.000 C 
ATOM      3  C   UNL     1       2.950   7.505  18.364  0.00  0.00    +0.000 A 
ATOM      4  C   UNL     1       2.757   8.806  17.863  0.00  0.00    +0.000 A 
ATOM      5  C   UNL     1       1.851   9.693  18.459  0.00  0.00    +0.000 A 
ATOM      6  C   UNL     1       1.130   9.314  19.587  0.00  0.00    +0.000 A 
ATOM      7  C   UNL     1       1.293   8.034  20.104  0.00  0.00    +0.000 A 
ATOM      8  C   UNL     1       2.179   7.129  19.492  0.00  0.00    +0.000 A 
ATOM      9  C   UNL     1       2.256   5.752  20.071  0.00  0.00    +0.000 C 
ATOM     10  O   UNL     1       1.485   5.403  20.958  0.00  0.00    +0.000 OA
ATOM     11  C   UNL     1       3.299   4.879  19.562  0.00  0.00    +0.000 A 
ATOM     12  C   UNL     1       3.603   3.565  20.039  0.00  0.00    +0.000 A 
ATOM     13  C   UNL     1       4.712   3.038  19.425  0.00  0.00    +0.000 A 
ATOM     14  S   UNL     1       5.397   4.142  18.327  0.00  0.00    +0.000 S 
ATOM     15  C   UNL     1       4.105   5.264  18.499  0.00  0.00    +0.000 A 
ENDROOT
BRANCH   1  19
ATOM     16  C   UNL     1       6.515   4.141  13.811  0.00  0.00    +0.000 A 
ATOM     17  C   UNL     1       5.227   3.802  14.253  0.00  0.00    +0.000 A 
ATOM     18  C   UNL     1       4.539   4.607  15.169  0.00  0.00    +0.000 A 
ATOM     19  C   UNL     1       5.140   5.769  15.658  0.00  0.00    +0.000 A 
ATOM     20  C   UNL     1       6.447   6.081  15.271  0.00  0.00    +0.000 A 
ATOM     21  C   UNL     1       7.118   5.288  14.334  0.00  0.00    +0.000 A 
BRANCH  16  23
ATOM     22  C   UNL     1       6.100   2.725  11.931  0.00  0.00    +0.000 C 
ATOM     23  O   UNL     1       7.011   3.276  12.872  0.00  0.00    +0.000 OA
ENDBRANCH  16  23
BRANCH  21  24
ATOM     24  O   UNL     1       8.360   5.699  13.937  0.00  0.00    +0.000 OA
ATOM     25  H   UNL     1       8.862   4.916  13.653  0.00  0.00    +0.000 HD
ENDBRANCH  21  24
ENDBRANCH   1  19
TORSDOF 3
ENDMDL
MODEL 5
REMARK VINA RESULT:      -7.0      8.652      9.782
REMARK  Name = 
REMARK  4 active torsions:
REMARK  status: ('A' for Active; 'I' for Inactive)
REMARK    1  A    between atoms: C_1  and  O_2
REMARK    2  A    between atoms: O_2  and  C_3
REMARK    3  A    between atoms: C_6  and  C_7
REMARK    4  A    between atoms: C_23  and  O_24
REMARK                            x       y       z     vdW  Elec       q    Type
REMARK                         _______ _______ _______ _____ _____    ______ ____
ROOT
ATOM      1  C   UNL     1       9.151  12.376  22.576  0.00  0.00    +0.000 C 
ATOM      2  C   UNL     1       8.985  13.079  21.424  0.00  0.00    +0.000 C 
ATOM      3  C   UNL     1       9.818  12.732  20.210  0.00  0.00    +0.000 A 
ATOM      4  C   UNL     1      10.965  11.919  20.246  0.00  0.00    +0.000 A 
ATOM      5  C   UNL     1      11.692  11.625  19.085  0.00  0.00    +0.000 A 
ATOM      6  C   UNL     1      11.307  12.156  17.859  0.00  0.00    +0.000 A 
ATOM      7  C   UNL     1      10.176  12.960  17.786  0.00  0.00    +0.000 A 
ATOM      8  C   UNL     1       9.425  13.234  18.943  0.00  0.00    +0.000 A 
ATOM      9  C   UNL     1       8.188  14.058  18.776  0.00  0.00    +0.000 C 
ATOM     10  O   UNL     1       7.790  14.367  17.658  0.00  0.00    +0.000 OA
ATOM     11  C   UNL     1       7.517  14.497  19.988  0.00  0.00    +0.000 A 
ATOM     12  C   UNL     1       6.380  15.361  20.052  0.00  0.00    +0.000 A 
ATOM     13  C   UNL     1       6.045  15.675  21.346  0.00  0.00    +0.000 A 
ATOM     14  S   UNL     1       7.124  14.969  22.455  0.00  0.00    +0.000 S 
ATOM     15  C   UNL     1       7.936  14.064  21.238  0.00  0.00    +0.000 A 
ENDROOT
BRANCH   1  19
ATOM     16  C   UNL     1       6.459  12.490  25.910  0.00  0.00    +0.000 A 
ATOM     17  C   UNL     1       7.652  13.228  25.939  0.00  0.00    +0.000 A 
ATOM     18  C   UNL     1       8.566  13.174  24.879  0.00  0.00    +0.000 A 
ATOM     19  C   UNL     1       8.292  12.372  23.770  0.00  0.00    +0.000 A 
ATOM     20  C   UNL     1       7.136  11.585  23.760  0.00  0.00    +0.000 A 
ATOM     21  C   UNL     1       6.213  11.665  24.809  0.00  0.00    +0.000 A 
BRANCH  16  23
ATOM     22  C   UNL     1       5.123  14.014  27.176  0.00  0.00    +0.000 C 
ATOM     23  O   UNL     1       5.658  12.709  26.999  0.00  0.00    +0.000 OA
ENDBRANCH  16  23
BRANCH  21  24
ATOM     24  O   UNL     1       5.064  10.933  24.693  0.00  0.00    +0.000 OA
ATOM     25  H   UNL     1       5.081  10.477  23.835  0.00  0.00    +0.000 HD
ENDBRANCH  21  24
ENDBRANCH   1  19
TORSDOF 3
ENDMDL
MODEL 6
REMARK VINA RESULT:      -6.9      2.877      6.903
REMARK  Name = 
REMARK  4 active torsions:
REMARK  status: ('A' for Active; 'I' for Inactive)
REMARK    1  A    between atoms: C_1  and  O_2
REMARK    2  A    between atoms: O_2  and  C_3
REMARK    3  A    between atoms: C_6  and  C_7
REMARK    4  A    between atoms: C_23  and  O_24
REMARK                            x       y       z     vdW  Elec       q    Type
REMARK                         _______ _______ _______ _____ _____    ______ ____
ROOT
ATOM      1  C   UNL     1       4.140   6.223  17.283  0.00  0.00    +0.000 C 
ATOM      2  C   UNL     1       3.649   5.809  18.482  0.00  0.00    +0.000 C 
ATOM      3  C   UNL     1       2.683   6.693  19.238  0.00  0.00    +0.000 A 
ATOM      4  C   UNL     1       2.456   8.050  18.942  0.00  0.00    +0.000 A 
ATOM      5  C   UNL     1       1.539   8.816  19.675  0.00  0.00    +0.000 A 
ATOM      6  C   UNL     1       0.842   8.255  20.739  0.00  0.00    +0.000 A 
ATOM      7  C   UNL     1       1.038   6.916  21.056  0.00  0.00    +0.000 A 
ATOM      8  C   UNL     1       1.935   6.134  20.305  0.00  0.00    +0.000 A 
ATOM      9  C   UNL     1       2.048   4.687  20.669  0.00  0.00    +0.000 C 
ATOM     10  O   UNL     1       1.297   4.191  21.500  0.00  0.00    +0.000 OA
ATOM     11  C   UNL     1       3.103   3.925  20.023  0.00  0.00    +0.000 A 
ATOM     12  C   UNL     1       3.440   2.562  20.294  0.00  0.00    +0.000 A 
ATOM     13  C   UNL     1       4.553   2.158  19.596  0.00  0.00    +0.000 A 
ATOM     14  S   UNL     1       5.199   3.430  18.670  0.00  0.00    +0.000 S 
ATOM     15  C   UNL     1       3.886   4.484  19.023  0.00  0.00    +0.000 A 
ENDROOT
BRANCH   1  19
ATOM     16  C   UNL     1       6.258   4.136  14.195  0.00  0.00    +0.000 A 
ATOM     17  C   UNL     1       4.980   3.710  14.588  0.00  0.00    +0.000 A 
ATOM     18  C   UNL     1       4.287   4.352  15.622  0.00  0.00    +0.000 A 
ATOM     19  C   UNL     1       4.873   5.434  16.280  0.00  0.00    +0.000 A 
ATOM     20  C   UNL     1       6.171   5.826  15.938  0.00  0.00    +0.000 A 
ATOM     21  C   UNL     1       6.847   5.200  14.886  0.00  0.00    +0.000 A 
BRANCH  16  23
ATOM     22  C   UNL     1       5.876   3.129  12.063  0.00  0.00    +0.000 C 
ATOM     23  O   UNL     1       6.761   3.436  13.132  0.00  0.00    +0.000 OA
ENDBRANCH  16  23
BRANCH  21  24
ATOM     24  O   UNL     1       8.078   5.689  14.550  0.00  0.00    +0.000 OA
ATOM     25  H   UNL     1       8.689   4.938  14.460  0.00  0.00    +0.000 HD
ENDBRANCH  21  24
ENDBRANCH   1  19
TORSDOF 3
ENDMDL
MODEL 7
REMARK VINA RESULT:      -6.9      0.830      1.525
REMARK  Name = 
REMARK  4 active torsions:
REMARK  status: ('A' for Active; 'I' for Inactive)
REMARK    1  A    between atoms: C_1  and  O_2
REMARK    2  A    between atoms: O_2  and  C_3
REMARK    3  A    between atoms: C_6  and  C_7
REMARK    4  A    between atoms: C_23  and  O_24
REMARK                            x       y       z     vdW  Elec       q    Type
REMARK                         _______ _______ _______ _____ _____    ______ ____
ROOT
ATOM      1  C   UNL     1       2.945   7.675  17.775  0.00  0.00    +0.000 C 
ATOM      2  C   UNL     1       3.339   6.395  18.013  0.00  0.00    +0.000 C 
ATOM      3  C   UNL     1       4.523   5.827  17.262  0.00  0.00    +0.000 A 
ATOM      4  C   UNL     1       5.091   6.419  16.119  0.00  0.00    +0.000 A 
ATOM      5  C   UNL     1       6.195   5.849  15.471  0.00  0.00    +0.000 A 
ATOM      6  C   UNL     1       6.747   4.659  15.932  0.00  0.00    +0.000 A 
ATOM      7  C   UNL     1       6.213   4.050  17.061  0.00  0.00    +0.000 A 
ATOM      8  C   UNL     1       5.124   4.633  17.734  0.00  0.00    +0.000 A 
ATOM      9  C   UNL     1       4.643   3.950  18.975  0.00  0.00    +0.000 C 
ATOM     10  O   UNL     1       5.259   3.000  19.443  0.00  0.00    +0.000 OA
ATOM     11  C   UNL     1       3.409   4.442  19.564  0.00  0.00    +0.000 A 
ATOM     12  C   UNL     1       2.733   3.878  20.690  0.00  0.00    +0.000 A 
ATOM     13  C   UNL     1       1.536   4.504  20.939  0.00  0.00    +0.000 A 
ATOM     14  S   UNL     1       1.224   5.722  19.793  0.00  0.00    +0.000 S 
ATOM     15  C   UNL     1       2.776   5.573  19.067  0.00  0.00    +0.000 A 
ENDROOT
BRANCH   1  19
ATOM     16  C   UNL     1       0.092   9.839  20.131  0.00  0.00    +0.000 A 
ATOM     17  C   UNL     1       0.069   9.934  18.731  0.00  0.00    +0.000 A 
ATOM     18  C   UNL     1       1.017   9.268  17.944  0.00  0.00    +0.000 A 
ATOM     19  C   UNL     1       2.006   8.496  18.556  0.00  0.00    +0.000 A 
ATOM     20  C   UNL     1       2.074   8.447  19.952  0.00  0.00    +0.000 A 
ATOM     21  C   UNL     1       1.107   9.091  20.732  0.00  0.00    +0.000 A 
BRANCH  16  23
ATOM     22  C   UNL     1      -1.105  11.884  20.443  0.00  0.00    +0.000 C 
ATOM     23  O   UNL     1      -0.942  10.503  20.737  0.00  0.00    +0.000 OA
ENDBRANCH  16  23
BRANCH  21  24
ATOM     24  O   UNL     1       1.185   8.930  22.087  0.00  0.00    +0.000 OA
ATOM     25  H   UNL     1       0.280   8.921  22.444  0.00  0.00    +0.000 HD
ENDBRANCH  21  24
ENDBRANCH   1  19
TORSDOF 3
ENDMDL
MODEL 8
REMARK VINA RESULT:      -6.8      5.704      8.427
REMARK  Name = 
REMARK  4 active torsions:
REMARK  status: ('A' for Active; 'I' for Inactive)
REMARK    1  A    between atoms: C_1  and  O_2
REMARK    2  A    between atoms: O_2  and  C_3
REMARK    3  A    between atoms: C_6  and  C_7
REMARK    4  A    between atoms: C_23  and  O_24
REMARK                            x       y       z     vdW  Elec       q    Type
REMARK                         _______ _______ _______ _____ _____    ______ ____
ROOT
ATOM      1  C   UNL     1      -3.235  12.689  20.596  0.00  0.00    +0.000 C 
ATOM      2  C   UNL     1      -2.495  11.731  19.974  0.00  0.00    +0.000 C 
ATOM      3  C   UNL     1      -2.821  11.344  18.549  0.00  0.00    +0.000 A 
ATOM      4  C   UNL     1      -4.015  11.691  17.890  0.00  0.00    +0.000 A 
ATOM      5  C   UNL     1      -4.257  11.310  16.563  0.00  0.00    +0.000 A 
ATOM      6  C   UNL     1      -3.324  10.550  15.866  0.00  0.00    +0.000 A 
ATOM      7  C   UNL     1      -2.132  10.194  16.486  0.00  0.00    +0.000 A 
ATOM      8  C   UNL     1      -1.870  10.599  17.807  0.00  0.00    +0.000 A 
ATOM      9  C   UNL     1      -0.541  10.228  18.385  0.00  0.00    +0.000 C 
ATOM     10  O   UNL     1       0.319   9.705  17.686  0.00  0.00    +0.000 OA
ATOM     11  C   UNL     1      -0.344  10.480  19.802  0.00  0.00    +0.000 A 
ATOM     12  C   UNL     1       0.810  10.120  20.566  0.00  0.00    +0.000 A 
ATOM     13  C   UNL     1       0.651  10.399  21.901  0.00  0.00    +0.000 A 
ATOM     14  S   UNL     1      -0.891  11.042  22.221  0.00  0.00    +0.000 S 
ATOM     15  C   UNL     1      -1.299  11.150  20.553  0.00  0.00    +0.000 A 
ENDROOT
BRANCH   1  19
ATOM     16  C   UNL     1      -2.630  14.821  24.265  0.00  0.00    +0.000 A 
ATOM     17  C   UNL     1      -1.927  15.191  23.108  0.00  0.00    +0.000 A 
ATOM     18  C   UNL     1      -2.078  14.484  21.909  0.00  0.00    +0.000 A 
ATOM     19  C   UNL     1      -2.941  13.387  21.857  0.00  0.00    +0.000 A 
ATOM     20  C   UNL     1      -3.597  12.973  23.020  0.00  0.00    +0.000 A 
ATOM     21  C   UNL     1      -3.464  13.701  24.208  0.00  0.00    +0.000 A 
BRANCH  16  23
ATOM     22  C   UNL     1      -1.097  15.699  25.874  0.00  0.00    +0.000 C 
ATOM     23  O   UNL     1      -2.408  15.657  25.326  0.00  0.00    +0.000 OA
ENDBRANCH  16  23
BRANCH  21  24
ATOM     24  O   UNL     1      -4.201  13.289  25.283  0.00  0.00    +0.000 OA
ATOM     25  H   UNL     1      -4.912  12.712  24.960  0.00  0.00    +0.000 HD
ENDBRANCH  21  24
ENDBRANCH   1  19
TORSDOF 3
ENDMDL
MODEL 9
REMARK VINA RESULT:      -6.8      9.428     10.538
REMARK  Name = 
REMARK  4 active torsions:
REMARK  status: ('A' for Active; 'I' for Inactive)
REMARK    1  A    between atoms: C_1  and  O_2
REMARK    2  A    between atoms: O_2  and  C_3
REMARK    3  A    between atoms: C_6  and  C_7
REMARK    4  A    between atoms: C_23  and  O_24
REMARK                            x       y       z     vdW  Elec       q    Type
REMARK                         _______ _______ _______ _____ _____    ______ ____
ROOT
ATOM      1  C   UNL     1       8.903  12.186  21.972  0.00  0.00    +0.000 C 
ATOM      2  C   UNL     1       9.717  13.194  21.556  0.00  0.00    +0.000 C 
ATOM      3  C   UNL     1      10.550  13.014  20.307  0.00  0.00    +0.000 A 
ATOM      4  C   UNL     1      10.774  11.774  19.679  0.00  0.00    +0.000 A 
ATOM      5  C   UNL     1      11.548  11.672  18.516  0.00  0.00    +0.000 A 
ATOM      6  C   UNL     1      12.142  12.801  17.961  0.00  0.00    +0.000 A 
ATOM      7  C   UNL     1      11.937  14.042  18.554  0.00  0.00    +0.000 A 
ATOM      8  C   UNL     1      11.136  14.155  19.704  0.00  0.00    +0.000 A 
ATOM      9  C   UNL     1      10.915  15.531  20.249  0.00  0.00    +0.000 C 
ATOM     10  O   UNL     1      11.314  16.516  19.639  0.00  0.00    +0.000 OA
ATOM     11  C   UNL     1      10.247  15.631  21.535  0.00  0.00    +0.000 A 
ATOM     12  C   UNL     1      10.020  16.836  22.271  0.00  0.00    +0.000 A 
ATOM     13  C   UNL     1       9.459  16.591  23.501  0.00  0.00    +0.000 A 
ATOM     14  S   UNL     1       9.259  14.923  23.769  0.00  0.00    +0.000 S 
ATOM     15  C   UNL     1       9.728  14.510  22.166  0.00  0.00    +0.000 A 
ENDROOT
BRANCH   1  19
ATOM     16  C   UNL     1       5.863  12.596  24.966  0.00  0.00    +0.000 A 
ATOM     17  C   UNL     1       6.990  11.796  25.208  0.00  0.00    +0.000 A 
ATOM     18  C   UNL     1       7.976  11.615  24.230  0.00  0.00    +0.000 A 
ATOM     19  C   UNL     1       7.840  12.238  22.988  0.00  0.00    +0.000 A 
ATOM     20  C   UNL     1       6.690  12.985  22.715  0.00  0.00    +0.000 A 
ATOM     21  C   UNL     1       5.723  13.186  23.707  0.00  0.00    +0.000 A 
BRANCH  16  23
ATOM     22  C   UNL     1       4.881  11.573  26.889  0.00  0.00    +0.000 C 
ATOM     23  O   UNL     1       5.036  12.710  26.051  0.00  0.00    +0.000 OA
ENDBRANCH  16  23
BRANCH  21  24
ATOM     24  O   UNL     1       4.667  13.997  23.400  0.00  0.00    +0.000 OA
ATOM     25  H   UNL     1       4.910  14.911  23.628  0.00  0.00    +0.000 HD
ENDBRANCH  21  24
ENDBRANCH   1  19
TORSDOF 3
ENDMDL
