MODEL 1
REMARK VINA RESULT:      -6.5      0.000      0.000
REMARK  Name = 
REMARK  7 active torsions:
REMARK  status: ('A' for Active; 'I' for Inactive)
REMARK    1  A    between atoms: C_2  and  C_3
REMARK    2  A    between atoms: C_3  and  C_4
REMARK    3  A    between atoms: C_4  and  N_5
REMARK    4  A    between atoms: N_5  and  S_6
REMARK    5  A    between atoms: S_6  and  C_9
REMARK    6  A    between atoms: N_14  and  C_15
REMARK    7  A    between atoms: C_15  and  C_16
REMARK                            x       y       z     vdW  Elec       q    Type
REMARK                         _______ _______ _______ _____ _____    ______ ____
ROOT
ATOM      1  C   UNL     1       7.049   5.899  18.218  0.00  0.00    +0.000 C 
ENDROOT
BRANCH   1   3
ATOM      2  O   UNL     1       8.185   4.035  17.186  0.00  0.00    +0.000 OA
ATOM      3  C   UNL     1       7.222   4.781  17.202  0.00  0.00    +0.000 C 
ATOM      4  N   UNL     1       6.220   4.658  16.276  0.00  0.00    +0.000 N 
ATOM      5  H   UNL     1       5.522   5.388  16.233  0.00  0.00    +0.000 HD
BRANCH   4   6
ATOM      6  C   UNL     1       6.212   3.657  15.229  0.00  0.00    +0.000 C 
BRANCH   6   7
ATOM      7  C   UNL     1       6.770   4.249  13.982  0.00  0.00    +0.000 A 
ATOM      8  C   UNL     1       6.577   3.981  12.638  0.00  0.00    +0.000 A 
ATOM      9  C   UNL     1       7.409   4.877  11.925  0.00  0.00    +0.000 A 
ATOM     10  C   UNL     1       8.056   5.635  12.872  0.00  0.00    +0.000 A 
ATOM     11  O   UNL     1       7.676   5.264  14.123  0.00  0.00    +0.000 OA
ENDBRANCH   6   7
ENDBRANCH   4   6
ENDBRANCH   1   3
BRANCH   1  12
ATOM     12  C   UNL     1       6.166   5.438  19.372  0.00  0.00    +0.000 C 
BRANCH  12  13
ATOM     13  N   UNL     1       5.739   4.031  19.240  0.00  0.00    +0.000 NA
ATOM     14  H   UNL     1       6.031   3.437  20.019  0.00  0.00    +0.000 HD
BRANCH  13  15
ATOM     15  S   UNL     1       4.079   3.821  18.969  0.00  0.00    +0.000 S 
ATOM     16  O   UNL     1       3.928   3.186  17.696  0.00  0.00    +0.000 OA
ATOM     17  O   UNL     1       3.572   3.235  20.198  0.00  0.00    +0.000 OA
BRANCH  15  18
ATOM     18  C   UNL     1       3.280   5.398  18.850  0.00  0.00    +0.000 A 
ATOM     19  C   UNL     1       3.209   6.334  17.841  0.00  0.00    +0.000 A 
ATOM     20  C   UNL     1       2.545   7.527  18.243  0.00  0.00    +0.000 A 
ATOM     21  C   UNL     1       2.097   7.453  19.542  0.00  0.00    +0.000 A 
ATOM     22  S   UNL     1       2.463   5.939  20.260  0.00  0.00    +0.000 S 
ENDBRANCH  15  18
ENDBRANCH  13  15
ENDBRANCH  12  13
ENDBRANCH   1  12
TORSDOF 7
ENDMDL
MODEL 2
REMARK VINA RESULT:      -6.3      2.252      2.594
REMARK  Name = 
REMARK  7 active torsions:
REMARK  status: ('A' for Active; 'I' for Inactive)
REMARK    1  A    between atoms: C_2  and  C_3
REMARK    2  A    between atoms: C_3  and  C_4
REMARK    3  A    between atoms: C_4  and  N_5
REMARK    4  A    between atoms: N_5  and  S_6
REMARK    5  A    between atoms: S_6  and  C_9
REMARK    6  A    between atoms: N_14  and  C_15
REMARK    7  A    between atoms: C_15  and  C_16
REMARK                            x       y       z     vdW  Elec       q    Type
REMARK                         _______ _______ _______ _____ _____    ______ ____
ROOT
ATOM      1  C   UNL     1       4.607   2.753  19.367  0.00  0.00    +0.000 C 
ENDROOT
BRANCH   1   3
ATOM      2  O   UNL     1       6.264   4.507  19.443  0.00  0.00    +0.000 OA
ATOM      3  C   UNL     1       5.401   3.924  18.810  0.00  0.00    +0.000 C 
ATOM      4  N   UNL     1       5.085   4.305  17.534  0.00  0.00    +0.000 N 
ATOM      5  H   UNL     1       4.265   3.896  17.106  0.00  0.00    +0.000 HD
BRANCH   4   6
ATOM      6  C   UNL     1       5.730   5.400  16.838  0.00  0.00    +0.000 C 
BRANCH   6   7
ATOM      7  C   UNL     1       6.129   4.948  15.476  0.00  0.00    +0.000 A 
ATOM      8  C   UNL     1       5.577   4.053  14.577  0.00  0.00    +0.000 A 
ATOM      9  C   UNL     1       6.431   4.036  13.448  0.00  0.00    +0.000 A 
ATOM     10  C   UNL     1       7.448   4.919  13.725  0.00  0.00    +0.000 A 
ATOM     11  O   UNL     1       7.275   5.478  14.952  0.00  0.00    +0.000 OA
ENDBRANCH   6   7
ENDBRANCH   4   6
ENDBRANCH   1   3
BRANCH   1  12
ATOM     12  C   UNL     1       3.596   2.259  18.339  0.00  0.00    +0.000 C 
BRANCH  12  13
ATOM     13  N   UNL     1       2.427   1.600  18.955  0.00  0.00    +0.000 NA
ATOM     14  H   UNL     1       2.663   1.007  19.752  0.00  0.00    +0.000 HD
BRANCH  13  15
ATOM     15  S   UNL     1       1.173   2.654  19.390  0.00  0.00    +0.000 S 
ATOM     16  O   UNL     1       0.064   2.382  18.528  0.00  0.00    +0.000 OA
ATOM     17  O   UNL     1       1.081   2.545  20.836  0.00  0.00    +0.000 OA
BRANCH  15  18
ATOM     18  C   UNL     1       1.657   4.330  19.087  0.00  0.00    +0.000 A 
ATOM     19  C   UNL     1       1.811   5.062  17.929  0.00  0.00    +0.000 A 
ATOM     20  C   UNL     1       2.342   6.361  18.165  0.00  0.00    +0.000 A 
ATOM     21  C   UNL     1       2.547   6.596  19.506  0.00  0.00    +0.000 A 
ATOM     22  S   UNL     1       2.079   5.258  20.470  0.00  0.00    +0.000 S 
ENDBRANCH  15  18
ENDBRANCH  13  15
ENDBRANCH  12  13
ENDBRANCH   1  12
TORSDOF 7
ENDMDL
MODEL 3
REMARK VINA RESULT:      -6.2      1.858      2.460
REMARK  Name = 
REMARK  7 active torsions:
REMARK  status: ('A' for Active; 'I' for Inactive)
REMARK    1  A    between atoms: C_2  and  C_3
REMARK    2  A    between atoms: C_3  and  C_4
REMARK    3  A    between atoms: C_4  and  N_5
REMARK    4  A    between atoms: N_5  and  S_6
REMARK    5  A    between atoms: S_6  and  C_9
REMARK    6  A    between atoms: N_14  and  C_15
REMARK    7  A    between atoms: C_15  and  C_16
REMARK                            x       y       z     vdW  Elec       q    Type
REMARK                         _______ _______ _______ _____ _____    ______ ____
ROOT
ATOM      1  C   UNL     1       7.312   6.137  18.135  0.00  0.00    +0.000 C 
ENDROOT
BRANCH   1   3
ATOM      2  O   UNL     1       8.223   4.078  17.262  0.00  0.00    +0.000 OA
ATOM      3  C   UNL     1       7.342   4.919  17.225  0.00  0.00    +0.000 C 
ATOM      4  N   UNL     1       6.308   4.817  16.333  0.00  0.00    +0.000 N 
ATOM      5  H   UNL     1       5.688   5.609  16.233  0.00  0.00    +0.000 HD
BRANCH   4   6
ATOM      6  C   UNL     1       6.169   3.730  15.384  0.00  0.00    +0.000 C 
BRANCH   6   7
ATOM      7  C   UNL     1       6.684   4.169  14.058  0.00  0.00    +0.000 A 
ATOM      8  C   UNL     1       6.442   3.750  12.762  0.00  0.00    +0.000 A 
ATOM      9  C   UNL     1       7.251   4.551  11.920  0.00  0.00    +0.000 A 
ATOM     10  C   UNL     1       7.935   5.407  12.750  0.00  0.00    +0.000 A 
ATOM     11  O   UNL     1       7.598   5.187  14.048  0.00  0.00    +0.000 OA
ENDBRANCH   6   7
ENDBRANCH   4   6
ENDBRANCH   1   3
BRANCH   1  12
ATOM     12  C   UNL     1       5.883   6.638  18.306  0.00  0.00    +0.000 C 
BRANCH  12  13
ATOM     13  N   UNL     1       5.038   5.708  19.081  0.00  0.00    +0.000 NA
ATOM     14  H   UNL     1       5.078   5.860  20.091  0.00  0.00    +0.000 HD
BRANCH  13  15
ATOM     15  S   UNL     1       3.417   5.649  18.587  0.00  0.00    +0.000 S 
ATOM     16  O   UNL     1       2.838   6.928  18.860  0.00  0.00    +0.000 OA
ATOM     17  O   UNL     1       3.457   5.081  17.251  0.00  0.00    +0.000 OA
BRANCH  15  18
ATOM     18  C   UNL     1       2.529   4.467  19.562  0.00  0.00    +0.000 A 
ATOM     19  C   UNL     1       1.758   4.585  20.698  0.00  0.00    +0.000 A 
ATOM     20  C   UNL     1       1.333   3.327  21.209  0.00  0.00    +0.000 A 
ATOM     21  C   UNL     1       1.765   2.282  20.424  0.00  0.00    +0.000 A 
ATOM     22  S   UNL     1       2.662   2.827  19.069  0.00  0.00    +0.000 S 
ENDBRANCH  15  18
ENDBRANCH  13  15
ENDBRANCH  12  13
ENDBRANCH   1  12
TORSDOF 7
ENDMDL
MODEL 4
REMARK VINA RESULT:      -6.2      2.902      5.366
REMARK  Name = 
REMARK  7 active torsions:
REMARK  status: ('A' for Active; 'I' for Inactive)
REMARK    1  A    between atoms: C_2  and  C_3
REMARK    2  A    between atoms: C_3  and  C_4
REMARK    3  A    between atoms: C_4  and  N_5
REMARK    4  A    between atoms: N_5  and  S_6
REMARK    5  A    between atoms: S_6  and  C_9
REMARK    6  A    between atoms: N_14  and  C_15
REMARK    7  A    between atoms: C_15  and  C_16
REMARK                            x       y       z     vdW  Elec       q    Type
REMARK                         _______ _______ _______ _____ _____    ______ ____
ROOT
ATOM      1  C   UNL     1       5.292   4.893  16.568  0.00  0.00    +0.000 C 
ENDROOT
BRANCH   1   3
ATOM      2  O   UNL     1       6.215   4.145  18.670  0.00  0.00    +0.000 OA
ATOM      3  C   UNL     1       5.342   4.041  17.826  0.00  0.00    +0.000 C 
ATOM      4  N   UNL     1       4.337   3.121  17.961  0.00  0.00    +0.000 N 
ATOM      5  H   UNL     1       3.727   2.965  17.171  0.00  0.00    +0.000 HD
BRANCH   4   6
ATOM      6  C   UNL     1       4.220   2.218  19.089  0.00  0.00    +0.000 C 
BRANCH   6   7
ATOM      7  C   UNL     1       2.962   2.518  19.828  0.00  0.00    +0.000 A 
ATOM      8  C   UNL     1       1.646   2.671  19.432  0.00  0.00    +0.000 A 
ATOM      9  C   UNL     1       0.904   2.967  20.601  0.00  0.00    +0.000 A 
ATOM     10  C   UNL     1       1.809   2.976  21.635  0.00  0.00    +0.000 A 
ATOM     11  O   UNL     1       3.060   2.704  21.179  0.00  0.00    +0.000 OA
ENDBRANCH   6   7
ENDBRANCH   4   6
ENDBRANCH   1   3
BRANCH   1  12
ATOM     12  C   UNL     1       4.629   6.234  16.859  0.00  0.00    +0.000 C 
BRANCH  12  13
ATOM     13  N   UNL     1       4.410   6.465  18.301  0.00  0.00    +0.000 NA
ATOM     14  H   UNL     1       4.806   7.342  18.642  0.00  0.00    +0.000 HD
BRANCH  13  15
ATOM     15  S   UNL     1       2.792   6.351  18.795  0.00  0.00    +0.000 S 
ATOM     16  O   UNL     1       2.099   5.566  17.822  0.00  0.00    +0.000 OA
ATOM     17  O   UNL     1       2.857   5.976  20.197  0.00  0.00    +0.000 OA
BRANCH  15  18
ATOM     18  C   UNL     1       2.041   7.955  18.785  0.00  0.00    +0.000 A 
ATOM     19  C   UNL     1       1.919   8.922  17.811  0.00  0.00    +0.000 A 
ATOM     20  C   UNL     1       1.332  10.124  18.297  0.00  0.00    +0.000 A 
ATOM     21  C   UNL     1       0.990  10.026  19.627  0.00  0.00    +0.000 A 
ATOM     22  S   UNL     1       1.362   8.482  20.272  0.00  0.00    +0.000 S 
ENDBRANCH  15  18
ENDBRANCH  13  15
ENDBRANCH  12  13
ENDBRANCH   1  12
TORSDOF 7
ENDMDL
MODEL 5
REMARK VINA RESULT:      -6.1      2.418      3.138
REMARK  Name = 
REMARK  7 active torsions:
REMARK  status: ('A' for Active; 'I' for Inactive)
REMARK    1  A    between atoms: C_2  and  C_3
REMARK    2  A    between atoms: C_3  and  C_4
REMARK    3  A    between atoms: C_4  and  N_5
REMARK    4  A    between atoms: N_5  and  S_6
REMARK    5  A    between atoms: S_6  and  C_9
REMARK    6  A    between atoms: N_14  and  C_15
REMARK    7  A    between atoms: C_15  and  C_16
REMARK                            x       y       z     vdW  Elec       q    Type
REMARK                         _______ _______ _______ _____ _____    ______ ____
ROOT
ATOM      1  C   UNL     1       5.494   6.141  16.726  0.00  0.00    +0.000 C 
ENDROOT
BRANCH   1   3
ATOM      2  O   UNL     1       7.490   4.816  16.431  0.00  0.00    +0.000 OA
ATOM      3  C   UNL     1       6.523   5.358  15.927  0.00  0.00    +0.000 C 
ATOM      4  N   UNL     1       6.308   5.299  14.575  0.00  0.00    +0.000 N 
ATOM      5  H   UNL     1       5.584   5.887  14.184  0.00  0.00    +0.000 HD
BRANCH   4   6
ATOM      6  C   UNL     1       7.182   4.604  13.651  0.00  0.00    +0.000 C 
BRANCH   6   7
ATOM      7  C   UNL     1       6.362   3.736  12.762  0.00  0.00    +0.000 A 
ATOM      8  C   UNL     1       6.670   2.672  11.933  0.00  0.00    +0.000 A 
ATOM      9  C   UNL     1       5.455   2.266  11.329  0.00  0.00    +0.000 A 
ATOM     10  C   UNL     1       4.483   3.103  11.825  0.00  0.00    +0.000 A 
ATOM     11  O   UNL     1       5.021   3.997  12.695  0.00  0.00    +0.000 OA
ENDBRANCH   6   7
ENDBRANCH   4   6
ENDBRANCH   1   3
BRANCH   1  12
ATOM     12  C   UNL     1       4.775   5.226  17.710  0.00  0.00    +0.000 C 
BRANCH  12  13
ATOM     13  N   UNL     1       3.312   5.430  17.719  0.00  0.00    +0.000 NA
ATOM     14  H   UNL     1       2.978   6.042  16.973  0.00  0.00    +0.000 HD
BRANCH  13  15
ATOM     15  S   UNL     1       2.402   4.000  17.720  0.00  0.00    +0.000 S 
ATOM     16  O   UNL     1       1.116   4.309  17.177  0.00  0.00    +0.000 OA
ATOM     17  O   UNL     1       3.277   3.001  17.132  0.00  0.00    +0.000 OA
BRANCH  15  18
ATOM     18  C   UNL     1       2.135   3.453  19.384  0.00  0.00    +0.000 A 
ATOM     19  C   UNL     1       1.075   3.593  20.253  0.00  0.00    +0.000 A 
ATOM     20  C   UNL     1       1.356   3.086  21.552  0.00  0.00    +0.000 A 
ATOM     21  C   UNL     1       2.618   2.538  21.627  0.00  0.00    +0.000 A 
ATOM     22  S   UNL     1       3.443   2.624  20.127  0.00  0.00    +0.000 S 
ENDBRANCH  15  18
ENDBRANCH  13  15
ENDBRANCH  12  13
ENDBRANCH   1  12
TORSDOF 7
ENDMDL
MODEL 6
REMARK VINA RESULT:      -6.1      2.115      2.689
REMARK  Name = 
REMARK  7 active torsions:
REMARK  status: ('A' for Active; 'I' for Inactive)
REMARK    1  A    between atoms: C_2  and  C_3
REMARK    2  A    between atoms: C_3  and  C_4
REMARK    3  A    between atoms: C_4  and  N_5
REMARK    4  A    between atoms: N_5  and  S_6
REMARK    5  A    between atoms: S_6  and  C_9
REMARK    6  A    between atoms: N_14  and  C_15
REMARK    7  A    between atoms: C_15  and  C_16
REMARK                            x       y       z     vdW  Elec       q    Type
REMARK                         _______ _______ _______ _____ _____    ______ ____
ROOT
ATOM      1  C   UNL     1       6.622   5.901  18.110  0.00  0.00    +0.000 C 
ENDROOT
BRANCH   1   3
ATOM      2  O   UNL     1       8.117   4.250  17.177  0.00  0.00    +0.000 OA
ATOM      3  C   UNL     1       7.356   5.183  16.989  0.00  0.00    +0.000 C 
ATOM      4  N   UNL     1       7.119   5.655  15.724  0.00  0.00    +0.000 N 
ATOM      5  H   UNL     1       6.605   6.520  15.630  0.00  0.00    +0.000 HD
BRANCH   4   6
ATOM      6  C   UNL     1       7.730   5.101  14.532  0.00  0.00    +0.000 C 
BRANCH   6   7
ATOM      7  C   UNL     1       6.689   4.405  13.727  0.00  0.00    +0.000 A 
ATOM      8  C   UNL     1       5.346   4.146  13.937  0.00  0.00    +0.000 A 
ATOM      9  C   UNL     1       4.892   3.425  12.807  0.00  0.00    +0.000 A 
ATOM     10  C   UNL     1       5.981   3.288  11.978  0.00  0.00    +0.000 A 
ATOM     11  O   UNL     1       7.075   3.880  12.525  0.00  0.00    +0.000 OA
ENDBRANCH   6   7
ENDBRANCH   4   6
ENDBRANCH   1   3
BRANCH   1  12
ATOM     12  C   UNL     1       5.741   4.926  18.881  0.00  0.00    +0.000 C 
BRANCH  12  13
ATOM     13  N   UNL     1       5.055   3.956  18.004  0.00  0.00    +0.000 NA
ATOM     14  H   UNL     1       5.244   2.981  18.244  0.00  0.00    +0.000 HD
BRANCH  13  15
ATOM     15  S   UNL     1       3.381   4.187  17.872  0.00  0.00    +0.000 S 
ATOM     16  O   UNL     1       3.147   5.595  17.793  0.00  0.00    +0.000 OA
ATOM     17  O   UNL     1       2.960   3.267  16.830  0.00  0.00    +0.000 OA
BRANCH  15  18
ATOM     18  C   UNL     1       2.572   3.617  19.341  0.00  0.00    +0.000 A 
ATOM     19  C   UNL     1       1.325   3.860  19.874  0.00  0.00    +0.000 A 
ATOM     20  C   UNL     1       1.149   3.271  21.157  0.00  0.00    +0.000 A 
ATOM     21  C   UNL     1       2.261   2.563  21.553  0.00  0.00    +0.000 A 
ATOM     22  S   UNL     1       3.499   2.598  20.367  0.00  0.00    +0.000 S 
ENDBRANCH  15  18
ENDBRANCH  13  15
ENDBRANCH  12  13
ENDBRANCH   1  12
TORSDOF 7
ENDMDL
MODEL 7
REMARK VINA RESULT:      -6.1      3.797      5.416
REMARK  Name = 
REMARK  7 active torsions:
REMARK  status: ('A' for Active; 'I' for Inactive)
REMARK    1  A    between atoms: C_2  and  C_3
REMARK    2  A    between atoms: C_3  and  C_4
REMARK    3  A    between atoms: C_4  and  N_5
REMARK    4  A    between atoms: N_5  and  S_6
REMARK    5  A    between atoms: S_6  and  C_9
REMARK    6  A    between atoms: N_14  and  C_15
REMARK    7  A    between atoms: C_15  and  C_16
REMARK                            x       y       z     vdW  Elec       q    Type
REMARK                         _______ _______ _______ _____ _____    ______ ____
ROOT
ATOM      1  C   UNL     1       7.719   5.592  18.546  0.00  0.00    +0.000 C 
ENDROOT
BRANCH   1   3
ATOM      2  O   UNL     1       7.021   6.978  16.696  0.00  0.00    +0.000 OA
ATOM      3  C   UNL     1       7.586   6.894  17.772  0.00  0.00    +0.000 C 
ATOM      4  N   UNL     1       8.155   7.994  18.357  0.00  0.00    +0.000 N 
ATOM      5  H   UNL     1       8.741   7.850  19.168  0.00  0.00    +0.000 HD
BRANCH   4   6
ATOM      6  C   UNL     1       8.135   9.319  17.769  0.00  0.00    +0.000 C 
BRANCH   6   7
ATOM      7  C   UNL     1       9.068  10.202  18.521  0.00  0.00    +0.000 A 
ATOM      8  C   UNL     1       9.304  10.400  19.869  0.00  0.00    +0.000 A 
ATOM      9  C   UNL     1      10.310  11.392  19.961  0.00  0.00    +0.000 A 
ATOM     10  C   UNL     1      10.626  11.738  18.669  0.00  0.00    +0.000 A 
ATOM     11  O   UNL     1       9.880  11.023  17.787  0.00  0.00    +0.000 OA
ENDBRANCH   6   7
ENDBRANCH   4   6
ENDBRANCH   1   3
BRANCH   1  12
ATOM     12  C   UNL     1       6.405   5.245  19.235  0.00  0.00    +0.000 C 
BRANCH  12  13
ATOM     13  N   UNL     1       5.257   6.001  18.695  0.00  0.00    +0.000 NA
ATOM     14  H   UNL     1       5.508   6.649  17.946  0.00  0.00    +0.000 HD
BRANCH  13  15
ATOM     15  S   UNL     1       3.954   5.040  18.191  0.00  0.00    +0.000 S 
ATOM     16  O   UNL     1       2.966   5.912  17.637  0.00  0.00    +0.000 OA
ATOM     17  O   UNL     1       4.560   3.962  17.429  0.00  0.00    +0.000 OA
BRANCH  15  18
ATOM     18  C   UNL     1       3.209   4.248  19.590  0.00  0.00    +0.000 A 
ATOM     19  C   UNL     1       2.322   4.689  20.549  0.00  0.00    +0.000 A 
ATOM     20  C   UNL     1       2.090   3.725  21.569  0.00  0.00    +0.000 A 
ATOM     21  C   UNL     1       2.783   2.558  21.340  0.00  0.00    +0.000 A 
ATOM     22  S   UNL     1       3.693   2.627  19.888  0.00  0.00    +0.000 S 
ENDBRANCH  15  18
ENDBRANCH  13  15
ENDBRANCH  12  13
ENDBRANCH   1  12
TORSDOF 7
ENDMDL
MODEL 8
REMARK VINA RESULT:      -6.1      2.465      6.680
REMARK  Name = 
REMARK  7 active torsions:
REMARK  status: ('A' for Active; 'I' for Inactive)
REMARK    1  A    between atoms: C_2  and  C_3
REMARK    2  A    between atoms: C_3  and  C_4
REMARK    3  A    between atoms: C_4  and  N_5
REMARK    4  A    between atoms: N_5  and  S_6
REMARK    5  A    between atoms: S_6  and  C_9
REMARK    6  A    between atoms: N_14  and  C_15
REMARK    7  A    between atoms: C_15  and  C_16
REMARK                            x       y       z     vdW  Elec       q    Type
REMARK                         _______ _______ _______ _____ _____    ______ ____
ROOT
ATOM      1  C   UNL     1       6.525   5.326  19.296  0.00  0.00    +0.000 C 
ENDROOT
BRANCH   1   3
ATOM      2  O   UNL     1       5.145   3.345  19.334  0.00  0.00    +0.000 OA
ATOM      3  C   UNL     1       5.238   4.539  19.109  0.00  0.00    +0.000 C 
ATOM      4  N   UNL     1       4.162   5.256  18.656  0.00  0.00    +0.000 N 
ATOM      5  H   UNL     1       4.323   6.203  18.339  0.00  0.00    +0.000 HD
BRANCH   4   6
ATOM      6  C   UNL     1       2.855   4.679  18.414  0.00  0.00    +0.000 C 
BRANCH   6   7
ATOM      7  C   UNL     1       2.359   4.047  19.668  0.00  0.00    +0.000 A 
ATOM      8  C   UNL     1       2.200   4.510  20.961  0.00  0.00    +0.000 A 
ATOM      9  C   UNL     1       1.697   3.425  21.719  0.00  0.00    +0.000 A 
ATOM     10  C   UNL     1       1.580   2.370  20.846  0.00  0.00    +0.000 A 
ATOM     11  O   UNL     1       1.978   2.736  19.599  0.00  0.00    +0.000 OA
ENDBRANCH   6   7
ENDBRANCH   4   6
ENDBRANCH   1   3
BRANCH   1  12
ATOM     12  C   UNL     1       7.591   4.844  18.319  0.00  0.00    +0.000 C 
BRANCH  12  13
ATOM     13  N   UNL     1       7.022   4.330  17.057  0.00  0.00    +0.000 NA
ATOM     14  H   UNL     1       6.199   3.738  17.188  0.00  0.00    +0.000 HD
BRANCH  13  15
ATOM     15  S   UNL     1       6.676   5.523  15.903  0.00  0.00    +0.000 S 
ATOM     16  O   UNL     1       5.297   5.872  16.045  0.00  0.00    +0.000 OA
ATOM     17  O   UNL     1       7.746   6.496  16.042  0.00  0.00    +0.000 OA
BRANCH  15  18
ATOM     18  C   UNL     1       6.869   4.860  14.271  0.00  0.00    +0.000 A 
ATOM     19  C   UNL     1       7.721   5.169  13.233  0.00  0.00    +0.000 A 
ATOM     20  C   UNL     1       7.429   4.443  12.045  0.00  0.00    +0.000 A 
ATOM     21  C   UNL     1       6.378   3.571  12.222  0.00  0.00    +0.000 A 
ATOM     22  S   UNL     1       5.766   3.622  13.823  0.00  0.00    +0.000 S 
ENDBRANCH  15  18
ENDBRANCH  13  15
ENDBRANCH  12  13
ENDBRANCH   1  12
TORSDOF 7
ENDMDL
MODEL 9
REMARK VINA RESULT:      -6.1      2.246      2.867
REMARK  Name = 
REMARK  7 active torsions:
REMARK  status: ('A' for Active; 'I' for Inactive)
REMARK    1  A    between atoms: C_2  and  C_3
REMARK    2  A    between atoms: C_3  and  C_4
REMARK    3  A    between atoms: C_4  and  N_5
REMARK    4  A    between atoms: N_5  and  S_6
REMARK    5  A    between atoms: S_6  and  C_9
REMARK    6  A    between atoms: N_14  and  C_15
REMARK    7  A    between atoms: C_15  and  C_16
REMARK                            x       y       z     vdW  Elec       q    Type
REMARK                         _______ _______ _______ _____ _____    ______ ____
ROOT
ATOM      1  C   UNL     1       5.942   4.651  18.561  0.00  0.00    +0.000 C 
ENDROOT
BRANCH   1   3
ATOM      2  O   UNL     1       8.079   4.154  17.551  0.00  0.00    +0.000 OA
ATOM      3  C   UNL     1       6.952   4.601  17.425  0.00  0.00    +0.000 C 
ATOM      4  N   UNL     1       6.524   5.105  16.225  0.00  0.00    +0.000 N 
ATOM      5  H   UNL     1       5.644   5.601  16.206  0.00  0.00    +0.000 HD
BRANCH   4   6
ATOM      6  C   UNL     1       7.345   5.146  15.032  0.00  0.00    +0.000 C 
BRANCH   6   7
ATOM      7  C   UNL     1       6.647   4.423  13.933  0.00  0.00    +0.000 A 
ATOM      8  C   UNL     1       7.047   3.990  12.682  0.00  0.00    +0.000 A 
ATOM      9  C   UNL     1       5.919   3.374  12.088  0.00  0.00    +0.000 A 
ATOM     10  C   UNL     1       4.903   3.468  13.009  0.00  0.00    +0.000 A 
ATOM     11  O   UNL     1       5.333   4.101  14.132  0.00  0.00    +0.000 OA
ENDBRANCH   6   7
ENDBRANCH   4   6
ENDBRANCH   1   3
BRANCH   1  12
ATOM     12  C   UNL     1       4.779   3.708  18.281  0.00  0.00    +0.000 C 
BRANCH  12  13
ATOM     13  N   UNL     1       3.836   4.241  17.278  0.00  0.00    +0.000 NA
ATOM     14  H   UNL     1       3.678   3.613  16.488  0.00  0.00    +0.000 HD
BRANCH  13  15
ATOM     15  S   UNL     1       2.342   4.736  17.908  0.00  0.00    +0.000 S 
ATOM     16  O   UNL     1       2.383   6.159  18.041  0.00  0.00    +0.000 OA
ATOM     17  O   UNL     1       1.351   4.057  17.091  0.00  0.00    +0.000 OA
BRANCH  15  18
ATOM     18  C   UNL     1       2.123   4.077  19.537  0.00  0.00    +0.000 A 
ATOM     19  C   UNL     1       2.477   4.540  20.786  0.00  0.00    +0.000 A 
ATOM     20  C   UNL     1       2.200   3.603  21.820  0.00  0.00    +0.000 A 
ATOM     21  C   UNL     1       1.608   2.460  21.332  0.00  0.00    +0.000 A 
ATOM     22  S   UNL     1       1.374   2.535  19.635  0.00  0.00    +0.000 S 
ENDBRANCH  15  18
ENDBRANCH  13  15
ENDBRANCH  12  13
ENDBRANCH   1  12
TORSDOF 7
ENDMDL
