MODEL 1
REMARK VINA RESULT:      -7.5      0.000      0.000
REMARK  Name = 
REMARK  5 active torsions:
REMARK  status: ('A' for Active; 'I' for Inactive)
REMARK    1  A    between atoms: N_1  and  C_2
REMARK    2  A    between atoms: N_5  and  C_6
REMARK    3  A    between atoms: C_13  and  C_14
REMARK    4  A    between atoms: C_14  and  O_16
REMARK    5  A    between atoms: N_18  and  C_19
REMARK                            x       y       z     vdW  Elec       q    Type
REMARK                         _______ _______ _______ _____ _____    ______ ____
ROOT
ATOM      1  C   UNL     1       1.877   8.045  19.367  0.00  0.00    +0.000 A 
ATOM      2  C   UNL     1       2.403   8.694  18.240  0.00  0.00    +0.000 A 
ATOM      3  F   UNL     1       2.005   9.926  17.888  0.00  0.00    +0.000 F 
ATOM      4  C   UNL     1       3.338   8.105  17.411  0.00  0.00    +0.000 A 
ATOM      5  C   UNL     1       3.830   6.846  17.735  0.00  0.00    +0.000 A 
ATOM      6  C   UNL     1       4.813   6.268  16.800  0.00  0.00    +0.000 A 
ATOM      7  O   UNL     1       5.181   6.872  15.797  0.00  0.00    +0.000 OA
ATOM      8  C   UNL     1       5.326   4.918  17.072  0.00  0.00    +0.000 A 
ATOM      9  C   UNL     1       4.900   4.325  18.197  0.00  0.00    +0.000 A 
ATOM     10  N   UNL     1       3.995   4.844  19.120  0.00  0.00    +0.000 N 
ATOM     11  C   UNL     1       3.356   6.103  18.841  0.00  0.00    +0.000 A 
ATOM     12  C   UNL     1       2.279   6.684  19.561  0.00  0.00    +0.000 A 
ATOM     13 CL   UNL     1       1.174   5.647  20.443  0.00  0.00    +0.000 Cl
ENDROOT
BRANCH   1  17
ATOM     14  C   UNL     1       0.638  10.525  21.737  0.00  0.00    +0.000 C 
ATOM     15  C   UNL     1      -0.626  10.275  20.918  0.00  0.00    +0.000 C 
ATOM     16  C   UNL     1      -0.118   9.532  19.692  0.00  0.00    +0.000 C 
ATOM     17  N   UNL     1       0.983   8.713  20.206  0.00  0.00    +0.000 N 
ATOM     18  C   UNL     1       1.428   9.221  21.517  0.00  0.00    +0.000 C 
BRANCH  14  19
ATOM     19  N   UNL     1       1.366  11.713  21.272  0.00  0.00    +0.000 NA
ATOM     20  H   UNL     1       2.318  11.695  21.631  0.00  0.00    +0.000 HD
ATOM     21  H   UNL     1       0.926  12.555  21.645  0.00  0.00    +0.000 HD
ENDBRANCH  14  19
ENDBRANCH   1  17
BRANCH  10  22
ATOM     22  C   UNL     1       3.603   3.924  20.222  0.00  0.00    +0.000 C 
ATOM     23  C   UNL     1       2.555   2.838  20.047  0.00  0.00    +0.000 C 
ATOM     24  C   UNL     1       3.964   2.463  20.321  0.00  0.00    +0.000 C 
ATOM     25  F   UNL     1       4.670   1.876  19.287  0.00  0.00    +0.000 F 
ENDBRANCH  10  22
BRANCH   8  26
ATOM     26  C   UNL     1       6.248   4.213  16.164  0.00  0.00    +0.000 C 
ATOM     27  O   UNL     1       5.905   3.262  15.472  0.00  0.00    +0.000 OA
BRANCH  26  28
ATOM     28  O   UNL     1       7.505   4.707  16.127  0.00  0.00    +0.000 OA
ATOM     29  H   UNL     1       7.991   4.641  16.987  0.00  0.00    +0.000 HD
ENDBRANCH  26  28
ENDBRANCH   8  26
TORSDOF 5
ENDMDL
MODEL 2
REMARK VINA RESULT:      -7.4      3.376      6.466
REMARK  Name = 
REMARK  5 active torsions:
REMARK  status: ('A' for Active; 'I' for Inactive)
REMARK    1  A    between atoms: N_1  and  C_2
REMARK    2  A    between atoms: N_5  and  C_6
REMARK    3  A    between atoms: C_13  and  C_14
REMARK    4  A    between atoms: C_14  and  O_16
REMARK    5  A    between atoms: N_18  and  C_19
REMARK                            x       y       z     vdW  Elec       q    Type
REMARK                         _______ _______ _______ _____ _____    ______ ____
ROOT
ATOM      1  C   UNL     1       4.575   5.460  17.381  0.00  0.00    +0.000 A 
ATOM      2  C   UNL     1       4.275   6.771  16.982  0.00  0.00    +0.000 A 
ATOM      3  F   UNL     1       4.835   7.321  15.895  0.00  0.00    +0.000 F 
ATOM      4  C   UNL     1       3.410   7.584  17.689  0.00  0.00    +0.000 A 
ATOM      5  C   UNL     1       2.758   7.069  18.804  0.00  0.00    +0.000 A 
ATOM      6  C   UNL     1       1.861   7.994  19.522  0.00  0.00    +0.000 A 
ATOM      7  O   UNL     1       1.695   9.150  19.148  0.00  0.00    +0.000 OA
ATOM      8  C   UNL     1       1.187   7.513  20.736  0.00  0.00    +0.000 A 
ATOM      9  C   UNL     1       1.395   6.231  21.075  0.00  0.00    +0.000 A 
ATOM     10  N   UNL     1       2.211   5.318  20.412  0.00  0.00    +0.000 N 
ATOM     11  C   UNL     1       3.001   5.766  19.296  0.00  0.00    +0.000 A 
ATOM     12  C   UNL     1       4.021   5.034  18.631  0.00  0.00    +0.000 A 
ATOM     13 CL   UNL     1       4.888   3.783  19.500  0.00  0.00    +0.000 Cl
ENDROOT
BRANCH   1  17
ATOM     14  C   UNL     1       6.380   4.297  14.434  0.00  0.00    +0.000 C 
ATOM     15  C   UNL     1       7.356   3.882  15.533  0.00  0.00    +0.000 C 
ATOM     16  C   UNL     1       6.863   4.639  16.756  0.00  0.00    +0.000 C 
ATOM     17  N   UNL     1       5.406   4.661  16.594  0.00  0.00    +0.000 N 
ATOM     18  C   UNL     1       5.044   4.359  15.197  0.00  0.00    +0.000 C 
BRANCH  14  19
ATOM     19  N   UNL     1       6.750   5.585  13.832  0.00  0.00    +0.000 NA
ATOM     20  H   UNL     1       7.645   5.497  13.356  0.00  0.00    +0.000 HD
ATOM     21  H   UNL     1       6.872   6.285  14.564  0.00  0.00    +0.000 HD
ENDBRANCH  14  19
ENDBRANCH   1  17
BRANCH  10  22
ATOM     22  C   UNL     1       2.357   3.991  21.072  0.00  0.00    +0.000 C 
ATOM     23  C   UNL     1       1.163   3.145  21.479  0.00  0.00    +0.000 C 
ATOM     24  C   UNL     1       2.088   2.653  20.429  0.00  0.00    +0.000 C 
ATOM     25  F   UNL     1       1.607   2.618  19.134  0.00  0.00    +0.000 F 
ENDBRANCH  10  22
BRANCH   8  26
ATOM     26  C   UNL     1       0.335   8.373  21.574  0.00  0.00    +0.000 C 
ATOM     27  O   UNL     1      -0.832   8.106  21.834  0.00  0.00    +0.000 OA
BRANCH  26  28
ATOM     28  O   UNL     1       0.940   9.478  22.064  0.00  0.00    +0.000 OA
ATOM     29  H   UNL     1       0.414   9.954  22.755  0.00  0.00    +0.000 HD
ENDBRANCH  26  28
ENDBRANCH   8  26
TORSDOF 5
ENDMDL
MODEL 3
REMARK VINA RESULT:      -7.2      3.427      6.378
REMARK  Name = 
REMARK  5 active torsions:
REMARK  status: ('A' for Active; 'I' for Inactive)
REMARK    1  A    between atoms: N_1  and  C_2
REMARK    2  A    between atoms: N_5  and  C_6
REMARK    3  A    between atoms: C_13  and  C_14
REMARK    4  A    between atoms: C_14  and  O_16
REMARK    5  A    between atoms: N_18  and  C_19
REMARK                            x       y       z     vdW  Elec       q    Type
REMARK                         _______ _______ _______ _____ _____    ______ ____
ROOT
ATOM      1  C   UNL     1       4.278   6.041  17.232  0.00  0.00    +0.000 A 
ATOM      2  C   UNL     1       3.863   7.341  16.906  0.00  0.00    +0.000 A 
ATOM      3  F   UNL     1       4.289   7.958  15.793  0.00  0.00    +0.000 F 
ATOM      4  C   UNL     1       3.016   8.076  17.713  0.00  0.00    +0.000 A 
ATOM      5  C   UNL     1       2.498   7.489  18.862  0.00  0.00    +0.000 A 
ATOM      6  C   UNL     1       1.614   8.333  19.686  0.00  0.00    +0.000 A 
ATOM      7  O   UNL     1       1.345   9.487  19.368  0.00  0.00    +0.000 OA
ATOM      8  C   UNL     1       1.081   7.775  20.936  0.00  0.00    +0.000 A 
ATOM      9  C   UNL     1       1.397   6.499  21.212  0.00  0.00    +0.000 A 
ATOM     10  N   UNL     1       2.205   5.660  20.450  0.00  0.00    +0.000 N 
ATOM     11  C   UNL     1       2.864   6.190  19.285  0.00  0.00    +0.000 A 
ATOM     12  C   UNL     1       3.864   5.545  18.510  0.00  0.00    +0.000 A 
ATOM     13 CL   UNL     1       4.880   4.327  19.256  0.00  0.00    +0.000 Cl
ENDROOT
BRANCH   1  17
ATOM     14  C   UNL     1       7.280   4.508  15.842  0.00  0.00    +0.000 C 
ATOM     15  C   UNL     1       6.225   3.501  15.389  0.00  0.00    +0.000 C 
ATOM     16  C   UNL     1       5.004   3.863  16.220  0.00  0.00    +0.000 C 
ATOM     17  N   UNL     1       5.083   5.321  16.348  0.00  0.00    +0.000 N 
ATOM     18  C   UNL     1       6.445   5.787  16.030  0.00  0.00    +0.000 C 
BRANCH  14  19
ATOM     19  N   UNL     1       7.948   4.081  17.078  0.00  0.00    +0.000 NA
ATOM     20  H   UNL     1       8.938   4.312  17.030  0.00  0.00    +0.000 HD
ATOM     21  H   UNL     1       7.887   3.066  17.171  0.00  0.00    +0.000 HD
ENDBRANCH  14  19
ENDBRANCH   1  17
BRANCH  10  22
ATOM     22  C   UNL     1       2.490   4.327  21.048  0.00  0.00    +0.000 C 
ATOM     23  C   UNL     1       1.390   3.377  21.489  0.00  0.00    +0.000 C 
ATOM     24  C   UNL     1       2.285   2.995  20.370  0.00  0.00    +0.000 C 
ATOM     25  F   UNL     1       1.731   2.967  19.104  0.00  0.00    +0.000 F 
ENDBRANCH  10  22
BRANCH   8  26
ATOM     26  C   UNL     1       0.256   8.554  21.875  0.00  0.00    +0.000 C 
ATOM     27  O   UNL     1      -0.906   8.267  22.138  0.00  0.00    +0.000 OA
BRANCH  26  28
ATOM     28  O   UNL     1       0.879   9.604  22.452  0.00  0.00    +0.000 OA
ATOM     29  H   UNL     1       0.864   9.589  23.442  0.00  0.00    +0.000 HD
ENDBRANCH  26  28
ENDBRANCH   8  26
TORSDOF 5
ENDMDL
MODEL 4
REMARK VINA RESULT:      -7.2      4.386      8.226
REMARK  Name = 
REMARK  5 active torsions:
REMARK  status: ('A' for Active; 'I' for Inactive)
REMARK    1  A    between atoms: N_1  and  C_2
REMARK    2  A    between atoms: N_5  and  C_6
REMARK    3  A    between atoms: C_13  and  C_14
REMARK    4  A    between atoms: C_14  and  O_16
REMARK    5  A    between atoms: N_18  and  C_19
REMARK                            x       y       z     vdW  Elec       q    Type
REMARK                         _______ _______ _______ _____ _____    ______ ____
ROOT
ATOM      1  C   UNL     1       2.083   7.280  19.560  0.00  0.00    +0.000 A 
ATOM      2  C   UNL     1       1.556   6.823  20.777  0.00  0.00    +0.000 A 
ATOM      3  F   UNL     1       1.692   5.547  21.167  0.00  0.00    +0.000 F 
ATOM      4  C   UNL     1       0.847   7.641  21.635  0.00  0.00    +0.000 A 
ATOM      5  C   UNL     1       0.700   8.987  21.319  0.00  0.00    +0.000 A 
ATOM      6  C   UNL     1      -0.081   9.800  22.269  0.00  0.00    +0.000 A 
ATOM      7  O   UNL     1      -0.565   9.315  23.286  0.00  0.00    +0.000 OA
ATOM      8  C   UNL     1      -0.307  11.218  21.954  0.00  0.00    +0.000 A 
ATOM      9  C   UNL     1       0.271  11.689  20.838  0.00  0.00    +0.000 A 
ATOM     10  N   UNL     1       1.037  10.964  19.929  0.00  0.00    +0.000 N 
ATOM     11  C   UNL     1       1.182   9.543  20.111  0.00  0.00    +0.000 A 
ATOM     12  C   UNL     1       1.754   8.625  19.192  0.00  0.00    +0.000 A 
ATOM     13 CL   UNL     1       1.740   8.999  17.479  0.00  0.00    +0.000 Cl
ENDROOT
BRANCH   1  17
ATOM     14  C   UNL     1       4.359   4.569  18.687  0.00  0.00    +0.000 C 
ATOM     15  C   UNL     1       3.429   4.544  17.476  0.00  0.00    +0.000 C 
ATOM     16  C   UNL     1       2.245   5.391  17.916  0.00  0.00    +0.000 C 
ATOM     17  N   UNL     1       2.846   6.426  18.762  0.00  0.00    +0.000 N 
ATOM     18  C   UNL     1       4.196   6.015  19.190  0.00  0.00    +0.000 C 
BRANCH  14  19
ATOM     19  N   UNL     1       3.972   3.572  19.694  0.00  0.00    +0.000 NA
ATOM     20  H   UNL     1       3.891   4.018  20.605  0.00  0.00    +0.000 HD
ATOM     21  H   UNL     1       4.702   2.864  19.777  0.00  0.00    +0.000 HD
ENDBRANCH  14  19
ENDBRANCH   1  17
BRANCH  10  22
ATOM     22  C   UNL     1       1.459  11.706  18.710  0.00  0.00    +0.000 C 
ATOM     23  C   UNL     1       0.999  13.124  18.415  0.00  0.00    +0.000 C 
ATOM     24  C   UNL     1       2.435  12.855  18.671  0.00  0.00    +0.000 C 
ATOM     25  F   UNL     1       2.960  13.327  19.860  0.00  0.00    +0.000 F 
ENDBRANCH  10  22
BRANCH   8  26
ATOM     26  C   UNL     1      -1.137  12.102  22.789  0.00  0.00    +0.000 C 
ATOM     27  O   UNL     1      -0.838  13.265  23.033  0.00  0.00    +0.000 OA
BRANCH  26  28
ATOM     28  O   UNL     1      -2.278  11.547  23.254  0.00  0.00    +0.000 OA
ATOM     29  H   UNL     1      -2.248  10.560  23.326  0.00  0.00    +0.000 HD
ENDBRANCH  26  28
ENDBRANCH   8  26
TORSDOF 5
ENDMDL
MODEL 5
REMARK VINA RESULT:      -7.0      2.754      3.894
REMARK  Name = 
REMARK  5 active torsions:
REMARK  status: ('A' for Active; 'I' for Inactive)
REMARK    1  A    between atoms: N_1  and  C_2
REMARK    2  A    between atoms: N_5  and  C_6
REMARK    3  A    between atoms: C_13  and  C_14
REMARK    4  A    between atoms: C_14  and  O_16
REMARK    5  A    between atoms: N_18  and  C_19
REMARK                            x       y       z     vdW  Elec       q    Type
REMARK                         _______ _______ _______ _____ _____    ______ ____
ROOT
ATOM      1  C   UNL     1       1.949   7.824  19.325  0.00  0.00    +0.000 A 
ATOM      2  C   UNL     1       1.492   7.116  20.447  0.00  0.00    +0.000 A 
ATOM      3  F   UNL     1       0.665   7.676  21.343  0.00  0.00    +0.000 F 
ATOM      4  C   UNL     1       1.878   5.817  20.715  0.00  0.00    +0.000 A 
ATOM      5  C   UNL     1       2.700   5.156  19.810  0.00  0.00    +0.000 A 
ATOM      6  C   UNL     1       3.087   3.778  20.164  0.00  0.00    +0.000 A 
ATOM      7  O   UNL     1       2.696   3.244  21.197  0.00  0.00    +0.000 OA
ATOM      8  C   UNL     1       3.995   3.054  19.264  0.00  0.00    +0.000 A 
ATOM      9  C   UNL     1       4.365   3.688  18.141  0.00  0.00    +0.000 A 
ATOM     10  N   UNL     1       4.003   4.975  17.755  0.00  0.00    +0.000 N 
ATOM     11  C   UNL     1       3.225   5.784  18.657  0.00  0.00    +0.000 A 
ATOM     12  C   UNL     1       2.932   7.166  18.518  0.00  0.00    +0.000 A 
ATOM     13 CL   UNL     1       4.024   8.190  17.604  0.00  0.00    +0.000 Cl
ENDROOT
BRANCH   1  17
ATOM     14  C   UNL     1      -0.322  10.460  18.235  0.00  0.00    +0.000 C 
ATOM     15  C   UNL     1       0.369  11.161  19.402  0.00  0.00    +0.000 C 
ATOM     16  C   UNL     1       1.069  10.029  20.137  0.00  0.00    +0.000 C 
ATOM     17  N   UNL     1       1.475   9.112  19.069  0.00  0.00    +0.000 N 
ATOM     18  C   UNL     1       0.717   9.396  17.837  0.00  0.00    +0.000 C 
BRANCH  14  19
ATOM     19  N   UNL     1      -1.609   9.874  18.633  0.00  0.00    +0.000 NA
ATOM     20  H   UNL     1      -1.818   9.072  18.043  0.00  0.00    +0.000 HD
ATOM     21  H   UNL     1      -2.357  10.552  18.485  0.00  0.00    +0.000 HD
ENDBRANCH  14  19
ENDBRANCH   1  17
BRANCH  10  22
ATOM     22  C   UNL     1       4.653   5.481  16.515  0.00  0.00    +0.000 C 
ATOM     23  C   UNL     1       6.156   5.668  16.397  0.00  0.00    +0.000 C 
ATOM     24  C   UNL     1       5.472   4.659  15.552  0.00  0.00    +0.000 C 
ATOM     25  F   UNL     1       5.712   3.329  15.842  0.00  0.00    +0.000 F 
ENDBRANCH  10  22
BRANCH   8  26
ATOM     26  C   UNL     1       4.510   1.705  19.559  0.00  0.00    +0.000 C 
ATOM     27  O   UNL     1       5.203   1.455  20.538  0.00  0.00    +0.000 OA
BRANCH  26  28
ATOM     28  O   UNL     1       4.142   0.746  18.682  0.00  0.00    +0.000 OA
ATOM     29  H   UNL     1       3.939   1.084  17.774  0.00  0.00    +0.000 HD
ENDBRANCH  26  28
ENDBRANCH   8  26
TORSDOF 5
ENDMDL
MODEL 6
REMARK VINA RESULT:      -6.8      1.343      1.482
REMARK  Name = 
REMARK  5 active torsions:
REMARK  status: ('A' for Active; 'I' for Inactive)
REMARK    1  A    between atoms: N_1  and  C_2
REMARK    2  A    between atoms: N_5  and  C_6
REMARK    3  A    between atoms: C_13  and  C_14
REMARK    4  A    between atoms: C_14  and  O_16
REMARK    5  A    between atoms: N_18  and  C_19
REMARK                            x       y       z     vdW  Elec       q    Type
REMARK                         _______ _______ _______ _____ _____    ______ ____
ROOT
ATOM      1  C   UNL     1       1.316   9.009  19.514  0.00  0.00    +0.000 A 
ATOM      2  C   UNL     1       2.012   9.406  18.363  0.00  0.00    +0.000 A 
ATOM      3  F   UNL     1       1.842  10.621  17.821  0.00  0.00    +0.000 F 
ATOM      4  C   UNL     1       2.892   8.571  17.701  0.00  0.00    +0.000 A 
ATOM      5  C   UNL     1       3.153   7.311  18.226  0.00  0.00    +0.000 A 
ATOM      6  C   UNL     1       4.088   6.465  17.462  0.00  0.00    +0.000 A 
ATOM      7  O   UNL     1       4.613   6.859  16.426  0.00  0.00    +0.000 OA
ATOM      8  C   UNL     1       4.359   5.105  17.949  0.00  0.00    +0.000 A 
ATOM      9  C   UNL     1       3.770   4.748  19.101  0.00  0.00    +0.000 A 
ATOM     10  N   UNL     1       2.902   5.522  19.866  0.00  0.00    +0.000 N 
ATOM     11  C   UNL     1       2.494   6.811  19.373  0.00  0.00    +0.000 A 
ATOM     12  C   UNL     1       1.479   7.644  19.916  0.00  0.00    +0.000 A 
ATOM     13 CL   UNL     1       0.167   6.920  20.825  0.00  0.00    +0.000 Cl
ENDROOT
BRANCH   1  17
ATOM     14  C   UNL     1       0.157  12.178  20.897  0.00  0.00    +0.000 C 
ATOM     15  C   UNL     1      -1.178  11.542  20.518  0.00  0.00    +0.000 C 
ATOM     16  C   UNL     1      -0.780  10.384  19.615  0.00  0.00    +0.000 C 
ATOM     17  N   UNL     1       0.488   9.915  20.180  0.00  0.00    +0.000 N 
ATOM     18  C   UNL     1       1.067  10.946  21.060  0.00  0.00    +0.000 C 
BRANCH  14  19
ATOM     19  N   UNL     1       0.636  13.103  19.861  0.00  0.00    +0.000 NA
ATOM     20  H   UNL     1       1.339  12.641  19.287  0.00  0.00    +0.000 HD
ATOM     21  H   UNL     1       1.092  13.904  20.297  0.00  0.00    +0.000 HD
ENDBRANCH  14  19
ENDBRANCH   1  17
BRANCH  10  22
ATOM     22  C   UNL     1       2.296   4.836  21.040  0.00  0.00    +0.000 C 
ATOM     23  C   UNL     1       1.250   3.743  20.898  0.00  0.00    +0.000 C 
ATOM     24  C   UNL     1       2.577   3.420  21.475  0.00  0.00    +0.000 C 
ATOM     25  F   UNL     1       3.422   2.640  20.709  0.00  0.00    +0.000 F 
ENDBRANCH  10  22
BRANCH   8  26
ATOM     26  C   UNL     1       5.212   4.149  17.223  0.00  0.00    +0.000 C 
ATOM     27  O   UNL     1       4.834   3.536  16.232  0.00  0.00    +0.000 OA
BRANCH  26  28
ATOM     28  O   UNL     1       6.463   4.009  17.715  0.00  0.00    +0.000 OA
ATOM     29  H   UNL     1       7.176   4.317  17.100  0.00  0.00    +0.000 HD
ENDBRANCH  26  28
ENDBRANCH   8  26
TORSDOF 5
ENDMDL
MODEL 7
REMARK VINA RESULT:      -6.8      1.222      1.303
REMARK  Name = 
REMARK  5 active torsions:
REMARK  status: ('A' for Active; 'I' for Inactive)
REMARK    1  A    between atoms: N_1  and  C_2
REMARK    2  A    between atoms: N_5  and  C_6
REMARK    3  A    between atoms: C_13  and  C_14
REMARK    4  A    between atoms: C_14  and  O_16
REMARK    5  A    between atoms: N_18  and  C_19
REMARK                            x       y       z     vdW  Elec       q    Type
REMARK                         _______ _______ _______ _____ _____    ______ ____
ROOT
ATOM      1  C   UNL     1       2.149   7.462  18.988  0.00  0.00    +0.000 A 
ATOM      2  C   UNL     1       2.847   8.334  18.140  0.00  0.00    +0.000 A 
ATOM      3  F   UNL     1       2.634   9.658  18.162  0.00  0.00    +0.000 F 
ATOM      4  C   UNL     1       3.775   7.891  17.216  0.00  0.00    +0.000 A 
ATOM      5  C   UNL     1       4.081   6.536  17.164  0.00  0.00    +0.000 A 
ATOM      6  C   UNL     1       5.067   6.127  16.146  0.00  0.00    +0.000 A 
ATOM      7  O   UNL     1       5.592   6.942  15.395  0.00  0.00    +0.000 OA
ATOM      8  C   UNL     1       5.388   4.699  16.017  0.00  0.00    +0.000 A 
ATOM      9  C   UNL     1       4.794   3.866  16.886  0.00  0.00    +0.000 A 
ATOM     10  N   UNL     1       3.880   4.211  17.877  0.00  0.00    +0.000 N 
ATOM     11  C   UNL     1       3.425   5.573  17.966  0.00  0.00    +0.000 A 
ATOM     12  C   UNL     1       2.365   6.062  18.775  0.00  0.00    +0.000 A 
ATOM     13 CL   UNL     1       1.069   4.978  19.244  0.00  0.00    +0.000 Cl
ENDROOT
BRANCH   1  17
ATOM     14  C   UNL     1       0.978   8.720  22.204  0.00  0.00    +0.000 C 
ATOM     15  C   UNL     1       0.104   9.538  21.256  0.00  0.00    +0.000 C 
ATOM     16  C   UNL     1       0.766   9.346  19.901  0.00  0.00    +0.000 C 
ATOM     17  N   UNL     1       1.270   7.971  19.946  0.00  0.00    +0.000 N 
ATOM     18  C   UNL     1       1.331   7.495  21.340  0.00  0.00    +0.000 C 
BRANCH  14  19
ATOM     19  N   UNL     1       2.165   9.469  22.636  0.00  0.00    +0.000 NA
ATOM     20  H   UNL     1       2.542   9.998  21.852  0.00  0.00    +0.000 HD
ATOM     21  H   UNL     1       2.894   8.819  22.931  0.00  0.00    +0.000 HD
ENDBRANCH  14  19
ENDBRANCH   1  17
BRANCH  10  22
ATOM     22  C   UNL     1       3.283   3.071  18.626  0.00  0.00    +0.000 C 
ATOM     23  C   UNL     1       3.755   1.638  18.445  0.00  0.00    +0.000 C 
ATOM     24  C   UNL     1       3.942   2.315  19.752  0.00  0.00    +0.000 C 
ATOM     25  F   UNL     1       5.236   2.641  20.110  0.00  0.00    +0.000 F 
ENDBRANCH  10  22
BRANCH   8  26
ATOM     26  C   UNL     1       6.295   4.171  14.984  0.00  0.00    +0.000 C 
ATOM     27  O   UNL     1       5.930   3.396  14.109  0.00  0.00    +0.000 OA
BRANCH  26  28
ATOM     28  O   UNL     1       7.567   4.624  15.051  0.00  0.00    +0.000 OA
ATOM     29  H   UNL     1       7.809   5.021  15.926  0.00  0.00    +0.000 HD
ENDBRANCH  26  28
ENDBRANCH   8  26
TORSDOF 5
ENDMDL
MODEL 8
REMARK VINA RESULT:      -6.7      2.773      3.826
REMARK  Name = 
REMARK  5 active torsions:
REMARK  status: ('A' for Active; 'I' for Inactive)
REMARK    1  A    between atoms: N_1  and  C_2
REMARK    2  A    between atoms: N_5  and  C_6
REMARK    3  A    between atoms: C_13  and  C_14
REMARK    4  A    between atoms: C_14  and  O_16
REMARK    5  A    between atoms: N_18  and  C_19
REMARK                            x       y       z     vdW  Elec       q    Type
REMARK                         _______ _______ _______ _____ _____    ______ ____
ROOT
ATOM      1  C   UNL     1       1.449   8.111  19.596  0.00  0.00    +0.000 A 
ATOM      2  C   UNL     1       1.047   7.344  20.699  0.00  0.00    +0.000 A 
ATOM      3  F   UNL     1       0.187   7.821  21.612  0.00  0.00    +0.000 F 
ATOM      4  C   UNL     1       1.522   6.068  20.932  0.00  0.00    +0.000 A 
ATOM      5  C   UNL     1       2.384   5.489  20.007  0.00  0.00    +0.000 A 
ATOM      6  C   UNL     1       2.866   4.132  20.324  0.00  0.00    +0.000 A 
ATOM      7  O   UNL     1       2.517   3.546  21.343  0.00  0.00    +0.000 OA
ATOM      8  C   UNL     1       3.818   3.496  19.402  0.00  0.00    +0.000 A 
ATOM      9  C   UNL     1       4.139   4.184  18.295  0.00  0.00    +0.000 A 
ATOM     10  N   UNL     1       3.687   5.453  17.945  0.00  0.00    +0.000 N 
ATOM     11  C   UNL     1       2.860   6.182  18.870  0.00  0.00    +0.000 A 
ATOM     12  C   UNL     1       2.472   7.545  18.769  0.00  0.00    +0.000 A 
ATOM     13 CL   UNL     1       3.487   8.665  17.880  0.00  0.00    +0.000 Cl
ENDROOT
BRANCH   1  17
ATOM     14  C   UNL     1       1.278  11.691  18.926  0.00  0.00    +0.000 C 
ATOM     15  C   UNL     1       0.010  11.221  18.218  0.00  0.00    +0.000 C 
ATOM     16  C   UNL     1       0.183   9.712  18.136  0.00  0.00    +0.000 C 
ATOM     17  N   UNL     1       0.887   9.370  19.375  0.00  0.00    +0.000 N 
ATOM     18  C   UNL     1       1.503  10.574  19.962  0.00  0.00    +0.000 C 
BRANCH  14  19
ATOM     19  N   UNL     1       2.404  11.834  17.994  0.00  0.00    +0.000 NA
ATOM     20  H   UNL     1       2.159  12.494  17.258  0.00  0.00    +0.000 HD
ATOM     21  H   UNL     1       2.589  10.941  17.537  0.00  0.00    +0.000 HD
ENDBRANCH  14  19
ENDBRANCH   1  17
BRANCH  10  22
ATOM     22  C   UNL     1       4.295   6.035  16.717  0.00  0.00    +0.000 C 
ATOM     23  C   UNL     1       5.774   6.368  16.616  0.00  0.00    +0.000 C 
ATOM     24  C   UNL     1       5.199   5.309  15.752  0.00  0.00    +0.000 C 
ATOM     25  F   UNL     1       5.564   4.005  16.029  0.00  0.00    +0.000 F 
ENDBRANCH  10  22
BRANCH   8  26
ATOM     26  C   UNL     1       4.425   2.179  19.659  0.00  0.00    +0.000 C 
ATOM     27  O   UNL     1       5.156   1.957  20.618  0.00  0.00    +0.000 OA
BRANCH  26  28
ATOM     28  O   UNL     1       4.099   1.213  18.772  0.00  0.00    +0.000 OA
ATOM     29  H   UNL     1       3.176   0.869  18.871  0.00  0.00    +0.000 HD
ENDBRANCH  26  28
ENDBRANCH   8  26
TORSDOF 5
ENDMDL
MODEL 9
REMARK VINA RESULT:      -6.5      1.297      1.465
REMARK  Name = 
REMARK  5 active torsions:
REMARK  status: ('A' for Active; 'I' for Inactive)
REMARK    1  A    between atoms: N_1  and  C_2
REMARK    2  A    between atoms: N_5  and  C_6
REMARK    3  A    between atoms: C_13  and  C_14
REMARK    4  A    between atoms: C_14  and  O_16
REMARK    5  A    between atoms: N_18  and  C_19
REMARK                            x       y       z     vdW  Elec       q    Type
REMARK                         _______ _______ _______ _____ _____    ______ ____
ROOT
ATOM      1  C   UNL     1       1.378   8.853  19.639  0.00  0.00    +0.000 A 
ATOM      2  C   UNL     1       2.010   9.305  18.471  0.00  0.00    +0.000 A 
ATOM      3  F   UNL     1       1.782  10.532  17.977  0.00  0.00    +0.000 F 
ATOM      4  C   UNL     1       2.882   8.518  17.743  0.00  0.00    +0.000 A 
ATOM      5  C   UNL     1       3.200   7.249  18.215  0.00  0.00    +0.000 A 
ATOM      6  C   UNL     1       4.123   6.455  17.383  0.00  0.00    +0.000 A 
ATOM      7  O   UNL     1       4.589   6.897  16.338  0.00  0.00    +0.000 OA
ATOM      8  C   UNL     1       4.452   5.089  17.813  0.00  0.00    +0.000 A 
ATOM      9  C   UNL     1       3.926   4.679  18.977  0.00  0.00    +0.000 A 
ATOM     10  N   UNL     1       3.073   5.404  19.805  0.00  0.00    +0.000 N 
ATOM     11  C   UNL     1       2.608   6.695  19.374  0.00  0.00    +0.000 A 
ATOM     12  C   UNL     1       1.597   7.481  19.988  0.00  0.00    +0.000 A 
ATOM     13 CL   UNL     1       0.347   6.692  20.930  0.00  0.00    +0.000 Cl
ENDROOT
BRANCH   1  17
ATOM     14  C   UNL     1      -0.547  10.148  22.452  0.00  0.00    +0.000 C 
ATOM     15  C   UNL     1      -0.076  11.456  21.819  0.00  0.00    +0.000 C 
ATOM     16  C   UNL     1       1.019  11.016  20.859  0.00  0.00    +0.000 C 
ATOM     17  N   UNL     1       0.557   9.714  20.369  0.00  0.00    +0.000 N 
ATOM     18  C   UNL     1      -0.484   9.173  21.262  0.00  0.00    +0.000 C 
BRANCH  14  19
ATOM     19  N   UNL     1       0.317   9.739  23.567  0.00  0.00    +0.000 NA
ATOM     20  H   UNL     1       0.494  10.536  24.175  0.00  0.00    +0.000 HD
ATOM     21  H   UNL     1       1.223   9.435  23.208  0.00  0.00    +0.000 HD
ENDBRANCH  14  19
ENDBRANCH   1  17
BRANCH  10  22
ATOM     22  C   UNL     1       2.539   4.664  20.982  0.00  0.00    +0.000 C 
ATOM     23  C   UNL     1       1.369   3.701  20.880  0.00  0.00    +0.000 C 
ATOM     24  C   UNL     1       2.712   3.190  21.248  0.00  0.00    +0.000 C 
ATOM     25  F   UNL     1       3.366   2.413  20.311  0.00  0.00    +0.000 F 
ENDBRANCH  10  22
BRANCH   8  26
ATOM     26  C   UNL     1       5.297   4.181  17.019  0.00  0.00    +0.000 C 
ATOM     27  O   UNL     1       4.903   3.619  16.004  0.00  0.00    +0.000 OA
BRANCH  26  28
ATOM     28  O   UNL     1       6.560   4.026  17.476  0.00  0.00    +0.000 OA
ATOM     29  H   UNL     1       6.923   4.823  17.939  0.00  0.00    +0.000 HD
ENDBRANCH  26  28
ENDBRANCH   8  26
TORSDOF 5
ENDMDL
