MODEL 1
REMARK VINA RESULT:      -7.4      0.000      0.000
REMARK  Name = 
REMARK  8 active torsions:
REMARK  status: ('A' for Active; 'I' for Inactive)
REMARK    1  A    between atoms: C_1  and  C_2
REMARK    2  A    between atoms: C_6  and  C_7
REMARK    3  A    between atoms: C_8  and  O_9
REMARK    4  A    between atoms: O_9  and  C_10
REMARK    5  A    between atoms: C_10  and  C_11
REMARK    6  A    between atoms: N_13  and  C_14
REMARK    7  A    between atoms: N_13  and  C_22
REMARK    8  A    between atoms: C_14  and  C_15
REMARK                            x       y       z     vdW  Elec       q    Type
REMARK                         _______ _______ _______ _____ _____    ______ ____
ROOT
ATOM      1  C   UNL     1       2.114   6.603  20.094  0.00  0.00    +0.000 C 
ATOM      2  O   UNL     1       1.553   5.780  20.819  0.00  0.00    +0.000 OA
ATOM      3  N   UNL     1       2.952   6.204  19.049  0.00  0.00    +0.000 N 
ENDROOT
BRANCH   3   4
ATOM      4  C   UNL     1       2.976   4.799  18.549  0.00  0.00    +0.000 C 
ATOM      5  C   UNL     1       1.744   4.279  17.763  0.00  0.00    +0.000 C 
ATOM      6  C   UNL     1       0.950   3.324  18.645  0.00  0.00    +0.000 C 
ATOM      7  S   UNL     1       2.176   2.466  19.593  0.00  0.00    +0.000 S 
ATOM      8  O   UNL     1       2.699   1.380  18.789  0.00  0.00    +0.000 OA
ATOM      9  O   UNL     1       1.696   2.256  20.942  0.00  0.00    +0.000 OA
ATOM     10  C   UNL     1       3.380   3.764  19.607  0.00  0.00    +0.000 C 
ENDBRANCH   3   4
BRANCH   1  11
ATOM     11  C   UNL     1       1.758   8.106  20.215  0.00  0.00    +0.000 C 
BRANCH  11  12
ATOM     12  O   UNL     1       0.489   8.373  20.794  0.00  0.00    +0.000 OA
BRANCH  12  20
ATOM     13  C   UNL     1      -0.278   9.896  18.220  0.00  0.00    +0.000 C 
ATOM     14  C   UNL     1      -0.259  10.437  19.623  0.00  0.00    +0.000 A 
ATOM     15  C   UNL     1      -0.658  11.782  19.771  0.00  0.00    +0.000 A 
ATOM     16  C   UNL     1      -0.820  12.358  21.026  0.00  0.00    +0.000 A 
ATOM     17  C   UNL     1      -0.600  11.591  22.161  0.00  0.00    +0.000 A 
ATOM     18  C   UNL     1      -0.179  10.253  22.053  0.00  0.00    +0.000 A 
ATOM     19  C   UNL     1       0.018   9.461  23.319  0.00  0.00    +0.000 C 
ATOM     20  C   UNL     1       0.054   9.683  20.776  0.00  0.00    +0.000 A 
ENDBRANCH  12  20
ENDBRANCH  11  12
ENDBRANCH   1  11
BRANCH   3  21
ATOM     21  C   UNL     1       4.078   7.066  18.649  0.00  0.00    +0.000 C 
BRANCH  21  22
ATOM     22  C   UNL     1       4.977   6.497  17.574  0.00  0.00    +0.000 A 
ATOM     23  C   UNL     1       6.102   5.716  17.877  0.00  0.00    +0.000 A 
ATOM     24  C   UNL     1       6.835   5.096  16.862  0.00  0.00    +0.000 A 
ATOM     25  C   UNL     1       6.454   5.255  15.533  0.00  0.00    +0.000 A 
ATOM     26 CL   UNL     1       7.334   4.458  14.287  0.00  0.00    +0.000 Cl
ATOM     27  C   UNL     1       5.356   6.045  15.208  0.00  0.00    +0.000 A 
ATOM     28  C   UNL     1       4.616   6.657  16.224  0.00  0.00    +0.000 A 
ENDBRANCH  21  22
ENDBRANCH   3  21
TORSDOF 6
ENDMDL
MODEL 2
REMARK VINA RESULT:      -7.4      4.081      8.412
REMARK  Name = 
REMARK  8 active torsions:
REMARK  status: ('A' for Active; 'I' for Inactive)
REMARK    1  A    between atoms: C_1  and  C_2
REMARK    2  A    between atoms: C_6  and  C_7
REMARK    3  A    between atoms: C_8  and  O_9
REMARK    4  A    between atoms: O_9  and  C_10
REMARK    5  A    between atoms: C_10  and  C_11
REMARK    6  A    between atoms: N_13  and  C_14
REMARK    7  A    between atoms: N_13  and  C_22
REMARK    8  A    between atoms: C_14  and  C_15
REMARK                            x       y       z     vdW  Elec       q    Type
REMARK                         _______ _______ _______ _____ _____    ______ ____
ROOT
ATOM      1  C   UNL     1       1.084   8.711  20.299  0.00  0.00    +0.000 C 
ATOM      2  O   UNL     1       0.667   8.128  21.301  0.00  0.00    +0.000 OA
ATOM      3  N   UNL     1       1.026  10.103  20.186  0.00  0.00    +0.000 N 
ENDROOT
BRANCH   3   4
ATOM      4  C   UNL     1       0.760  10.979  21.363  0.00  0.00    +0.000 C 
ATOM      5  C   UNL     1      -0.627  10.881  22.052  0.00  0.00    +0.000 C 
ATOM      6  C   UNL     1      -1.452  12.112  21.700  0.00  0.00    +0.000 C 
ATOM      7  S   UNL     1      -0.277  13.435  21.627  0.00  0.00    +0.000 S 
ATOM      8  O   UNL     1      -0.038  13.910  22.974  0.00  0.00    +0.000 OA
ATOM      9  O   UNL     1      -0.618  14.337  20.547  0.00  0.00    +0.000 OA
ATOM     10  C   UNL     1       1.115  12.455  21.140  0.00  0.00    +0.000 C 
ENDBRANCH   3   4
BRANCH   1  11
ATOM     11  C   UNL     1       1.849   7.918  19.209  0.00  0.00    +0.000 C 
BRANCH  11  12
ATOM     12  O   UNL     1       2.641   6.847  19.698  0.00  0.00    +0.000 OA
BRANCH  12  20
ATOM     13  C   UNL     1       4.745   6.626  17.449  0.00  0.00    +0.000 C 
ATOM     14  C   UNL     1       3.690   5.616  17.807  0.00  0.00    +0.000 A 
ATOM     15  C   UNL     1       3.683   4.432  17.039  0.00  0.00    +0.000 A 
ATOM     16  C   UNL     1       2.853   3.363  17.360  0.00  0.00    +0.000 A 
ATOM     17  C   UNL     1       2.023   3.454  18.467  0.00  0.00    +0.000 A 
ATOM     18  C   UNL     1       1.986   4.626  19.243  0.00  0.00    +0.000 A 
ATOM     19  C   UNL     1       1.085   4.656  20.450  0.00  0.00    +0.000 C 
ATOM     20  C   UNL     1       2.779   5.744  18.879  0.00  0.00    +0.000 A 
ENDBRANCH  12  20
ENDBRANCH  11  12
ENDBRANCH   1  11
BRANCH   3  21
ATOM     21  C   UNL     1       0.878  10.720  18.857  0.00  0.00    +0.000 C 
BRANCH  21  22
ATOM     22  C   UNL     1      -0.528  10.728  18.300  0.00  0.00    +0.000 A 
ATOM     23  C   UNL     1      -1.386  11.828  18.452  0.00  0.00    +0.000 A 
ATOM     24  C   UNL     1      -2.628  11.857  17.815  0.00  0.00    +0.000 A 
ATOM     25  C   UNL     1      -3.028  10.785  17.023  0.00  0.00    +0.000 A 
ATOM     26 CL   UNL     1      -4.543  10.841  16.206  0.00  0.00    +0.000 Cl
ATOM     27  C   UNL     1      -2.205   9.674  16.877  0.00  0.00    +0.000 A 
ATOM     28  C   UNL     1      -0.957   9.649  17.506  0.00  0.00    +0.000 A 
ENDBRANCH  21  22
ENDBRANCH   3  21
TORSDOF 6
ENDMDL
MODEL 3
REMARK VINA RESULT:      -7.4      2.925      4.456
REMARK  Name = 
REMARK  8 active torsions:
REMARK  status: ('A' for Active; 'I' for Inactive)
REMARK    1  A    between atoms: C_1  and  C_2
REMARK    2  A    between atoms: C_6  and  C_7
REMARK    3  A    between atoms: C_8  and  O_9
REMARK    4  A    between atoms: O_9  and  C_10
REMARK    5  A    between atoms: C_10  and  C_11
REMARK    6  A    between atoms: N_13  and  C_14
REMARK    7  A    between atoms: N_13  and  C_22
REMARK    8  A    between atoms: C_14  and  C_15
REMARK                            x       y       z     vdW  Elec       q    Type
REMARK                         _______ _______ _______ _____ _____    ______ ____
ROOT
ATOM      1  C   UNL     1       2.675   8.285  17.878  0.00  0.00    +0.000 C 
ATOM      2  O   UNL     1       3.448   9.122  17.408  0.00  0.00    +0.000 OA
ATOM      3  N   UNL     1       2.997   6.925  17.903  0.00  0.00    +0.000 N 
ENDROOT
BRANCH   3   4
ATOM      4  C   UNL     1       4.388   6.440  17.667  0.00  0.00    +0.000 C 
ATOM      5  C   UNL     1       4.637   5.478  16.476  0.00  0.00    +0.000 C 
ATOM      6  C   UNL     1       4.870   4.069  17.006  0.00  0.00    +0.000 C 
ATOM      7  S   UNL     1       5.755   4.302  18.522  0.00  0.00    +0.000 S 
ATOM      8  O   UNL     1       7.160   4.479  18.210  0.00  0.00    +0.000 OA
ATOM      9  O   UNL     1       5.307   3.340  19.507  0.00  0.00    +0.000 OA
ATOM     10  C   UNL     1       5.082   5.890  18.921  0.00  0.00    +0.000 C 
ENDBRANCH   3   4
BRANCH   1  11
ATOM     11  C   UNL     1       1.393   8.749  18.615  0.00  0.00    +0.000 C 
BRANCH  11  12
ATOM     12  O   UNL     1       1.445  10.074  19.122  0.00  0.00    +0.000 OA
BRANCH  12  20
ATOM     13  C   UNL     1       1.512   8.682  21.877  0.00  0.00    +0.000 C 
ATOM     14  C   UNL     1       0.547   9.740  21.418  0.00  0.00    +0.000 A 
ATOM     15  C   UNL     1      -0.415  10.151  22.365  0.00  0.00    +0.000 A 
ATOM     16  C   UNL     1      -1.271  11.218  22.116  0.00  0.00    +0.000 A 
ATOM     17  C   UNL     1      -1.169  11.906  20.916  0.00  0.00    +0.000 A 
ATOM     18  C   UNL     1      -0.238  11.513  19.938  0.00  0.00    +0.000 A 
ATOM     19  C   UNL     1      -0.154  12.314  18.666  0.00  0.00    +0.000 C 
ATOM     20  C   UNL     1       0.589  10.382  20.160  0.00  0.00    +0.000 A 
ENDBRANCH  12  20
ENDBRANCH  11  12
ENDBRANCH   1  11
BRANCH   3  21
ATOM     21  C   UNL     1       1.924   5.920  17.818  0.00  0.00    +0.000 C 
BRANCH  21  22
ATOM     22  C   UNL     1       1.869   4.934  18.963  0.00  0.00    +0.000 A 
ATOM     23  C   UNL     1       2.164   5.304  20.284  0.00  0.00    +0.000 A 
ATOM     24  C   UNL     1       1.976   4.405  21.336  0.00  0.00    +0.000 A 
ATOM     25  C   UNL     1       1.497   3.124  21.078  0.00  0.00    +0.000 A 
ATOM     26 CL   UNL     1       1.229   2.031  22.381  0.00  0.00    +0.000 Cl
ATOM     27  C   UNL     1       1.221   2.727  19.774  0.00  0.00    +0.000 A 
ATOM     28  C   UNL     1       1.399   3.630  18.722  0.00  0.00    +0.000 A 
ENDBRANCH  21  22
ENDBRANCH   3  21
TORSDOF 6
ENDMDL
MODEL 4
REMARK VINA RESULT:      -7.4      3.675      7.016
REMARK  Name = 
REMARK  8 active torsions:
REMARK  status: ('A' for Active; 'I' for Inactive)
REMARK    1  A    between atoms: C_1  and  C_2
REMARK    2  A    between atoms: C_6  and  C_7
REMARK    3  A    between atoms: C_8  and  O_9
REMARK    4  A    between atoms: O_9  and  C_10
REMARK    5  A    between atoms: C_10  and  C_11
REMARK    6  A    between atoms: N_13  and  C_14
REMARK    7  A    between atoms: N_13  and  C_22
REMARK    8  A    between atoms: C_14  and  C_15
REMARK                            x       y       z     vdW  Elec       q    Type
REMARK                         _______ _______ _______ _____ _____    ______ ____
ROOT
ATOM      1  C   UNL     1       4.434   3.790  17.452  0.00  0.00    +0.000 C 
ATOM      2  O   UNL     1       5.614   3.629  17.768  0.00  0.00    +0.000 OA
ATOM      3  N   UNL     1       3.928   5.054  17.139  0.00  0.00    +0.000 N 
ENDROOT
BRANCH   3   4
ATOM      4  C   UNL     1       4.822   6.215  16.860  0.00  0.00    +0.000 C 
ATOM      5  C   UNL     1       5.790   6.122  15.652  0.00  0.00    +0.000 C 
ATOM      6  C   UNL     1       7.210   5.910  16.160  0.00  0.00    +0.000 C 
ATOM      7  S   UNL     1       7.298   6.857  17.655  0.00  0.00    +0.000 S 
ATOM      8  O   UNL     1       7.566   8.238  17.307  0.00  0.00    +0.000 OA
ATOM      9  O   UNL     1       8.087   6.149  18.640  0.00  0.00    +0.000 OA
ATOM     10  C   UNL     1       5.586   6.727  18.089  0.00  0.00    +0.000 C 
ENDBRANCH   3   4
BRANCH   1  11
ATOM     11  C   UNL     1       3.523   2.558  17.223  0.00  0.00    +0.000 C 
BRANCH  11  12
ATOM     12  O   UNL     1       3.398   1.693  18.342  0.00  0.00    +0.000 OA
BRANCH  12  20
ATOM     13  C   UNL     1       0.365   2.272  18.346  0.00  0.00    +0.000 C 
ATOM     14  C   UNL     1       1.335   2.507  19.471  0.00  0.00    +0.000 A 
ATOM     15  C   UNL     1       0.786   3.027  20.662  0.00  0.00    +0.000 A 
ATOM     16  C   UNL     1       1.547   3.156  21.818  0.00  0.00    +0.000 A 
ATOM     17  C   UNL     1       2.873   2.750  21.809  0.00  0.00    +0.000 A 
ATOM     18  C   UNL     1       3.462   2.246  20.635  0.00  0.00    +0.000 A 
ATOM     19  C   UNL     1       4.898   1.795  20.692  0.00  0.00    +0.000 C 
ATOM     20  C   UNL     1       2.709   2.179  19.435  0.00  0.00    +0.000 A 
ENDBRANCH  12  20
ENDBRANCH  11  12
ENDBRANCH   1  11
BRANCH   3  21
ATOM     21  C   UNL     1       2.514   5.361  17.415  0.00  0.00    +0.000 C 
BRANCH  21  22
ATOM     22  C   UNL     1       2.277   6.459  18.428  0.00  0.00    +0.000 A 
ATOM     23  C   UNL     1       2.009   7.782  18.049  0.00  0.00    +0.000 A 
ATOM     24  C   UNL     1       1.664   8.743  19.002  0.00  0.00    +0.000 A 
ATOM     25  C   UNL     1       1.589   8.391  20.347  0.00  0.00    +0.000 A 
ATOM     26 CL   UNL     1       1.124   9.566  21.516  0.00  0.00    +0.000 Cl
ATOM     27  C   UNL     1       1.873   7.090  20.749  0.00  0.00    +0.000 A 
ATOM     28  C   UNL     1       2.208   6.126  19.794  0.00  0.00    +0.000 A 
ENDBRANCH  21  22
ENDBRANCH   3  21
TORSDOF 6
ENDMDL
MODEL 5
REMARK VINA RESULT:      -7.4      2.969      4.562
REMARK  Name = 
REMARK  8 active torsions:
REMARK  status: ('A' for Active; 'I' for Inactive)
REMARK    1  A    between atoms: C_1  and  C_2
REMARK    2  A    between atoms: C_6  and  C_7
REMARK    3  A    between atoms: C_8  and  O_9
REMARK    4  A    between atoms: O_9  and  C_10
REMARK    5  A    between atoms: C_10  and  C_11
REMARK    6  A    between atoms: N_13  and  C_14
REMARK    7  A    between atoms: N_13  and  C_22
REMARK    8  A    between atoms: C_14  and  C_15
REMARK                            x       y       z     vdW  Elec       q    Type
REMARK                         _______ _______ _______ _____ _____    ______ ____
ROOT
ATOM      1  C   UNL     1       2.622   8.332  17.910  0.00  0.00    +0.000 C 
ATOM      2  O   UNL     1       3.433   9.186  17.548  0.00  0.00    +0.000 OA
ATOM      3  N   UNL     1       2.940   6.971  17.898  0.00  0.00    +0.000 N 
ENDROOT
BRANCH   3   4
ATOM      4  C   UNL     1       4.346   6.491  17.758  0.00  0.00    +0.000 C 
ATOM      5  C   UNL     1       4.694   5.583  16.549  0.00  0.00    +0.000 C 
ATOM      6  C   UNL     1       4.881   4.151  17.033  0.00  0.00    +0.000 C 
ATOM      7  S   UNL     1       5.635   4.310  18.627  0.00  0.00    +0.000 S 
ATOM      8  O   UNL     1       7.061   4.495  18.443  0.00  0.00    +0.000 OA
ATOM      9  O   UNL     1       5.104   3.307  19.526  0.00  0.00    +0.000 OA
ATOM     10  C   UNL     1       4.931   5.882  19.040  0.00  0.00    +0.000 C 
ENDBRANCH   3   4
BRANCH   1  11
ATOM     11  C   UNL     1       1.283   8.766  18.557  0.00  0.00    +0.000 C 
BRANCH  11  12
ATOM     12  O   UNL     1       0.523   9.690  17.790  0.00  0.00    +0.000 OA
BRANCH  12  20
ATOM     13  C   UNL     1       1.408  11.621  20.031  0.00  0.00    +0.000 C 
ATOM     14  C   UNL     1       0.006  11.376  19.545  0.00  0.00    +0.000 A 
ATOM     15  C   UNL     1      -1.006  12.134  20.172  0.00  0.00    +0.000 A 
ATOM     16  C   UNL     1      -2.320  12.106  19.720  0.00  0.00    +0.000 A 
ATOM     17  C   UNL     1      -2.644  11.329  18.617  0.00  0.00    +0.000 A 
ATOM     18  C   UNL     1      -1.668  10.544  17.979  0.00  0.00    +0.000 A 
ATOM     19  C   UNL     1      -2.073   9.742  16.770  0.00  0.00    +0.000 C 
ATOM     20  C   UNL     1      -0.341  10.515  18.481  0.00  0.00    +0.000 A 
ENDBRANCH  12  20
ENDBRANCH  11  12
ENDBRANCH   1  11
BRANCH   3  21
ATOM     21  C   UNL     1       1.877   5.976  17.674  0.00  0.00    +0.000 C 
BRANCH  21  22
ATOM     22  C   UNL     1       1.676   4.981  18.795  0.00  0.00    +0.000 A 
ATOM     23  C   UNL     1       1.417   3.624  18.553  0.00  0.00    +0.000 A 
ATOM     24  C   UNL     1       1.368   2.708  19.606  0.00  0.00    +0.000 A 
ATOM     25  C   UNL     1       1.572   3.141  20.913  0.00  0.00    +0.000 A 
ATOM     26 CL   UNL     1       1.550   2.004  22.206  0.00  0.00    +0.000 Cl
ATOM     27  C   UNL     1       1.806   4.485  21.180  0.00  0.00    +0.000 A 
ATOM     28  C   UNL     1       1.866   5.401  20.125  0.00  0.00    +0.000 A 
ENDBRANCH  21  22
ENDBRANCH   3  21
TORSDOF 6
ENDMDL
MODEL 6
REMARK VINA RESULT:      -7.3      2.893      4.182
REMARK  Name = 
REMARK  8 active torsions:
REMARK  status: ('A' for Active; 'I' for Inactive)
REMARK    1  A    between atoms: C_1  and  C_2
REMARK    2  A    between atoms: C_6  and  C_7
REMARK    3  A    between atoms: C_8  and  O_9
REMARK    4  A    between atoms: O_9  and  C_10
REMARK    5  A    between atoms: C_10  and  C_11
REMARK    6  A    between atoms: N_13  and  C_14
REMARK    7  A    between atoms: N_13  and  C_22
REMARK    8  A    between atoms: C_14  and  C_15
REMARK                            x       y       z     vdW  Elec       q    Type
REMARK                         _______ _______ _______ _____ _____    ______ ____
ROOT
ATOM      1  C   UNL     1       2.702   8.246  17.874  0.00  0.00    +0.000 C 
ATOM      2  O   UNL     1       3.515   9.088  17.489  0.00  0.00    +0.000 OA
ATOM      3  N   UNL     1       2.997   6.880  17.848  0.00  0.00    +0.000 N 
ENDROOT
BRANCH   3   4
ATOM      4  C   UNL     1       4.389   6.377  17.661  0.00  0.00    +0.000 C 
ATOM      5  C   UNL     1       4.665   5.400  16.488  0.00  0.00    +0.000 C 
ATOM      6  C   UNL     1       4.865   3.995  17.041  0.00  0.00    +0.000 C 
ATOM      7  S   UNL     1       5.704   4.233  18.582  0.00  0.00    +0.000 S 
ATOM      8  O   UNL     1       7.120   4.392  18.313  0.00  0.00    +0.000 OA
ATOM      9  O   UNL     1       5.213   3.287  19.561  0.00  0.00    +0.000 OA
ATOM     10  C   UNL     1       5.036   5.833  18.942  0.00  0.00    +0.000 C 
ENDBRANCH   3   4
BRANCH   1  11
ATOM     11  C   UNL     1       1.392   8.700  18.565  0.00  0.00    +0.000 C 
BRANCH  11  12
ATOM     12  O   UNL     1       1.527   9.032  19.939  0.00  0.00    +0.000 OA
BRANCH  12  20
ATOM     13  C   UNL     1       1.754  11.847  18.689  0.00  0.00    +0.000 C 
ATOM     14  C   UNL     1       0.934  11.448  19.885  0.00  0.00    +0.000 A 
ATOM     15  C   UNL     1       0.172  12.475  20.480  0.00  0.00    +0.000 A 
ATOM     16  C   UNL     1      -0.735  12.209  21.500  0.00  0.00    +0.000 A 
ATOM     17  C   UNL     1      -0.907  10.903  21.934  0.00  0.00    +0.000 A 
ATOM     18  C   UNL     1      -0.149   9.856  21.381  0.00  0.00    +0.000 A 
ATOM     19  C   UNL     1      -0.399   8.455  21.873  0.00  0.00    +0.000 C 
ATOM     20  C   UNL     1       0.826  10.133  20.389  0.00  0.00    +0.000 A 
ENDBRANCH  12  20
ENDBRANCH  11  12
ENDBRANCH   1  11
BRANCH   3  21
ATOM     21  C   UNL     1       1.911   5.904  17.654  0.00  0.00    +0.000 C 
BRANCH  21  22
ATOM     22  C   UNL     1       1.704   4.933  18.795  0.00  0.00    +0.000 A 
ATOM     23  C   UNL     1       1.424   3.575  18.580  0.00  0.00    +0.000 A 
ATOM     24  C   UNL     1       1.370   2.680  19.651  0.00  0.00    +0.000 A 
ATOM     25  C   UNL     1       1.589   3.133  20.948  0.00  0.00    +0.000 A 
ATOM     26 CL   UNL     1       1.561   2.021  22.262  0.00  0.00    +0.000 Cl
ATOM     27  C   UNL     1       1.844   4.479  21.188  0.00  0.00    +0.000 A 
ATOM     28  C   UNL     1       1.909   5.374  20.116  0.00  0.00    +0.000 A 
ENDBRANCH  21  22
ENDBRANCH   3  21
TORSDOF 6
ENDMDL
MODEL 7
REMARK VINA RESULT:      -7.3      3.600      7.010
REMARK  Name = 
REMARK  8 active torsions:
REMARK  status: ('A' for Active; 'I' for Inactive)
REMARK    1  A    between atoms: C_1  and  C_2
REMARK    2  A    between atoms: C_6  and  C_7
REMARK    3  A    between atoms: C_8  and  O_9
REMARK    4  A    between atoms: O_9  and  C_10
REMARK    5  A    between atoms: C_10  and  C_11
REMARK    6  A    between atoms: N_13  and  C_14
REMARK    7  A    between atoms: N_13  and  C_22
REMARK    8  A    between atoms: C_14  and  C_15
REMARK                            x       y       z     vdW  Elec       q    Type
REMARK                         _______ _______ _______ _____ _____    ______ ____
ROOT
ATOM      1  C   UNL     1       5.647   5.140  19.392  0.00  0.00    +0.000 C 
ATOM      2  O   UNL     1       6.750   5.566  19.737  0.00  0.00    +0.000 OA
ATOM      3  N   UNL     1       5.154   5.346  18.100  0.00  0.00    +0.000 N 
ENDROOT
BRANCH   3   4
ATOM      4  C   UNL     1       6.034   5.801  16.985  0.00  0.00    +0.000 C 
ATOM      5  C   UNL     1       5.395   6.624  15.835  0.00  0.00    +0.000 C 
ATOM      6  C   UNL     1       5.278   5.748  14.594  0.00  0.00    +0.000 C 
ATOM      7  S   UNL     1       6.721   4.722  14.632  0.00  0.00    +0.000 S 
ATOM      8  O   UNL     1       7.829   5.469  14.071  0.00  0.00    +0.000 OA
ATOM      9  O   UNL     1       6.390   3.389  14.176  0.00  0.00    +0.000 OA
ATOM     10  C   UNL     1       6.917   4.695  16.391  0.00  0.00    +0.000 C 
ENDBRANCH   3   4
BRANCH   1  11
ATOM     11  C   UNL     1       4.851   4.207  20.339  0.00  0.00    +0.000 C 
BRANCH  11  12
ATOM     12  O   UNL     1       4.509   2.945  19.784  0.00  0.00    +0.000 OA
BRANCH  12  20
ATOM     13  C   UNL     1       2.248   3.651  21.765  0.00  0.00    +0.000 C 
ATOM     14  C   UNL     1       2.107   2.967  20.433  0.00  0.00    +0.000 A 
ATOM     15  C   UNL     1       0.791   2.636  20.045  0.00  0.00    +0.000 A 
ATOM     16  C   UNL     1       0.512   2.133  18.779  0.00  0.00    +0.000 A 
ATOM     17  C   UNL     1       1.545   1.964  17.870  0.00  0.00    +0.000 A 
ATOM     18  C   UNL     1       2.873   2.262  18.227  0.00  0.00    +0.000 A 
ATOM     19  C   UNL     1       3.950   2.085  17.190  0.00  0.00    +0.000 C 
ATOM     20  C   UNL     1       3.171   2.710  19.540  0.00  0.00    +0.000 A 
ENDBRANCH  12  20
ENDBRANCH  11  12
ENDBRANCH   1  11
BRANCH   3  21
ATOM     21  C   UNL     1       3.702   5.457  17.883  0.00  0.00    +0.000 C 
BRANCH  21  22
ATOM     22  C   UNL     1       3.056   6.700  18.454  0.00  0.00    +0.000 A 
ATOM     23  C   UNL     1       2.922   7.881  17.711  0.00  0.00    +0.000 A 
ATOM     24  C   UNL     1       2.204   8.967  18.219  0.00  0.00    +0.000 A 
ATOM     25  C   UNL     1       1.618   8.883  19.479  0.00  0.00    +0.000 A 
ATOM     26 CL   UNL     1       0.700  10.207  20.087  0.00  0.00    +0.000 Cl
ATOM     27  C   UNL     1       1.758   7.730  20.244  0.00  0.00    +0.000 A 
ATOM     28  C   UNL     1       2.468   6.640  19.731  0.00  0.00    +0.000 A 
ENDBRANCH  21  22
ENDBRANCH   3  21
TORSDOF 6
ENDMDL
MODEL 8
REMARK VINA RESULT:      -7.2      3.197      4.620
REMARK  Name = 
REMARK  8 active torsions:
REMARK  status: ('A' for Active; 'I' for Inactive)
REMARK    1  A    between atoms: C_1  and  C_2
REMARK    2  A    between atoms: C_6  and  C_7
REMARK    3  A    between atoms: C_8  and  O_9
REMARK    4  A    between atoms: O_9  and  C_10
REMARK    5  A    between atoms: C_10  and  C_11
REMARK    6  A    between atoms: N_13  and  C_14
REMARK    7  A    between atoms: N_13  and  C_22
REMARK    8  A    between atoms: C_14  and  C_15
REMARK                            x       y       z     vdW  Elec       q    Type
REMARK                         _______ _______ _______ _____ _____    ______ ____
ROOT
ATOM      1  C   UNL     1       2.871   7.989  18.008  0.00  0.00    +0.000 C 
ATOM      2  O   UNL     1       3.564   8.883  17.520  0.00  0.00    +0.000 OA
ATOM      3  N   UNL     1       3.105   6.642  17.717  0.00  0.00    +0.000 N 
ENDROOT
BRANCH   3   4
ATOM      4  C   UNL     1       4.369   6.182  17.071  0.00  0.00    +0.000 C 
ATOM      5  C   UNL     1       4.437   4.723  16.548  0.00  0.00    +0.000 C 
ATOM      6  C   UNL     1       5.310   3.894  17.481  0.00  0.00    +0.000 C 
ATOM      7  S   UNL     1       6.585   5.005  18.008  0.00  0.00    +0.000 S 
ATOM      8  O   UNL     1       7.611   5.042  16.986  0.00  0.00    +0.000 OA
ATOM      9  O   UNL     1       6.901   4.768  19.400  0.00  0.00    +0.000 OA
ATOM     10  C   UNL     1       5.635   6.494  17.880  0.00  0.00    +0.000 C 
ENDBRANCH   3   4
BRANCH   1  11
ATOM     11  C   UNL     1       1.828   8.332  19.101  0.00  0.00    +0.000 C 
BRANCH  11  12
ATOM     12  O   UNL     1       0.944   9.392  18.768  0.00  0.00    +0.000 OA
BRANCH  12  20
ATOM     13  C   UNL     1      -0.389   8.563  21.428  0.00  0.00    +0.000 C 
ATOM     14  C   UNL     1      -0.035   9.956  20.985  0.00  0.00    +0.000 A 
ATOM     15  C   UNL     1      -0.326  10.987  21.903  0.00  0.00    +0.000 A 
ATOM     16  C   UNL     1       0.080  12.298  21.677  0.00  0.00    +0.000 A 
ATOM     17  C   UNL     1       0.802  12.598  20.531  0.00  0.00    +0.000 A 
ATOM     18  C   UNL     1       1.092  11.602  19.583  0.00  0.00    +0.000 A 
ATOM     19  C   UNL     1       1.903  11.981  18.371  0.00  0.00    +0.000 C 
ATOM     20  C   UNL     1       0.620  10.278  19.776  0.00  0.00    +0.000 A 
ENDBRANCH  12  20
ENDBRANCH  11  12
ENDBRANCH   1  11
BRANCH   3  21
ATOM     21  C   UNL     1       1.980   5.691  17.718  0.00  0.00    +0.000 C 
BRANCH  21  22
ATOM     22  C   UNL     1       1.929   4.751  18.902  0.00  0.00    +0.000 A 
ATOM     23  C   UNL     1       2.416   5.115  20.166  0.00  0.00    +0.000 A 
ATOM     24  C   UNL     1       2.235   4.277  21.269  0.00  0.00    +0.000 A 
ATOM     25  C   UNL     1       1.570   3.064  21.118  0.00  0.00    +0.000 A 
ATOM     26 CL   UNL     1       1.312   2.051  22.486  0.00  0.00    +0.000 Cl
ATOM     27  C   UNL     1       1.100   2.671  19.870  0.00  0.00    +0.000 A 
ATOM     28  C   UNL     1       1.272   3.514  18.768  0.00  0.00    +0.000 A 
ENDBRANCH  21  22
ENDBRANCH   3  21
TORSDOF 6
ENDMDL
MODEL 9
REMARK VINA RESULT:      -7.2      4.209      8.620
REMARK  Name = 
REMARK  8 active torsions:
REMARK  status: ('A' for Active; 'I' for Inactive)
REMARK    1  A    between atoms: C_1  and  C_2
REMARK    2  A    between atoms: C_6  and  C_7
REMARK    3  A    between atoms: C_8  and  O_9
REMARK    4  A    between atoms: O_9  and  C_10
REMARK    5  A    between atoms: C_10  and  C_11
REMARK    6  A    between atoms: N_13  and  C_14
REMARK    7  A    between atoms: N_13  and  C_22
REMARK    8  A    between atoms: C_14  and  C_15
REMARK                            x       y       z     vdW  Elec       q    Type
REMARK                         _______ _______ _______ _____ _____    ______ ____
ROOT
ATOM      1  C   UNL     1       1.173   8.744  20.157  0.00  0.00    +0.000 C 
ATOM      2  O   UNL     1       0.853   8.173  21.201  0.00  0.00    +0.000 OA
ATOM      3  N   UNL     1       1.052  10.129  20.015  0.00  0.00    +0.000 N 
ENDROOT
BRANCH   3   4
ATOM      4  C   UNL     1       0.837  11.026  21.187  0.00  0.00    +0.000 C 
ATOM      5  C   UNL     1      -0.531  10.968  21.914  0.00  0.00    +0.000 C 
ATOM      6  C   UNL     1      -1.339  12.212  21.567  0.00  0.00    +0.000 C 
ATOM      7  S   UNL     1      -0.138  13.507  21.445  0.00  0.00    +0.000 S 
ATOM      8  O   UNL     1       0.148  13.995  22.779  0.00  0.00    +0.000 OA
ATOM      9  O   UNL     1      -0.488  14.402  20.363  0.00  0.00    +0.000 OA
ATOM     10  C   UNL     1       1.219  12.491  20.934  0.00  0.00    +0.000 C 
ENDBRANCH   3   4
BRANCH   1  11
ATOM     11  C   UNL     1       1.888   7.951  19.034  0.00  0.00    +0.000 C 
BRANCH  11  12
ATOM     12  O   UNL     1       2.865   7.026  19.487  0.00  0.00    +0.000 OA
BRANCH  12  20
ATOM     13  C   UNL     1       1.041   4.703  20.390  0.00  0.00    +0.000 C 
ATOM     14  C   UNL     1       2.087   4.669  19.310  0.00  0.00    +0.000 A 
ATOM     15  C   UNL     1       2.227   3.443  18.625  0.00  0.00    +0.000 A 
ATOM     16  C   UNL     1       3.055   3.322  17.514  0.00  0.00    +0.000 A 
ATOM     17  C   UNL     1       3.749   4.432  17.058  0.00  0.00    +0.000 A 
ATOM     18  C   UNL     1       3.653   5.665  17.727  0.00  0.00    +0.000 A 
ATOM     19  C   UNL     1       4.408   6.843  17.170  0.00  0.00    +0.000 C 
ATOM     20  C   UNL     1       2.864   5.776  18.901  0.00  0.00    +0.000 A 
ENDBRANCH  12  20
ENDBRANCH  11  12
ENDBRANCH   1  11
BRANCH   3  21
ATOM     21  C   UNL     1       0.785  10.704  18.685  0.00  0.00    +0.000 C 
BRANCH  21  22
ATOM     22  C   UNL     1      -0.671  10.741  18.278  0.00  0.00    +0.000 A 
ATOM     23  C   UNL     1      -1.406   9.574  18.022  0.00  0.00    +0.000 A 
ATOM     24  C   UNL     1      -2.780   9.634  17.778  0.00  0.00    +0.000 A 
ATOM     25  C   UNL     1      -3.432  10.863  17.782  0.00  0.00    +0.000 A 
ATOM     26 CL   UNL     1      -5.133  10.932  17.520  0.00  0.00    +0.000 Cl
ATOM     27  C   UNL     1      -2.721  12.036  18.009  0.00  0.00    +0.000 A 
ATOM     28  C   UNL     1      -1.347  11.975  18.264  0.00  0.00    +0.000 A 
ENDBRANCH  21  22
ENDBRANCH   3  21
TORSDOF 6
ENDMDL
