MODEL 1
REMARK VINA RESULT:      -7.1      0.000      0.000
REMARK  Name = 
REMARK  7 active torsions:
REMARK  status: ('A' for Active; 'I' for Inactive)
REMARK    1  A    between atoms: C_1  and  C_2
REMARK    2  A    between atoms: C_3  and  C_4
REMARK    3  A    between atoms: C_4  and  O_6
REMARK    4  A    between atoms: O_6  and  C_7
REMARK    5  A    between atoms: C_7  and  C_8
REMARK    6  A    between atoms: C_7  and  C_9
REMARK    7  A    between atoms: C_10  and  C_11
REMARK                            x       y       z     vdW  Elec       q    Type
REMARK                         _______ _______ _______ _____ _____    ______ ____
ROOT
ATOM      1  C   UNL     1       6.745   3.988  16.069  0.00  0.00    +0.000 C 
ATOM      2  C   UNL     1       5.402   4.138  16.741  0.00  0.00    +0.000 C 
ATOM      3  C   UNL     1       4.696   5.273  16.949  0.00  0.00    +0.000 C 
ATOM      4  C   UNL     1       3.267   5.189  17.478  0.00  0.00    +0.000 C 
ATOM      5  C   UNL     1       3.048   3.945  18.352  0.00  0.00    +0.000 C 
ATOM      6  C   UNL     1       3.680   2.721  17.769  0.00  0.00    +0.000 C 
ATOM      7  O   UNL     1       3.252   1.588  17.973  0.00  0.00    +0.000 OA
ATOM      8  N   UNL     1       4.848   2.917  17.091  0.00  0.00    +0.000 N 
ATOM      9  H   UNL     1       5.316   2.060  16.818  0.00  0.00    +0.000 HD
ENDROOT
BRANCH   4  10
ATOM     10  C   UNL     1       2.771   6.394  18.238  0.00  0.00    +0.000 A 
ATOM     11  C   UNL     1       2.383   7.670  17.735  0.00  0.00    +0.000 A 
ATOM     12  C   UNL     1       2.055   8.440  18.827  0.00  0.00    +0.000 A 
ATOM     13  O   UNL     1       2.220   7.733  19.971  0.00  0.00    +0.000 OA
ATOM     14  C   UNL     1       2.648   6.498  19.612  0.00  0.00    +0.000 A 
ENDBRANCH   4  10
BRANCH   3  15
ATOM     15  C   UNL     1       5.186   6.614  16.514  0.00  0.00    +0.000 C 
ATOM     16  O   UNL     1       4.986   7.079  15.403  0.00  0.00    +0.000 OA
BRANCH  15  17
ATOM     17  O   UNL     1       5.842   7.245  17.522  0.00  0.00    +0.000 OA
BRANCH  17  18
ATOM     18  C   UNL     1       7.282   7.191  17.493  0.00  0.00    +0.000 C 
ATOM     19  C   UNL     1       7.800   8.616  17.624  0.00  0.00    +0.000 C 
ATOM     20  C   UNL     1       7.749   6.332  18.664  0.00  0.00    +0.000 C 
ENDBRANCH  17  18
ENDBRANCH  15  17
ENDBRANCH   3  15
TORSDOF 4
ENDMDL
MODEL 2
REMARK VINA RESULT:      -7.0      2.130      5.524
REMARK  Name = 
REMARK  7 active torsions:
REMARK  status: ('A' for Active; 'I' for Inactive)
REMARK    1  A    between atoms: C_1  and  C_2
REMARK    2  A    between atoms: C_3  and  C_4
REMARK    3  A    between atoms: C_4  and  O_6
REMARK    4  A    between atoms: O_6  and  C_7
REMARK    5  A    between atoms: C_7  and  C_8
REMARK    6  A    between atoms: C_7  and  C_9
REMARK    7  A    between atoms: C_10  and  C_11
REMARK                            x       y       z     vdW  Elec       q    Type
REMARK                         _______ _______ _______ _____ _____    ______ ____
ROOT
ATOM      1  C   UNL     1       2.274   5.491  20.775  0.00  0.00    +0.000 C 
ATOM      2  C   UNL     1       2.787   6.113  19.499  0.00  0.00    +0.000 C 
ATOM      3  C   UNL     1       3.662   5.591  18.609  0.00  0.00    +0.000 C 
ATOM      4  C   UNL     1       3.906   6.302  17.282  0.00  0.00    +0.000 C 
ATOM      5  C   UNL     1       3.697   7.819  17.393  0.00  0.00    +0.000 C 
ATOM      6  C   UNL     1       2.481   8.169  18.192  0.00  0.00    +0.000 C 
ATOM      7  O   UNL     1       1.840   9.201  18.013  0.00  0.00    +0.000 OA
ATOM      8  N   UNL     1       2.187   7.333  19.229  0.00  0.00    +0.000 N 
ATOM      9  H   UNL     1       1.436   7.663  19.826  0.00  0.00    +0.000 HD
ENDROOT
BRANCH   4  10
ATOM     10  C   UNL     1       5.247   6.056  16.637  0.00  0.00    +0.000 A 
ATOM     11  C   UNL     1       5.579   5.161  15.577  0.00  0.00    +0.000 A 
ATOM     12  C   UNL     1       6.936   5.268  15.383  0.00  0.00    +0.000 A 
ATOM     13  O   UNL     1       7.471   6.161  16.252  0.00  0.00    +0.000 OA
ATOM     14  C   UNL     1       6.448   6.637  17.004  0.00  0.00    +0.000 A 
ENDBRANCH   4  10
BRANCH   3  15
ATOM     15  C   UNL     1       4.277   4.242  18.786  0.00  0.00    +0.000 C 
ATOM     16  O   UNL     1       5.294   4.043  19.432  0.00  0.00    +0.000 OA
BRANCH  15  17
ATOM     17  O   UNL     1       3.540   3.284  18.166  0.00  0.00    +0.000 OA
BRANCH  17  18
ATOM     18  C   UNL     1       2.962   2.266  19.005  0.00  0.00    +0.000 C 
ATOM     19  C   UNL     1       1.483   2.170  18.662  0.00  0.00    +0.000 C 
ATOM     20  C   UNL     1       3.675   0.948  18.713  0.00  0.00    +0.000 C 
ENDBRANCH  17  18
ENDBRANCH  15  17
ENDBRANCH   3  15
TORSDOF 4
ENDMDL
MODEL 3
REMARK VINA RESULT:      -6.9      1.772      4.346
REMARK  Name = 
REMARK  7 active torsions:
REMARK  status: ('A' for Active; 'I' for Inactive)
REMARK    1  A    between atoms: C_1  and  C_2
REMARK    2  A    between atoms: C_3  and  C_4
REMARK    3  A    between atoms: C_4  and  O_6
REMARK    4  A    between atoms: O_6  and  C_7
REMARK    5  A    between atoms: C_7  and  C_8
REMARK    6  A    between atoms: C_7  and  C_9
REMARK    7  A    between atoms: C_10  and  C_11
REMARK                            x       y       z     vdW  Elec       q    Type
REMARK                         _______ _______ _______ _____ _____    ______ ____
ROOT
ATOM      1  C   UNL     1       7.517   7.054  17.545  0.00  0.00    +0.000 C 
ATOM      2  C   UNL     1       6.634   6.020  16.891  0.00  0.00    +0.000 C 
ATOM      3  C   UNL     1       5.464   5.516  17.345  0.00  0.00    +0.000 C 
ATOM      4  C   UNL     1       4.626   4.615  16.442  0.00  0.00    +0.000 C 
ATOM      5  C   UNL     1       5.493   3.835  15.443  0.00  0.00    +0.000 C 
ATOM      6  C   UNL     1       6.563   4.684  14.832  0.00  0.00    +0.000 C 
ATOM      7  O   UNL     1       7.022   4.475  13.713  0.00  0.00    +0.000 OA
ATOM      8  N   UNL     1       7.099   5.642  15.642  0.00  0.00    +0.000 N 
ATOM      9  H   UNL     1       7.904   6.116  15.245  0.00  0.00    +0.000 HD
ENDROOT
BRANCH   4  10
ATOM     10  C   UNL     1       3.716   3.638  17.142  0.00  0.00    +0.000 A 
ATOM     11  C   UNL     1       2.308   3.719  17.352  0.00  0.00    +0.000 A 
ATOM     12  C   UNL     1       1.954   2.609  18.082  0.00  0.00    +0.000 A 
ATOM     13  O   UNL     1       3.044   1.849  18.346  0.00  0.00    +0.000 OA
ATOM     14  C   UNL     1       4.105   2.470  17.774  0.00  0.00    +0.000 A 
ENDBRANCH   4  10
BRANCH   3  15
ATOM     15  C   UNL     1       4.853   5.944  18.638  0.00  0.00    +0.000 C 
ATOM     16  O   UNL     1       5.010   5.346  19.691  0.00  0.00    +0.000 OA
BRANCH  15  17
ATOM     17  O   UNL     1       4.140   7.090  18.486  0.00  0.00    +0.000 OA
BRANCH  17  18
ATOM     18  C   UNL     1       2.705   6.967  18.479  0.00  0.00    +0.000 C 
ATOM     19  C   UNL     1       2.239   6.908  19.926  0.00  0.00    +0.000 C 
ATOM     20  C   UNL     1       2.126   8.188  17.770  0.00  0.00    +0.000 C 
ENDBRANCH  17  18
ENDBRANCH  15  17
ENDBRANCH   3  15
TORSDOF 4
ENDMDL
MODEL 4
REMARK VINA RESULT:      -6.8      2.149      5.610
REMARK  Name = 
REMARK  7 active torsions:
REMARK  status: ('A' for Active; 'I' for Inactive)
REMARK    1  A    between atoms: C_1  and  C_2
REMARK    2  A    between atoms: C_3  and  C_4
REMARK    3  A    between atoms: C_4  and  O_6
REMARK    4  A    between atoms: O_6  and  C_7
REMARK    5  A    between atoms: C_7  and  C_8
REMARK    6  A    between atoms: C_7  and  C_9
REMARK    7  A    between atoms: C_10  and  C_11
REMARK                            x       y       z     vdW  Elec       q    Type
REMARK                         _______ _______ _______ _____ _____    ______ ____
ROOT
ATOM      1  C   UNL     1       1.987   6.059  20.881  0.00  0.00    +0.000 C 
ATOM      2  C   UNL     1       2.641   6.379  19.559  0.00  0.00    +0.000 C 
ATOM      3  C   UNL     1       3.530   5.631  18.865  0.00  0.00    +0.000 C 
ATOM      4  C   UNL     1       3.928   6.046  17.452  0.00  0.00    +0.000 C 
ATOM      5  C   UNL     1       3.840   7.566  17.251  0.00  0.00    +0.000 C 
ATOM      6  C   UNL     1       2.604   8.151  17.858  0.00  0.00    +0.000 C 
ATOM      7  O   UNL     1       2.067   9.168  17.429  0.00  0.00    +0.000 OA
ATOM      8  N   UNL     1       2.167   7.559  19.007  0.00  0.00    +0.000 N 
ATOM      9  H   UNL     1       1.406   8.052  19.463  0.00  0.00    +0.000 HD
ENDROOT
BRANCH   4  10
ATOM     10  C   UNL     1       5.286   5.585  16.985  0.00  0.00    +0.000 A 
ATOM     11  C   UNL     1       5.621   4.445  16.196  0.00  0.00    +0.000 A 
ATOM     12  C   UNL     1       6.991   4.435  16.083  0.00  0.00    +0.000 A 
ATOM     13  O   UNL     1       7.531   5.483  16.752  0.00  0.00    +0.000 OA
ATOM     14  C   UNL     1       6.498   6.177  17.292  0.00  0.00    +0.000 A 
ENDBRANCH   4  10
BRANCH   3  15
ATOM     15  C   UNL     1       4.015   4.305  19.351  0.00  0.00    +0.000 C 
ATOM     16  O   UNL     1       5.187   4.060  19.586  0.00  0.00    +0.000 OA
BRANCH  15  17
ATOM     17  O   UNL     1       2.982   3.440  19.521  0.00  0.00    +0.000 OA
BRANCH  17  18
ATOM     18  C   UNL     1       2.372   2.912  18.327  0.00  0.00    +0.000 C 
ATOM     19  C   UNL     1       3.239   1.763  17.835  0.00  0.00    +0.000 C 
ATOM     20  C   UNL     1       0.972   2.423  18.685  0.00  0.00    +0.000 C 
ENDBRANCH  17  18
ENDBRANCH  15  17
ENDBRANCH   3  15
TORSDOF 4
ENDMDL
MODEL 5
REMARK VINA RESULT:      -6.8      2.318      4.503
REMARK  Name = 
REMARK  7 active torsions:
REMARK  status: ('A' for Active; 'I' for Inactive)
REMARK    1  A    between atoms: C_1  and  C_2
REMARK    2  A    between atoms: C_3  and  C_4
REMARK    3  A    between atoms: C_4  and  O_6
REMARK    4  A    between atoms: O_6  and  C_7
REMARK    5  A    between atoms: C_7  and  C_8
REMARK    6  A    between atoms: C_7  and  C_9
REMARK    7  A    between atoms: C_10  and  C_11
REMARK                            x       y       z     vdW  Elec       q    Type
REMARK                         _______ _______ _______ _____ _____    ______ ____
ROOT
ATOM      1  C   UNL     1       3.741   1.998  17.845  0.00  0.00    +0.000 C 
ATOM      2  C   UNL     1       4.094   3.412  18.235  0.00  0.00    +0.000 C 
ATOM      3  C   UNL     1       3.254   4.442  18.489  0.00  0.00    +0.000 C 
ATOM      4  C   UNL     1       3.805   5.747  19.054  0.00  0.00    +0.000 C 
ATOM      5  C   UNL     1       5.257   5.996  18.620  0.00  0.00    +0.000 C 
ATOM      6  C   UNL     1       6.095   4.758  18.699  0.00  0.00    +0.000 C 
ATOM      7  O   UNL     1       7.307   4.785  18.896  0.00  0.00    +0.000 OA
ATOM      8  N   UNL     1       5.457   3.587  18.411  0.00  0.00    +0.000 N 
ATOM      9  H   UNL     1       6.075   2.784  18.349  0.00  0.00    +0.000 HD
ENDROOT
BRANCH   4  10
ATOM     10  C   UNL     1       3.003   6.989  18.755  0.00  0.00    +0.000 A 
ATOM     11  C   UNL     1       2.976   7.770  17.563  0.00  0.00    +0.000 A 
ATOM     12  C   UNL     1       2.127   8.825  17.803  0.00  0.00    +0.000 A 
ATOM     13  O   UNL     1       1.632   8.758  19.063  0.00  0.00    +0.000 OA
ATOM     14  C   UNL     1       2.160   7.646  19.633  0.00  0.00    +0.000 A 
ENDBRANCH   4  10
BRANCH   3  15
ATOM     15  C   UNL     1       1.769   4.304  18.411  0.00  0.00    +0.000 C 
ATOM     16  O   UNL     1       1.158   4.158  17.364  0.00  0.00    +0.000 OA
BRANCH  15  17
ATOM     17  O   UNL     1       1.210   4.329  19.649  0.00  0.00    +0.000 OA
BRANCH  17  18
ATOM     18  C   UNL     1       0.768   3.068  20.187  0.00  0.00    +0.000 C 
ATOM     19  C   UNL     1       0.637   2.091  19.029  0.00  0.00    +0.000 C 
ATOM     20  C   UNL     1       1.812   2.587  21.190  0.00  0.00    +0.000 C 
ENDBRANCH  17  18
ENDBRANCH  15  17
ENDBRANCH   3  15
TORSDOF 4
ENDMDL
MODEL 6
REMARK VINA RESULT:      -6.5      2.337      4.128
REMARK  Name = 
REMARK  7 active torsions:
REMARK  status: ('A' for Active; 'I' for Inactive)
REMARK    1  A    between atoms: C_1  and  C_2
REMARK    2  A    between atoms: C_3  and  C_4
REMARK    3  A    between atoms: C_4  and  O_6
REMARK    4  A    between atoms: O_6  and  C_7
REMARK    5  A    between atoms: C_7  and  C_8
REMARK    6  A    between atoms: C_7  and  C_9
REMARK    7  A    between atoms: C_10  and  C_11
REMARK                            x       y       z     vdW  Elec       q    Type
REMARK                         _______ _______ _______ _____ _____    ______ ____
ROOT
ATOM      1  C   UNL     1       4.907   6.659  16.231  0.00  0.00    +0.000 C 
ATOM      2  C   UNL     1       3.977   6.627  17.419  0.00  0.00    +0.000 C 
ATOM      3  C   UNL     1       3.816   5.636  18.326  0.00  0.00    +0.000 C 
ATOM      4  C   UNL     1       2.961   5.875  19.566  0.00  0.00    +0.000 C 
ATOM      5  C   UNL     1       1.851   6.905  19.310  0.00  0.00    +0.000 C 
ATOM      6  C   UNL     1       2.336   8.082  18.524  0.00  0.00    +0.000 C 
ATOM      7  O   UNL     1       1.837   9.200  18.620  0.00  0.00    +0.000 OA
ATOM      8  N   UNL     1       3.292   7.820  17.587  0.00  0.00    +0.000 N 
ATOM      9  H   UNL     1       3.509   8.608  16.986  0.00  0.00    +0.000 HD
ENDROOT
BRANCH   4  10
ATOM     10  C   UNL     1       2.336   4.651  20.186  0.00  0.00    +0.000 A 
ATOM     11  C   UNL     1       2.626   4.035  21.439  0.00  0.00    +0.000 A 
ATOM     12  C   UNL     1       1.824   2.922  21.525  0.00  0.00    +0.000 A 
ATOM     13  O   UNL     1       1.062   2.799  20.411  0.00  0.00    +0.000 OA
ATOM     14  C   UNL     1       1.371   3.846  19.607  0.00  0.00    +0.000 A 
ENDBRANCH   4  10
BRANCH   3  15
ATOM     15  C   UNL     1       4.588   4.359  18.265  0.00  0.00    +0.000 C 
ATOM     16  O   UNL     1       4.260   3.403  17.579  0.00  0.00    +0.000 OA
BRANCH  15  17
ATOM     17  O   UNL     1       5.703   4.424  19.038  0.00  0.00    +0.000 OA
BRANCH  17  18
ATOM     18  C   UNL     1       6.775   5.262  18.563  0.00  0.00    +0.000 C 
ATOM     19  C   UNL     1       7.658   5.602  19.754  0.00  0.00    +0.000 C 
ATOM     20  C   UNL     1       7.557   4.482  17.510  0.00  0.00    +0.000 C 
ENDBRANCH  17  18
ENDBRANCH  15  17
ENDBRANCH   3  15
TORSDOF 4
ENDMDL
MODEL 7
REMARK VINA RESULT:      -6.5      1.981      2.835
REMARK  Name = 
REMARK  7 active torsions:
REMARK  status: ('A' for Active; 'I' for Inactive)
REMARK    1  A    between atoms: C_1  and  C_2
REMARK    2  A    between atoms: C_3  and  C_4
REMARK    3  A    between atoms: C_4  and  O_6
REMARK    4  A    between atoms: O_6  and  C_7
REMARK    5  A    between atoms: C_7  and  C_8
REMARK    6  A    between atoms: C_7  and  C_9
REMARK    7  A    between atoms: C_10  and  C_11
REMARK                            x       y       z     vdW  Elec       q    Type
REMARK                         _______ _______ _______ _____ _____    ______ ____
ROOT
ATOM      1  C   UNL     1       4.683   1.744  19.831  0.00  0.00    +0.000 C 
ATOM      2  C   UNL     1       3.632   2.667  19.265  0.00  0.00    +0.000 C 
ATOM      3  C   UNL     1       3.778   3.950  18.862  0.00  0.00    +0.000 C 
ATOM      4  C   UNL     1       2.631   4.651  18.139  0.00  0.00    +0.000 C 
ATOM      5  C   UNL     1       1.261   4.103  18.564  0.00  0.00    +0.000 C 
ATOM      6  C   UNL     1       1.251   2.610  18.664  0.00  0.00    +0.000 C 
ATOM      7  O   UNL     1       0.240   1.937  18.488  0.00  0.00    +0.000 OA
ATOM      8  N   UNL     1       2.411   2.034  19.092  0.00  0.00    +0.000 N 
ATOM      9  H   UNL     1       2.337   1.038  19.271  0.00  0.00    +0.000 HD
ENDROOT
BRANCH   4  10
ATOM     10  C   UNL     1       2.596   6.155  18.257  0.00  0.00    +0.000 A 
ATOM     11  C   UNL     1       3.053   7.136  17.328  0.00  0.00    +0.000 A 
ATOM     12  C   UNL     1       2.845   8.361  17.916  0.00  0.00    +0.000 A 
ATOM     13  O   UNL     1       2.298   8.209  19.147  0.00  0.00    +0.000 OA
ATOM     14  C   UNL     1       2.146   6.877  19.348  0.00  0.00    +0.000 A 
ENDBRANCH   4  10
BRANCH   3  15
ATOM     15  C   UNL     1       5.084   4.669  18.930  0.00  0.00    +0.000 C 
ATOM     16  O   UNL     1       5.361   5.487  19.793  0.00  0.00    +0.000 OA
BRANCH  15  17
ATOM     17  O   UNL     1       5.916   4.266  17.935  0.00  0.00    +0.000 OA
BRANCH  17  18
ATOM     18  C   UNL     1       5.829   4.979  16.686  0.00  0.00    +0.000 C 
ATOM     19  C   UNL     1       7.032   5.905  16.597  0.00  0.00    +0.000 C 
ATOM     20  C   UNL     1       5.845   3.956  15.553  0.00  0.00    +0.000 C 
ENDBRANCH  17  18
ENDBRANCH  15  17
ENDBRANCH   3  15
TORSDOF 4
ENDMDL
MODEL 8
REMARK VINA RESULT:      -6.5      1.888      4.224
REMARK  Name = 
REMARK  7 active torsions:
REMARK  status: ('A' for Active; 'I' for Inactive)
REMARK    1  A    between atoms: C_1  and  C_2
REMARK    2  A    between atoms: C_3  and  C_4
REMARK    3  A    between atoms: C_4  and  O_6
REMARK    4  A    between atoms: O_6  and  C_7
REMARK    5  A    between atoms: C_7  and  C_8
REMARK    6  A    between atoms: C_7  and  C_9
REMARK    7  A    between atoms: C_10  and  C_11
REMARK                            x       y       z     vdW  Elec       q    Type
REMARK                         _______ _______ _______ _____ _____    ______ ____
ROOT
ATOM      1  C   UNL     1       4.104   2.830  16.660  0.00  0.00    +0.000 C 
ATOM      2  C   UNL     1       4.292   4.276  17.050  0.00  0.00    +0.000 C 
ATOM      3  C   UNL     1       3.450   5.065  17.755  0.00  0.00    +0.000 C 
ATOM      4  C   UNL     1       3.910   6.447  18.210  0.00  0.00    +0.000 C 
ATOM      5  C   UNL     1       4.954   7.049  17.258  0.00  0.00    +0.000 C 
ATOM      6  C   UNL     1       5.979   6.047  16.829  0.00  0.00    +0.000 C 
ATOM      7  O   UNL     1       7.125   6.357  16.518  0.00  0.00    +0.000 OA
ATOM      8  N   UNL     1       5.533   4.766  16.678  0.00  0.00    +0.000 N 
ATOM      9  H   UNL     1       6.215   4.137  16.267  0.00  0.00    +0.000 HD
ENDROOT
BRANCH   4  10
ATOM     10  C   UNL     1       2.822   7.470  18.425  0.00  0.00    +0.000 A 
ATOM     11  C   UNL     1       2.287   8.414  17.501  0.00  0.00    +0.000 A 
ATOM     12  C   UNL     1       1.352   9.152  18.189  0.00  0.00    +0.000 A 
ATOM     13  O   UNL     1       1.275   8.736  19.477  0.00  0.00    +0.000 OA
ATOM     14  C   UNL     1       2.161   7.718  19.615  0.00  0.00    +0.000 A 
ENDBRANCH   4  10
BRANCH   3  15
ATOM     15  C   UNL     1       2.136   4.579  18.270  0.00  0.00    +0.000 C 
ATOM     16  O   UNL     1       1.155   4.406  17.564  0.00  0.00    +0.000 OA
BRANCH  15  17
ATOM     17  O   UNL     1       2.196   4.329  19.604  0.00  0.00    +0.000 OA
BRANCH  17  18
ATOM     18  C   UNL     1       2.193   2.945  20.006  0.00  0.00    +0.000 C 
ATOM     19  C   UNL     1       3.626   2.556  20.335  0.00  0.00    +0.000 C 
ATOM     20  C   UNL     1       1.297   2.809  21.234  0.00  0.00    +0.000 C 
ENDBRANCH  17  18
ENDBRANCH  15  17
ENDBRANCH   3  15
TORSDOF 4
ENDMDL
MODEL 9
REMARK VINA RESULT:      -6.4      1.496      4.013
REMARK  Name = 
REMARK  7 active torsions:
REMARK  status: ('A' for Active; 'I' for Inactive)
REMARK    1  A    between atoms: C_1  and  C_2
REMARK    2  A    between atoms: C_3  and  C_4
REMARK    3  A    between atoms: C_4  and  O_6
REMARK    4  A    between atoms: O_6  and  C_7
REMARK    5  A    between atoms: C_7  and  C_8
REMARK    6  A    between atoms: C_7  and  C_9
REMARK    7  A    between atoms: C_10  and  C_11
REMARK                            x       y       z     vdW  Elec       q    Type
REMARK                         _______ _______ _______ _____ _____    ______ ____
ROOT
ATOM      1  C   UNL     1       2.775   6.653  18.668  0.00  0.00    +0.000 C 
ATOM      2  C   UNL     1       3.447   5.481  17.996  0.00  0.00    +0.000 C 
ATOM      3  C   UNL     1       4.462   5.502  17.102  0.00  0.00    +0.000 C 
ATOM      4  C   UNL     1       5.129   4.195  16.683  0.00  0.00    +0.000 C 
ATOM      5  C   UNL     1       4.163   3.004  16.760  0.00  0.00    +0.000 C 
ATOM      6  C   UNL     1       3.327   3.028  18.001  0.00  0.00    +0.000 C 
ATOM      7  O   UNL     1       2.884   2.011  18.526  0.00  0.00    +0.000 OA
ATOM      8  N   UNL     1       2.970   4.264  18.456  0.00  0.00    +0.000 N 
ATOM      9  H   UNL     1       2.303   4.246  19.219  0.00  0.00    +0.000 HD
ENDROOT
BRANCH   4  10
ATOM     10  C   UNL     1       5.779   4.190  15.322  0.00  0.00    +0.000 A 
ATOM     11  C   UNL     1       7.095   4.599  14.958  0.00  0.00    +0.000 A 
ATOM     12  C   UNL     1       7.191   4.449  13.594  0.00  0.00    +0.000 A 
ATOM     13  O   UNL     1       6.024   3.982  13.086  0.00  0.00    +0.000 OA
ATOM     14  C   UNL     1       5.176   3.823  14.132  0.00  0.00    +0.000 A 
ENDBRANCH   4  10
BRANCH   3  15
ATOM     15  C   UNL     1       5.090   6.772  16.631  0.00  0.00    +0.000 C 
ATOM     16  O   UNL     1       4.910   7.243  15.519  0.00  0.00    +0.000 OA
BRANCH  15  17
ATOM     17  O   UNL     1       5.848   7.334  17.608  0.00  0.00    +0.000 OA
BRANCH  17  18
ATOM     18  C   UNL     1       7.272   7.124  17.527  0.00  0.00    +0.000 C 
ATOM     19  C   UNL     1       7.948   8.475  17.700  0.00  0.00    +0.000 C 
ATOM     20  C   UNL     1       7.674   6.166  18.646  0.00  0.00    +0.000 C 
ENDBRANCH  17  18
ENDBRANCH  15  17
ENDBRANCH   3  15
TORSDOF 4
ENDMDL
