MODEL 1
REMARK VINA RESULT:      -8.5      0.000      0.000
REMARK  Name = 
REMARK  1 active torsions:
REMARK  status: ('A' for Active; 'I' for Inactive)
REMARK    1  A    between atoms: C_4  and  C_5
REMARK                            x       y       z     vdW  Elec       q    Type
REMARK                         _______ _______ _______ _____ _____    ______ ____
ROOT
ATOM      1  C   UNL     1       6.564   4.239  15.636  0.00  0.00    +0.000 C 
ATOM      2  C   UNL     1       5.274   4.990  16.060  0.00  0.00    +0.000 C 
ATOM      3  N   UNL     1       5.141   4.982  17.520  0.00  0.00    +0.000 N 
ATOM      4  C   UNL     1       4.040   4.506  18.184  0.00  0.00    +0.000 A 
ATOM      5  C   UNL     1       2.772   4.627  17.631  0.00  0.00    +0.000 A 
ATOM      6  C   UNL     1       1.663   4.179  18.336  0.00  0.00    +0.000 A 
ATOM      7  C   UNL     1       1.821   3.610  19.580  0.00  0.00    +0.000 A 
ATOM      8  N   UNL     1       0.728   3.197  20.258  0.00  0.00    +0.000 NA
ATOM      9  C   UNL     1       0.956   2.670  21.474  0.00  0.00    +0.000 A 
ATOM     10  C   UNL     1       2.235   2.549  21.979  0.00  0.00    +0.000 A 
ATOM     11  N   UNL     1       3.332   2.958  21.296  0.00  0.00    +0.000 NA
ATOM     12  C   UNL     1       3.140   3.504  20.087  0.00  0.00    +0.000 A 
ATOM     13  N   UNL     1       4.203   3.947  19.401  0.00  0.00    +0.000 NA
ATOM     14  C   UNL     1       6.334   5.407  18.256  0.00  0.00    +0.000 C 
ATOM     15  C   UNL     1       7.560   4.636  17.755  0.00  0.00    +0.000 C 
ATOM     16  O   UNL     1       7.719   4.757  16.333  0.00  0.00    +0.000 OA
ENDROOT
BRANCH   1  20
ATOM     17  C   UNL     1       7.258   4.571  11.376  0.00  0.00    +0.000 A 
ATOM     18  C   UNL     1       6.341   3.644  11.862  0.00  0.00    +0.000 A 
ATOM     19  C   UNL     1       6.113   3.542  13.233  0.00  0.00    +0.000 A 
ATOM     20  C   UNL     1       6.793   4.370  14.140  0.00  0.00    +0.000 A 
ATOM     21  C   UNL     1       7.719   5.298  13.638  0.00  0.00    +0.000 A 
ATOM     22  C   UNL     1       7.947   5.398  12.265  0.00  0.00    +0.000 A 
ENDBRANCH   1  20
TORSDOF 1
ENDMDL
MODEL 2
REMARK VINA RESULT:      -8.5      0.032      1.029
REMARK  Name = 
REMARK  1 active torsions:
REMARK  status: ('A' for Active; 'I' for Inactive)
REMARK    1  A    between atoms: C_4  and  C_5
REMARK                            x       y       z     vdW  Elec       q    Type
REMARK                         _______ _______ _______ _____ _____    ______ ____
ROOT
ATOM      1  C   UNL     1       6.591   4.223  15.649  0.00  0.00    +0.000 C 
ATOM      2  C   UNL     1       5.296   4.974  16.055  0.00  0.00    +0.000 C 
ATOM      3  N   UNL     1       5.151   4.982  17.514  0.00  0.00    +0.000 N 
ATOM      4  C   UNL     1       4.046   4.508  18.174  0.00  0.00    +0.000 A 
ATOM      5  C   UNL     1       2.782   4.619  17.609  0.00  0.00    +0.000 A 
ATOM      6  C   UNL     1       1.669   4.175  18.310  0.00  0.00    +0.000 A 
ATOM      7  C   UNL     1       1.819   3.620  19.562  0.00  0.00    +0.000 A 
ATOM      8  N   UNL     1       0.721   3.210  20.235  0.00  0.00    +0.000 NA
ATOM      9  C   UNL     1       0.941   2.697  21.458  0.00  0.00    +0.000 A 
ATOM     10  C   UNL     1       2.217   2.585  21.975  0.00  0.00    +0.000 A 
ATOM     11  N   UNL     1       3.317   2.991  21.296  0.00  0.00    +0.000 NA
ATOM     12  C   UNL     1       3.134   3.523  20.080  0.00  0.00    +0.000 A 
ATOM     13  N   UNL     1       4.201   3.962  19.399  0.00  0.00    +0.000 NA
ATOM     14  C   UNL     1       6.337   5.417  18.255  0.00  0.00    +0.000 C 
ATOM     15  C   UNL     1       7.569   4.645  17.772  0.00  0.00    +0.000 C 
ATOM     16  O   UNL     1       7.739   4.752  16.350  0.00  0.00    +0.000 OA
ENDROOT
BRANCH   1  20
ATOM     17  C   UNL     1       7.236   4.593  11.385  0.00  0.00    +0.000 A 
ATOM     18  C   UNL     1       7.911   5.432  12.267  0.00  0.00    +0.000 A 
ATOM     19  C   UNL     1       7.708   5.308  13.640  0.00  0.00    +0.000 A 
ATOM     20  C   UNL     1       6.832   4.339  14.154  0.00  0.00    +0.000 A 
ATOM     21  C   UNL     1       6.154   3.501  13.255  0.00  0.00    +0.000 A 
ATOM     22  C   UNL     1       6.357   3.627  11.879  0.00  0.00    +0.000 A 
ENDBRANCH   1  20
TORSDOF 1
ENDMDL
MODEL 3
REMARK VINA RESULT:      -7.4      5.486      8.519
REMARK  Name = 
REMARK  1 active torsions:
REMARK  status: ('A' for Active; 'I' for Inactive)
REMARK    1  A    between atoms: C_4  and  C_5
REMARK                            x       y       z     vdW  Elec       q    Type
REMARK                         _______ _______ _______ _____ _____    ______ ____
ROOT
ATOM      1  C   UNL     1       0.252   9.394  19.865  0.00  0.00    +0.000 C 
ATOM      2  C   UNL     1       1.347   8.537  20.553  0.00  0.00    +0.000 C 
ATOM      3  N   UNL     1       2.070   7.743  19.554  0.00  0.00    +0.000 N 
ATOM      4  C   UNL     1       2.194   6.379  19.608  0.00  0.00    +0.000 A 
ATOM      5  C   UNL     1       2.276   5.722  20.830  0.00  0.00    +0.000 A 
ATOM      6  C   UNL     1       2.447   4.345  20.866  0.00  0.00    +0.000 A 
ATOM      7  C   UNL     1       2.530   3.630  19.692  0.00  0.00    +0.000 A 
ATOM      8  N   UNL     1       2.714   2.292  19.749  0.00  0.00    +0.000 NA
ATOM      9  C   UNL     1       2.806   1.662  18.566  0.00  0.00    +0.000 A 
ATOM     10  C   UNL     1       2.699   2.349  17.373  0.00  0.00    +0.000 A 
ATOM     11  N   UNL     1       2.508   3.690  17.316  0.00  0.00    +0.000 NA
ATOM     12  C   UNL     1       2.429   4.353  18.478  0.00  0.00    +0.000 A 
ATOM     13  N   UNL     1       2.272   5.684  18.454  0.00  0.00    +0.000 NA
ATOM     14  C   UNL     1       2.557   8.495  18.396  0.00  0.00    +0.000 C 
ATOM     15  C   UNL     1       1.420   9.331  17.798  0.00  0.00    +0.000 C 
ATOM     16  O   UNL     1       0.808  10.176  18.784  0.00  0.00    +0.000 OA
ENDROOT
BRANCH   1  20
ATOM     17  C   UNL     1      -1.659  12.040  22.708  0.00  0.00    +0.000 A 
ATOM     18  C   UNL     1      -1.076  10.854  23.144  0.00  0.00    +0.000 A 
ATOM     19  C   UNL     1      -0.455  10.006  22.229  0.00  0.00    +0.000 A 
ATOM     20  C   UNL     1      -0.401  10.332  20.865  0.00  0.00    +0.000 A 
ATOM     21  C   UNL     1      -0.997  11.530  20.437  0.00  0.00    +0.000 A 
ATOM     22  C   UNL     1      -1.619  12.378  21.354  0.00  0.00    +0.000 A 
ENDBRANCH   1  20
TORSDOF 1
ENDMDL
MODEL 4
REMARK VINA RESULT:      -7.4      5.484      8.520
REMARK  Name = 
REMARK  1 active torsions:
REMARK  status: ('A' for Active; 'I' for Inactive)
REMARK    1  A    between atoms: C_4  and  C_5
REMARK                            x       y       z     vdW  Elec       q    Type
REMARK                         _______ _______ _______ _____ _____    ______ ____
ROOT
ATOM      1  C   UNL     1       0.259   9.389  19.859  0.00  0.00    +0.000 C 
ATOM      2  C   UNL     1       1.351   8.530  20.549  0.00  0.00    +0.000 C 
ATOM      3  N   UNL     1       2.076   7.736  19.551  0.00  0.00    +0.000 N 
ATOM      4  C   UNL     1       2.199   6.371  19.605  0.00  0.00    +0.000 A 
ATOM      5  C   UNL     1       2.277   5.714  20.827  0.00  0.00    +0.000 A 
ATOM      6  C   UNL     1       2.446   4.337  20.863  0.00  0.00    +0.000 A 
ATOM      7  C   UNL     1       2.531   3.622  19.689  0.00  0.00    +0.000 A 
ATOM      8  N   UNL     1       2.714   2.284  19.745  0.00  0.00    +0.000 NA
ATOM      9  C   UNL     1       2.807   1.655  18.562  0.00  0.00    +0.000 A 
ATOM     10  C   UNL     1       2.703   2.342  17.369  0.00  0.00    +0.000 A 
ATOM     11  N   UNL     1       2.513   3.683  17.313  0.00  0.00    +0.000 NA
ATOM     12  C   UNL     1       2.433   4.345  18.475  0.00  0.00    +0.000 A 
ATOM     13  N   UNL     1       2.277   5.676  18.451  0.00  0.00    +0.000 NA
ATOM     14  C   UNL     1       2.565   8.487  18.394  0.00  0.00    +0.000 C 
ATOM     15  C   UNL     1       1.431   9.325  17.795  0.00  0.00    +0.000 C 
ATOM     16  O   UNL     1       0.817  10.171  18.780  0.00  0.00    +0.000 OA
ENDROOT
BRANCH   1  20
ATOM     17  C   UNL     1      -1.554  12.091  22.714  0.00  0.00    +0.000 A 
ATOM     18  C   UNL     1      -1.488  12.441  21.369  0.00  0.00    +0.000 A 
ATOM     19  C   UNL     1      -0.910  11.567  20.449  0.00  0.00    +0.000 A 
ATOM     20  C   UNL     1      -0.395  10.327  20.858  0.00  0.00    +0.000 A 
ATOM     21  C   UNL     1      -0.464   9.987  22.219  0.00  0.00    +0.000 A 
ATOM     22  C   UNL     1      -1.042  10.863  23.139  0.00  0.00    +0.000 A 
ENDBRANCH   1  20
TORSDOF 1
ENDMDL
MODEL 5
REMARK VINA RESULT:      -7.0      3.198      3.536
REMARK  Name = 
REMARK  1 active torsions:
REMARK  status: ('A' for Active; 'I' for Inactive)
REMARK    1  A    between atoms: C_4  and  C_5
REMARK                            x       y       z     vdW  Elec       q    Type
REMARK                         _______ _______ _______ _____ _____    ______ ____
ROOT
ATOM      1  C   UNL     1       5.136   4.707  16.084  0.00  0.00    +0.000 C 
ATOM      2  C   UNL     1       5.102   6.225  16.398  0.00  0.00    +0.000 C 
ATOM      3  N   UNL     1       4.718   6.445  17.796  0.00  0.00    +0.000 N 
ATOM      4  C   UNL     1       3.659   7.226  18.183  0.00  0.00    +0.000 A 
ATOM      5  C   UNL     1       3.304   8.352  17.450  0.00  0.00    +0.000 A 
ATOM      6  C   UNL     1       2.258   9.156  17.881  0.00  0.00    +0.000 A 
ATOM      7  C   UNL     1       1.569   8.835  19.030  0.00  0.00    +0.000 A 
ATOM      8  N   UNL     1       0.566   9.641  19.441  0.00  0.00    +0.000 NA
ATOM      9  C   UNL     1      -0.049   9.278  20.580  0.00  0.00    +0.000 A 
ATOM     10  C   UNL     1       0.321   8.139  21.267  0.00  0.00    +0.000 A 
ATOM     11  N   UNL     1       1.324   7.328  20.851  0.00  0.00    +0.000 NA
ATOM     12  C   UNL     1       1.970   7.669  19.727  0.00  0.00    +0.000 A 
ATOM     13  N   UNL     1       2.986   6.904  19.308  0.00  0.00    +0.000 NA
ATOM     14  C   UNL     1       5.469   5.661  18.779  0.00  0.00    +0.000 C 
ATOM     15  C   UNL     1       5.473   4.182  18.376  0.00  0.00    +0.000 C 
ATOM     16  O   UNL     1       5.959   3.998  17.037  0.00  0.00    +0.000 OA
ENDROOT
BRANCH   1  20
ATOM     17  C   UNL     1       6.708   3.954  12.121  0.00  0.00    +0.000 A 
ATOM     18  C   UNL     1       5.466   3.442  12.488  0.00  0.00    +0.000 A 
ATOM     19  C   UNL     1       4.958   3.691  13.761  0.00  0.00    +0.000 A 
ATOM     20  C   UNL     1       5.679   4.460  14.688  0.00  0.00    +0.000 A 
ATOM     21  C   UNL     1       6.932   4.967  14.309  0.00  0.00    +0.000 A 
ATOM     22  C   UNL     1       7.441   4.717  13.033  0.00  0.00    +0.000 A 
ENDBRANCH   1  20
TORSDOF 1
ENDMDL
MODEL 6
REMARK VINA RESULT:      -6.9      3.201      3.683
REMARK  Name = 
REMARK  1 active torsions:
REMARK  status: ('A' for Active; 'I' for Inactive)
REMARK    1  A    between atoms: C_4  and  C_5
REMARK                            x       y       z     vdW  Elec       q    Type
REMARK                         _______ _______ _______ _____ _____    ______ ____
ROOT
ATOM      1  C   UNL     1       5.154   4.690  16.132  0.00  0.00    +0.000 C 
ATOM      2  C   UNL     1       5.119   6.210  16.438  0.00  0.00    +0.000 C 
ATOM      3  N   UNL     1       4.723   6.437  17.832  0.00  0.00    +0.000 N 
ATOM      4  C   UNL     1       3.662   7.221  18.206  0.00  0.00    +0.000 A 
ATOM      5  C   UNL     1       3.314   8.344  17.465  0.00  0.00    +0.000 A 
ATOM      6  C   UNL     1       2.266   9.152  17.884  0.00  0.00    +0.000 A 
ATOM      7  C   UNL     1       1.567   8.837  19.028  0.00  0.00    +0.000 A 
ATOM      8  N   UNL     1       0.561   9.646  19.428  0.00  0.00    +0.000 NA
ATOM      9  C   UNL     1      -0.062   9.289  20.563  0.00  0.00    +0.000 A 
ATOM     10  C   UNL     1       0.301   8.153  21.259  0.00  0.00    +0.000 A 
ATOM     11  N   UNL     1       1.306   7.339  20.854  0.00  0.00    +0.000 NA
ATOM     12  C   UNL     1       1.961   7.674  19.735  0.00  0.00    +0.000 A 
ATOM     13  N   UNL     1       2.980   6.905  19.327  0.00  0.00    +0.000 NA
ATOM     14  C   UNL     1       5.465   5.657  18.824  0.00  0.00    +0.000 C 
ATOM     15  C   UNL     1       5.471   4.176  18.429  0.00  0.00    +0.000 C 
ATOM     16  O   UNL     1       5.968   3.985  17.095  0.00  0.00    +0.000 OA
ENDROOT
BRANCH   1  20
ATOM     17  C   UNL     1       6.708   4.015  12.149  0.00  0.00    +0.000 A 
ATOM     18  C   UNL     1       7.447   4.753  13.069  0.00  0.00    +0.000 A 
ATOM     19  C   UNL     1       6.949   4.964  14.354  0.00  0.00    +0.000 A 
ATOM     20  C   UNL     1       5.707   4.436  14.741  0.00  0.00    +0.000 A 
ATOM     21  C   UNL     1       4.969   3.697  13.802  0.00  0.00    +0.000 A 
ATOM     22  C   UNL     1       5.469   3.487  12.516  0.00  0.00    +0.000 A 
ENDBRANCH   1  20
TORSDOF 1
ENDMDL
MODEL 7
REMARK VINA RESULT:      -6.9      8.519     10.277
REMARK  Name = 
REMARK  1 active torsions:
REMARK  status: ('A' for Active; 'I' for Inactive)
REMARK    1  A    between atoms: C_4  and  C_5
REMARK                            x       y       z     vdW  Elec       q    Type
REMARK                         _______ _______ _______ _____ _____    ______ ____
ROOT
ATOM      1  C   UNL     1       0.380   9.882  19.627  0.00  0.00    +0.000 C 
ATOM      2  C   UNL     1      -0.410  10.422  18.406  0.00  0.00    +0.000 C 
ATOM      3  N   UNL     1      -1.274  11.535  18.814  0.00  0.00    +0.000 N 
ATOM      4  C   UNL     1      -2.628  11.566  18.604  0.00  0.00    +0.000 A 
ATOM      5  C   UNL     1      -3.185  10.971  17.479  0.00  0.00    +0.000 A 
ATOM      6  C   UNL     1      -4.553  11.050  17.259  0.00  0.00    +0.000 A 
ATOM      7  C   UNL     1      -5.359  11.714  18.158  0.00  0.00    +0.000 A 
ATOM      8  N   UNL     1      -6.686  11.795  17.916  0.00  0.00    +0.000 NA
ATOM      9  C   UNL     1      -7.406  12.474  18.824  0.00  0.00    +0.000 A 
ATOM     10  C   UNL     1      -6.817  13.034  19.941  0.00  0.00    +0.000 A 
ATOM     11  N   UNL     1      -5.487  12.946  20.186  0.00  0.00    +0.000 NA
ATOM     12  C   UNL     1      -4.735  12.291  19.291  0.00  0.00    +0.000 A 
ATOM     13  N   UNL     1      -3.412  12.215  19.490  0.00  0.00    +0.000 NA
ATOM     14  C   UNL     1      -0.612  12.583  19.592  0.00  0.00    +0.000 C 
ATOM     15  C   UNL     1       0.164  11.960  20.758  0.00  0.00    +0.000 C 
ATOM     16  O   UNL     1       1.079  10.950  20.306  0.00  0.00    +0.000 OA
ENDROOT
BRANCH   1  20
ATOM     17  C   UNL     1       3.212   6.862  18.363  0.00  0.00    +0.000 A 
ATOM     18  C   UNL     1       2.898   7.921  17.515  0.00  0.00    +0.000 A 
ATOM     19  C   UNL     1       1.991   8.897  17.926  0.00  0.00    +0.000 A 
ATOM     20  C   UNL     1       1.388   8.834  19.192  0.00  0.00    +0.000 A 
ATOM     21  C   UNL     1       1.710   7.759  20.036  0.00  0.00    +0.000 A 
ATOM     22  C   UNL     1       2.617   6.782  19.623  0.00  0.00    +0.000 A 
ENDBRANCH   1  20
TORSDOF 1
ENDMDL
MODEL 8
REMARK VINA RESULT:      -6.8      8.512     10.250
REMARK  Name = 
REMARK  1 active torsions:
REMARK  status: ('A' for Active; 'I' for Inactive)
REMARK    1  A    between atoms: C_4  and  C_5
REMARK                            x       y       z     vdW  Elec       q    Type
REMARK                         _______ _______ _______ _____ _____    ______ ____
ROOT
ATOM      1  C   UNL     1       0.404   9.940  19.552  0.00  0.00    +0.000 C 
ATOM      2  C   UNL     1      -0.490  10.331  18.346  0.00  0.00    +0.000 C 
ATOM      3  N   UNL     1      -1.325  11.487  18.689  0.00  0.00    +0.000 N 
ATOM      4  C   UNL     1      -2.693  11.496  18.592  0.00  0.00    +0.000 A 
ATOM      5  C   UNL     1      -3.338  10.771  17.598  0.00  0.00    +0.000 A 
ATOM      6  C   UNL     1      -4.720  10.827  17.486  0.00  0.00    +0.000 A 
ATOM      7  C   UNL     1      -5.452  11.595  18.364  0.00  0.00    +0.000 A 
ATOM      8  N   UNL     1      -6.796  11.650  18.227  0.00  0.00    +0.000 NA
ATOM      9  C   UNL     1      -7.442  12.435  19.106  0.00  0.00    +0.000 A 
ATOM     10  C   UNL     1      -6.766  13.123  20.093  0.00  0.00    +0.000 A 
ATOM     11  N   UNL     1      -5.419  13.063  20.233  0.00  0.00    +0.000 NA
ATOM     12  C   UNL     1      -4.740  12.303  19.364  0.00  0.00    +0.000 A 
ATOM     13  N   UNL     1      -3.404  12.248  19.458  0.00  0.00    +0.000 NA
ATOM     14  C   UNL     1      -0.608  12.620  19.278  0.00  0.00    +0.000 C 
ATOM     15  C   UNL     1       0.268  12.138  20.440  0.00  0.00    +0.000 C 
ATOM     16  O   UNL     1       1.150  11.079  20.037  0.00  0.00    +0.000 OA
ENDROOT
BRANCH   1  20
ATOM     17  C   UNL     1       3.230   6.845  18.467  0.00  0.00    +0.000 A 
ATOM     18  C   UNL     1       2.569   6.787  19.691  0.00  0.00    +0.000 A 
ATOM     19  C   UNL     1       1.654   7.780  20.036  0.00  0.00    +0.000 A 
ATOM     20  C   UNL     1       1.380   8.844  19.162  0.00  0.00    +0.000 A 
ATOM     21  C   UNL     1       2.056   8.894  17.933  0.00  0.00    +0.000 A 
ATOM     22  C   UNL     1       2.973   7.899  17.588  0.00  0.00    +0.000 A 
ENDBRANCH   1  20
TORSDOF 1
ENDMDL
MODEL 9
REMARK VINA RESULT:      -6.7      7.709      9.444
REMARK  Name = 
REMARK  1 active torsions:
REMARK  status: ('A' for Active; 'I' for Inactive)
REMARK    1  A    between atoms: C_4  and  C_5
REMARK                            x       y       z     vdW  Elec       q    Type
REMARK                         _______ _______ _______ _____ _____    ______ ____
ROOT
ATOM      1  C   UNL     1       1.052   8.972  19.580  0.00  0.00    +0.000 C 
ATOM      2  C   UNL     1       0.567   9.803  18.364  0.00  0.00    +0.000 C 
ATOM      3  N   UNL     1      -0.310  10.890  18.811  0.00  0.00    +0.000 N 
ATOM      4  C   UNL     1      -1.586  11.082  18.347  0.00  0.00    +0.000 A 
ATOM      5  C   UNL     1      -1.918  10.765  17.036  0.00  0.00    +0.000 A 
ATOM      6  C   UNL     1      -3.203  11.007  16.569  0.00  0.00    +0.000 A 
ATOM      7  C   UNL     1      -4.149  11.555  17.406  0.00  0.00    +0.000 A 
ATOM      8  N   UNL     1      -5.389  11.799  16.927  0.00  0.00    +0.000 NA
ATOM      9  C   UNL     1      -6.253  12.353  17.794  0.00  0.00    +0.000 A 
ATOM     10  C   UNL     1      -5.890  12.633  19.096  0.00  0.00    +0.000 A 
ATOM     11  N   UNL     1      -4.648  12.383  19.578  0.00  0.00    +0.000 NA
ATOM     12  C   UNL     1      -3.755  11.846  18.735  0.00  0.00    +0.000 A 
ATOM     13  N   UNL     1      -2.509  11.616  19.174  0.00  0.00    +0.000 NA
ATOM     14  C   UNL     1       0.219  11.707  19.905  0.00  0.00    +0.000 C 
ATOM     15  C   UNL     1       0.699  10.805  21.048  0.00  0.00    +0.000 C 
ATOM     16  O   UNL     1       1.640   9.823  20.589  0.00  0.00    +0.000 OA
ENDROOT
BRANCH   1  20
ATOM     17  C   UNL     1       3.939   6.003  18.319  0.00  0.00    +0.000 A 
ATOM     18  C   UNL     1       3.705   7.126  17.530  0.00  0.00    +0.000 A 
ATOM     19  C   UNL     1       2.780   8.085  17.941  0.00  0.00    +0.000 A 
ATOM     20  C   UNL     1       2.079   7.940  19.148  0.00  0.00    +0.000 A 
ATOM     21  C   UNL     1       2.321   6.801  19.933  0.00  0.00    +0.000 A 
ATOM     22  C   UNL     1       3.247   5.841  19.520  0.00  0.00    +0.000 A 
ENDBRANCH   1  20
TORSDOF 1
ENDMDL
