MODEL 1
REMARK VINA RESULT:      -6.2      0.000      0.000
REMARK  Name = 
REMARK  21 active torsions:
REMARK  status: ('A' for Active; 'I' for Inactive)
REMARK    1  A    between atoms: C_1  and  C_2
REMARK    2  A    between atoms: C_2  and  C_3
REMARK    3  A    between atoms: C_2  and  C_4
REMARK    4  A    between atoms: C_2  and  C_22
REMARK    5  A    between atoms: C_4  and  C_5
REMARK    6  A    between atoms: C_5  and  C_6
REMARK    7  A    between atoms: C_6  and  C_7
REMARK    8  A    between atoms: C_7  and  C_8
REMARK    9  A    between atoms: C_8  and  C_9
REMARK   10  A    between atoms: C_9  and  C_10
REMARK   11  A    between atoms: C_10  and  C_11
REMARK   12  A    between atoms: C_11  and  C_12
REMARK   13  A    between atoms: C_12  and  C_13
REMARK   14  A    between atoms: C_13  and  C_14
REMARK   15  A    between atoms: C_14  and  C_15
REMARK   16  A    between atoms: C_14  and  C_16
REMARK   17  A    between atoms: C_14  and  C_17
REMARK   18  A    between atoms: C_17  and  C_19
REMARK   19  A    between atoms: C_19  and  O_21
REMARK   20  A    between atoms: C_22  and  C_24
REMARK   21  A    between atoms: C_24  and  O_26
REMARK                            x       y       z     vdW  Elec       q    Type
REMARK                         _______ _______ _______ _____ _____    ______ ____
ROOT
ATOM      1  C   UNL     1       1.724   9.564  19.475  0.00  0.00    +0.000 C 
ENDROOT
BRANCH   1   2
ATOM      2  C   UNL     1       0.368   9.715  20.145  0.00  0.00    +0.000 C 
BRANCH   2   3
ATOM      3  C   UNL     1       0.174   8.556  21.110  0.00  0.00    +0.000 C 
BRANCH   3   4
ATOM      4  C   UNL     1       1.401   7.656  21.162  0.00  0.00    +0.000 C 
BRANCH   4   5
ATOM      5  C   UNL     1       1.052   6.193  20.886  0.00  0.00    +0.000 C 
BRANCH   5   6
ATOM      6  C   UNL     1       2.259   5.370  20.409  0.00  0.00    +0.000 C 
BRANCH   6   7
ATOM      7  C   UNL     1       2.055   3.835  20.368  0.00  0.00    +0.000 C 
ATOM      8  C   UNL     1       2.424   3.232  21.738  0.00  0.00    +0.000 C 
ATOM      9  C   UNL     1       0.584   3.497  20.055  0.00  0.00    +0.000 C 
BRANCH   7  10
ATOM     10  C   UNL     1       2.980   3.188  19.301  0.00  0.00    +0.000 C 
ATOM     11  F   UNL     1       3.486   2.020  19.834  0.00  0.00    +0.000 F 
BRANCH  10  12
ATOM     12  C   UNL     1       2.320   2.857  17.960  0.00  0.00    +0.000 C 
ATOM     13  O   UNL     1       1.742   3.648  17.232  0.00  0.00    +0.000 OA
BRANCH  12  14
ATOM     14  O   UNL     1       2.472   1.545  17.637  0.00  0.00    +0.000 OA
ATOM     15  H   UNL     1       2.070   0.978  18.333  0.00  0.00    +0.000 HD
ENDBRANCH  12  14
ENDBRANCH  10  12
ENDBRANCH   7  10
ENDBRANCH   6   7
ENDBRANCH   5   6
ENDBRANCH   4   5
ENDBRANCH   3   4
ENDBRANCH   2   3
ENDBRANCH   1   2
BRANCH   1  16
ATOM     16  C   UNL     1       1.591   9.339  17.975  0.00  0.00    +0.000 C 
BRANCH  16  17
ATOM     17  C   UNL     1       1.987   7.917  17.579  0.00  0.00    +0.000 C 
BRANCH  17  18
ATOM     18  C   UNL     1       3.497   7.696  17.690  0.00  0.00    +0.000 C 
BRANCH  18  19
ATOM     19  C   UNL     1       3.860   6.231  17.480  0.00  0.00    +0.000 C 
BRANCH  19  21
ATOM     20  C   UNL     1       6.229   7.120  17.212  0.00  0.00    +0.000 C 
ATOM     21  C   UNL     1       5.370   5.895  17.609  0.00  0.00    +0.000 C 
ATOM     22  C   UNL     1       5.733   5.522  19.060  0.00  0.00    +0.000 C 
BRANCH  21  23
ATOM     23  C   UNL     1       5.729   4.735  16.645  0.00  0.00    +0.000 C 
ATOM     24  F   UNL     1       5.057   4.943  15.460  0.00  0.00    +0.000 F 
BRANCH  23  25
ATOM     25  C   UNL     1       7.217   4.563  16.339  0.00  0.00    +0.000 C 
ATOM     26  O   UNL     1       8.084   4.202  17.121  0.00  0.00    +0.000 OA
BRANCH  25  27
ATOM     27  O   UNL     1       7.493   4.837  15.035  0.00  0.00    +0.000 OA
ATOM     28  H   UNL     1       8.389   5.234  14.962  0.00  0.00    +0.000 HD
ENDBRANCH  25  27
ENDBRANCH  23  25
ENDBRANCH  21  23
ENDBRANCH  19  21
ENDBRANCH  18  19
ENDBRANCH  17  18
ENDBRANCH  16  17
ENDBRANCH   1  16
TORSDOF 17
ENDMDL
MODEL 2
REMARK VINA RESULT:      -6.1      5.404      9.421
REMARK  Name = 
REMARK  21 active torsions:
REMARK  status: ('A' for Active; 'I' for Inactive)
REMARK    1  A    between atoms: C_1  and  C_2
REMARK    2  A    between atoms: C_2  and  C_3
REMARK    3  A    between atoms: C_2  and  C_4
REMARK    4  A    between atoms: C_2  and  C_22
REMARK    5  A    between atoms: C_4  and  C_5
REMARK    6  A    between atoms: C_5  and  C_6
REMARK    7  A    between atoms: C_6  and  C_7
REMARK    8  A    between atoms: C_7  and  C_8
REMARK    9  A    between atoms: C_8  and  C_9
REMARK   10  A    between atoms: C_9  and  C_10
REMARK   11  A    between atoms: C_10  and  C_11
REMARK   12  A    between atoms: C_11  and  C_12
REMARK   13  A    between atoms: C_12  and  C_13
REMARK   14  A    between atoms: C_13  and  C_14
REMARK   15  A    between atoms: C_14  and  C_15
REMARK   16  A    between atoms: C_14  and  C_16
REMARK   17  A    between atoms: C_14  and  C_17
REMARK   18  A    between atoms: C_17  and  C_19
REMARK   19  A    between atoms: C_19  and  O_21
REMARK   20  A    between atoms: C_22  and  C_24
REMARK   21  A    between atoms: C_24  and  O_26
REMARK                            x       y       z     vdW  Elec       q    Type
REMARK                         _______ _______ _______ _____ _____    ______ ____
ROOT
ATOM      1  C   UNL     1       7.516   5.692  17.859  0.00  0.00    +0.000 C 
ENDROOT
BRANCH   1   2
ATOM      2  C   UNL     1       7.370   7.144  17.434  0.00  0.00    +0.000 C 
BRANCH   2   3
ATOM      3  C   UNL     1       8.260   7.998  18.323  0.00  0.00    +0.000 C 
BRANCH   3   4
ATOM      4  C   UNL     1       8.242   9.460  17.898  0.00  0.00    +0.000 C 
BRANCH   4   5
ATOM      5  C   UNL     1       9.251  10.299  18.683  0.00  0.00    +0.000 C 
BRANCH   5   6
ATOM      6  C   UNL     1       9.422  11.716  18.112  0.00  0.00    +0.000 C 
BRANCH   6   7
ATOM      7  C   UNL     1       9.583  12.848  19.158  0.00  0.00    +0.000 C 
ATOM      8  C   UNL     1       8.383  13.812  19.058  0.00  0.00    +0.000 C 
ATOM      9  C   UNL     1       9.632  12.262  20.582  0.00  0.00    +0.000 C 
BRANCH   7  10
ATOM     10  C   UNL     1      10.873  13.668  18.882  0.00  0.00    +0.000 C 
ATOM     11  F   UNL     1      11.902  13.087  19.595  0.00  0.00    +0.000 F 
BRANCH  10  12
ATOM     12  C   UNL     1      11.300  13.763  17.416  0.00  0.00    +0.000 C 
ATOM     13  O   UNL     1      12.171  13.097  16.879  0.00  0.00    +0.000 OA
BRANCH  12  14
ATOM     14  O   UNL     1      10.563  14.682  16.737  0.00  0.00    +0.000 OA
ATOM     15  H   UNL     1       9.751  14.906  17.248  0.00  0.00    +0.000 HD
ENDBRANCH  12  14
ENDBRANCH  10  12
ENDBRANCH   7  10
ENDBRANCH   6   7
ENDBRANCH   5   6
ENDBRANCH   4   5
ENDBRANCH   3   4
ENDBRANCH   2   3
ENDBRANCH   1   2
BRANCH   1  16
ATOM     16  C   UNL     1       6.973   5.455  19.262  0.00  0.00    +0.000 C 
BRANCH  16  17
ATOM     17  C   UNL     1       5.451   5.318  19.263  0.00  0.00    +0.000 C 
BRANCH  17  18
ATOM     18  C   UNL     1       4.967   4.346  18.185  0.00  0.00    +0.000 C 
BRANCH  18  19
ATOM     19  C   UNL     1       4.090   3.250  18.780  0.00  0.00    +0.000 C 
BRANCH  19  21
ATOM     20  C   UNL     1       2.222   4.721  17.873  0.00  0.00    +0.000 C 
ATOM     21  C   UNL     1       2.576   3.581  18.858  0.00  0.00    +0.000 C 
ATOM     22  C   UNL     1       1.721   2.356  18.479  0.00  0.00    +0.000 C 
BRANCH  21  23
ATOM     23  C   UNL     1       2.222   4.067  20.288  0.00  0.00    +0.000 C 
ATOM     24  F   UNL     1       1.017   4.732  20.225  0.00  0.00    +0.000 F 
BRANCH  23  25
ATOM     25  C   UNL     1       2.122   2.975  21.354  0.00  0.00    +0.000 C 
ATOM     26  O   UNL     1       3.055   2.411  21.908  0.00  0.00    +0.000 OA
BRANCH  25  27
ATOM     27  O   UNL     1       0.827   2.698  21.664  0.00  0.00    +0.000 OA
ATOM     28  H   UNL     1       0.312   3.533  21.720  0.00  0.00    +0.000 HD
ENDBRANCH  25  27
ENDBRANCH  23  25
ENDBRANCH  21  23
ENDBRANCH  19  21
ENDBRANCH  18  19
ENDBRANCH  17  18
ENDBRANCH  16  17
ENDBRANCH   1  16
TORSDOF 17
ENDMDL
MODEL 3
REMARK VINA RESULT:      -6.0      5.228      6.664
REMARK  Name = 
REMARK  21 active torsions:
REMARK  status: ('A' for Active; 'I' for Inactive)
REMARK    1  A    between atoms: C_1  and  C_2
REMARK    2  A    between atoms: C_2  and  C_3
REMARK    3  A    between atoms: C_2  and  C_4
REMARK    4  A    between atoms: C_2  and  C_22
REMARK    5  A    between atoms: C_4  and  C_5
REMARK    6  A    between atoms: C_5  and  C_6
REMARK    7  A    between atoms: C_6  and  C_7
REMARK    8  A    between atoms: C_7  and  C_8
REMARK    9  A    between atoms: C_8  and  C_9
REMARK   10  A    between atoms: C_9  and  C_10
REMARK   11  A    between atoms: C_10  and  C_11
REMARK   12  A    between atoms: C_11  and  C_12
REMARK   13  A    between atoms: C_12  and  C_13
REMARK   14  A    between atoms: C_13  and  C_14
REMARK   15  A    between atoms: C_14  and  C_15
REMARK   16  A    between atoms: C_14  and  C_16
REMARK   17  A    between atoms: C_14  and  C_17
REMARK   18  A    between atoms: C_17  and  C_19
REMARK   19  A    between atoms: C_19  and  O_21
REMARK   20  A    between atoms: C_22  and  C_24
REMARK   21  A    between atoms: C_24  and  O_26
REMARK                            x       y       z     vdW  Elec       q    Type
REMARK                         _______ _______ _______ _____ _____    ______ ____
ROOT
ATOM      1  C   UNL     1       7.565   7.057  17.399  0.00  0.00    +0.000 C 
ENDROOT
BRANCH   1   2
ATOM      2  C   UNL     1       7.706   6.242  18.673  0.00  0.00    +0.000 C 
BRANCH   2   3
ATOM      3  C   UNL     1       6.376   5.566  18.964  0.00  0.00    +0.000 C 
BRANCH   3   4
ATOM      4  C   UNL     1       5.403   5.717  17.804  0.00  0.00    +0.000 C 
BRANCH   4   5
ATOM      5  C   UNL     1       4.035   6.226  18.263  0.00  0.00    +0.000 C 
BRANCH   5   6
ATOM      6  C   UNL     1       2.904   5.217  18.002  0.00  0.00    +0.000 C 
BRANCH   6   7
ATOM      7  C   UNL     1       2.466   4.367  19.221  0.00  0.00    +0.000 C 
ATOM      8  C   UNL     1       2.431   5.257  20.480  0.00  0.00    +0.000 C 
ATOM      9  C   UNL     1       1.061   3.779  18.989  0.00  0.00    +0.000 C 
BRANCH   7  10
ATOM     10  C   UNL     1       3.479   3.220  19.480  0.00  0.00    +0.000 C 
ATOM     11  F   UNL     1       3.154   2.634  20.686  0.00  0.00    +0.000 F 
BRANCH  10  12
ATOM     12  C   UNL     1       3.531   2.124  18.413  0.00  0.00    +0.000 C 
ATOM     13  O   UNL     1       4.154   2.175  17.364  0.00  0.00    +0.000 OA
BRANCH  12  14
ATOM     14  O   UNL     1       2.805   1.034  18.778  0.00  0.00    +0.000 OA
ATOM     15  H   UNL     1       2.066   1.304  19.369  0.00  0.00    +0.000 HD
ENDBRANCH  12  14
ENDBRANCH  10  12
ENDBRANCH   7  10
ENDBRANCH   6   7
ENDBRANCH   5   6
ENDBRANCH   4   5
ENDBRANCH   3   4
ENDBRANCH   2   3
ENDBRANCH   1   2
BRANCH   1  16
ATOM     16  C   UNL     1       7.530   8.553  17.685  0.00  0.00    +0.000 C 
BRANCH  16  17
ATOM     17  C   UNL     1       8.718   8.993  18.540  0.00  0.00    +0.000 C 
BRANCH  17  18
ATOM     18  C   UNL     1       9.154  10.424  18.214  0.00  0.00    +0.000 C 
BRANCH  18  19
ATOM     19  C   UNL     1       9.688  11.136  19.451  0.00  0.00    +0.000 C 
BRANCH  19  21
ATOM     20  C   UNL     1      10.743  13.313  20.239  0.00  0.00    +0.000 C 
ATOM     21  C   UNL     1      10.804  12.181  19.186  0.00  0.00    +0.000 C 
ATOM     22  C   UNL     1      12.200  11.534  19.277  0.00  0.00    +0.000 C 
BRANCH  21  23
ATOM     23  C   UNL     1      10.594  12.823  17.790  0.00  0.00    +0.000 C 
ATOM     24  F   UNL     1       9.530  13.694  17.879  0.00  0.00    +0.000 F 
BRANCH  23  25
ATOM     25  C   UNL     1      11.796  13.576  17.219  0.00  0.00    +0.000 C 
ATOM     26  O   UNL     1      12.304  14.590  17.675  0.00  0.00    +0.000 OA
BRANCH  25  27
ATOM     27  O   UNL     1      12.289  12.960  16.110  0.00  0.00    +0.000 OA
ATOM     28  H   UNL     1      13.253  12.799  16.221  0.00  0.00    +0.000 HD
ENDBRANCH  25  27
ENDBRANCH  23  25
ENDBRANCH  21  23
ENDBRANCH  19  21
ENDBRANCH  18  19
ENDBRANCH  17  18
ENDBRANCH  16  17
ENDBRANCH   1  16
TORSDOF 17
ENDMDL
MODEL 4
REMARK VINA RESULT:      -6.0      4.969      6.453
REMARK  Name = 
REMARK  21 active torsions:
REMARK  status: ('A' for Active; 'I' for Inactive)
REMARK    1  A    between atoms: C_1  and  C_2
REMARK    2  A    between atoms: C_2  and  C_3
REMARK    3  A    between atoms: C_2  and  C_4
REMARK    4  A    between atoms: C_2  and  C_22
REMARK    5  A    between atoms: C_4  and  C_5
REMARK    6  A    between atoms: C_5  and  C_6
REMARK    7  A    between atoms: C_6  and  C_7
REMARK    8  A    between atoms: C_7  and  C_8
REMARK    9  A    between atoms: C_8  and  C_9
REMARK   10  A    between atoms: C_9  and  C_10
REMARK   11  A    between atoms: C_10  and  C_11
REMARK   12  A    between atoms: C_11  and  C_12
REMARK   13  A    between atoms: C_12  and  C_13
REMARK   14  A    between atoms: C_13  and  C_14
REMARK   15  A    between atoms: C_14  and  C_15
REMARK   16  A    between atoms: C_14  and  C_16
REMARK   17  A    between atoms: C_14  and  C_17
REMARK   18  A    between atoms: C_17  and  C_19
REMARK   19  A    between atoms: C_19  and  O_21
REMARK   20  A    between atoms: C_22  and  C_24
REMARK   21  A    between atoms: C_24  and  O_26
REMARK                            x       y       z     vdW  Elec       q    Type
REMARK                         _______ _______ _______ _____ _____    ______ ____
ROOT
ATOM      1  C   UNL     1       6.624   6.755  17.938  0.00  0.00    +0.000 C 
ENDROOT
BRANCH   1   2
ATOM      2  C   UNL     1       6.294   5.669  16.928  0.00  0.00    +0.000 C 
BRANCH   2   3
ATOM      3  C   UNL     1       4.790   5.445  16.934  0.00  0.00    +0.000 C 
BRANCH   3   4
ATOM      4  C   UNL     1       4.045   6.642  17.506  0.00  0.00    +0.000 C 
BRANCH   4   5
ATOM      5  C   UNL     1       2.896   6.219  18.422  0.00  0.00    +0.000 C 
BRANCH   5   6
ATOM      6  C   UNL     1       2.537   4.731  18.282  0.00  0.00    +0.000 C 
BRANCH   6   7
ATOM      7  C   UNL     1       2.029   4.037  19.571  0.00  0.00    +0.000 C 
ATOM      8  C   UNL     1       1.556   5.106  20.577  0.00  0.00    +0.000 C 
ATOM      9  C   UNL     1       0.848   3.101  19.248  0.00  0.00    +0.000 C 
BRANCH   7  10
ATOM     10  C   UNL     1       3.172   3.228  20.243  0.00  0.00    +0.000 C 
ATOM     11  F   UNL     1       2.603   2.398  21.187  0.00  0.00    +0.000 F 
BRANCH  10  12
ATOM     12  C   UNL     1       4.023   2.372  19.303  0.00  0.00    +0.000 C 
ATOM     13  O   UNL     1       3.630   1.418  18.650  0.00  0.00    +0.000 OA
BRANCH  12  14
ATOM     14  O   UNL     1       5.307   2.816  19.244  0.00  0.00    +0.000 OA
ATOM     15  H   UNL     1       5.862   2.326  19.892  0.00  0.00    +0.000 HD
ENDBRANCH  12  14
ENDBRANCH  10  12
ENDBRANCH   7  10
ENDBRANCH   6   7
ENDBRANCH   5   6
ENDBRANCH   4   5
ENDBRANCH   3   4
ENDBRANCH   2   3
ENDBRANCH   1   2
BRANCH   1  16
ATOM     16  C   UNL     1       7.629   7.756  17.384  0.00  0.00    +0.000 C 
BRANCH  16  17
ATOM     17  C   UNL     1       8.475   8.381  18.492  0.00  0.00    +0.000 C 
BRANCH  17  18
ATOM     18  C   UNL     1       8.707   9.876  18.256  0.00  0.00    +0.000 C 
BRANCH  18  19
ATOM     19  C   UNL     1       9.419  10.520  19.439  0.00  0.00    +0.000 C 
BRANCH  19  21
ATOM     20  C   UNL     1      11.684  11.588  19.889  0.00  0.00    +0.000 C 
ATOM     21  C   UNL     1      10.367  11.696  19.083  0.00  0.00    +0.000 C 
ATOM     22  C   UNL     1      10.734  11.678  17.586  0.00  0.00    +0.000 C 
BRANCH  21  23
ATOM     23  C   UNL     1       9.692  13.040  19.460  0.00  0.00    +0.000 C 
ATOM     24  F   UNL     1       8.420  13.041  18.930  0.00  0.00    +0.000 F 
BRANCH  23  25
ATOM     25  C   UNL     1       9.598  13.340  20.956  0.00  0.00    +0.000 C 
ATOM     26  O   UNL     1      10.256  14.163  21.577  0.00  0.00    +0.000 OA
BRANCH  25  27
ATOM     27  O   UNL     1       8.642  12.582  21.557  0.00  0.00    +0.000 OA
ATOM     28  H   UNL     1       8.077  13.150  22.127  0.00  0.00    +0.000 HD
ENDBRANCH  25  27
ENDBRANCH  23  25
ENDBRANCH  21  23
ENDBRANCH  19  21
ENDBRANCH  18  19
ENDBRANCH  17  18
ENDBRANCH  16  17
ENDBRANCH   1  16
TORSDOF 17
ENDMDL
MODEL 5
REMARK VINA RESULT:      -5.9      4.978      6.482
REMARK  Name = 
REMARK  21 active torsions:
REMARK  status: ('A' for Active; 'I' for Inactive)
REMARK    1  A    between atoms: C_1  and  C_2
REMARK    2  A    between atoms: C_2  and  C_3
REMARK    3  A    between atoms: C_2  and  C_4
REMARK    4  A    between atoms: C_2  and  C_22
REMARK    5  A    between atoms: C_4  and  C_5
REMARK    6  A    between atoms: C_5  and  C_6
REMARK    7  A    between atoms: C_6  and  C_7
REMARK    8  A    between atoms: C_7  and  C_8
REMARK    9  A    between atoms: C_8  and  C_9
REMARK   10  A    between atoms: C_9  and  C_10
REMARK   11  A    between atoms: C_10  and  C_11
REMARK   12  A    between atoms: C_11  and  C_12
REMARK   13  A    between atoms: C_12  and  C_13
REMARK   14  A    between atoms: C_13  and  C_14
REMARK   15  A    between atoms: C_14  and  C_15
REMARK   16  A    between atoms: C_14  and  C_16
REMARK   17  A    between atoms: C_14  and  C_17
REMARK   18  A    between atoms: C_17  and  C_19
REMARK   19  A    between atoms: C_19  and  O_21
REMARK   20  A    between atoms: C_22  and  C_24
REMARK   21  A    between atoms: C_24  and  O_26
REMARK                            x       y       z     vdW  Elec       q    Type
REMARK                         _______ _______ _______ _____ _____    ______ ____
ROOT
ATOM      1  C   UNL     1       7.744   6.535  17.941  0.00  0.00    +0.000 C 
ENDROOT
BRANCH   1   2
ATOM      2  C   UNL     1       6.378   5.881  17.817  0.00  0.00    +0.000 C 
BRANCH   2   3
ATOM      3  C   UNL     1       5.502   6.756  16.936  0.00  0.00    +0.000 C 
BRANCH   3   4
ATOM      4  C   UNL     1       4.134   6.994  17.561  0.00  0.00    +0.000 C 
BRANCH   4   5
ATOM      5  C   UNL     1       3.332   5.699  17.696  0.00  0.00    +0.000 C 
BRANCH   5   6
ATOM      6  C   UNL     1       3.251   5.195  19.146  0.00  0.00    +0.000 C 
BRANCH   6   7
ATOM      7  C   UNL     1       2.157   4.135  19.431  0.00  0.00    +0.000 C 
ATOM      8  C   UNL     1       1.152   4.700  20.455  0.00  0.00    +0.000 C 
ATOM      9  C   UNL     1       1.401   3.782  18.135  0.00  0.00    +0.000 C 
BRANCH   7  10
ATOM     10  C   UNL     1       2.784   2.852  20.040  0.00  0.00    +0.000 C 
ATOM     11  F   UNL     1       1.761   1.958  20.284  0.00  0.00    +0.000 F 
BRANCH  10  12
ATOM     12  C   UNL     1       3.837   2.152  19.178  0.00  0.00    +0.000 C 
ATOM     13  O   UNL     1       3.612   1.384  18.255  0.00  0.00    +0.000 OA
BRANCH  12  14
ATOM     14  O   UNL     1       5.098   2.507  19.540  0.00  0.00    +0.000 OA
ATOM     15  H   UNL     1       5.692   1.722  19.503  0.00  0.00    +0.000 HD
ENDBRANCH  12  14
ENDBRANCH  10  12
ENDBRANCH   7  10
ENDBRANCH   6   7
ENDBRANCH   5   6
ENDBRANCH   4   5
ENDBRANCH   3   4
ENDBRANCH   2   3
ENDBRANCH   1   2
BRANCH   1  16
ATOM     16  C   UNL     1       7.695   8.017  17.591  0.00  0.00    +0.000 C 
BRANCH  16  17
ATOM     17  C   UNL     1       8.570   8.848  18.527  0.00  0.00    +0.000 C 
BRANCH  17  18
ATOM     18  C   UNL     1       8.785  10.267  17.994  0.00  0.00    +0.000 C 
BRANCH  18  19
ATOM     19  C   UNL     1       9.098  11.242  19.122  0.00  0.00    +0.000 C 
BRANCH  19  21
ATOM     20  C   UNL     1      11.029  12.445  20.263  0.00  0.00    +0.000 C 
ATOM     21  C   UNL     1      10.354  12.127  18.906  0.00  0.00    +0.000 C 
ATOM     22  C   UNL     1      11.395  11.406  18.027  0.00  0.00    +0.000 C 
BRANCH  21  23
ATOM     23  C   UNL     1       9.938  13.473  18.259  0.00  0.00    +0.000 C 
ATOM     24  F   UNL     1      10.267  13.422  16.922  0.00  0.00    +0.000 F 
BRANCH  23  25
ATOM     25  C   UNL     1       8.460  13.841  18.385  0.00  0.00    +0.000 C 
ATOM     26  O   UNL     1       7.597  13.693  17.531  0.00  0.00    +0.000 OA
BRANCH  25  27
ATOM     27  O   UNL     1       8.175  14.350  19.614  0.00  0.00    +0.000 OA
ATOM     28  H   UNL     1       8.933  14.887  19.935  0.00  0.00    +0.000 HD
ENDBRANCH  25  27
ENDBRANCH  23  25
ENDBRANCH  21  23
ENDBRANCH  19  21
ENDBRANCH  18  19
ENDBRANCH  17  18
ENDBRANCH  16  17
ENDBRANCH   1  16
TORSDOF 17
ENDMDL
MODEL 6
REMARK VINA RESULT:      -5.9      5.972      7.501
REMARK  Name = 
REMARK  21 active torsions:
REMARK  status: ('A' for Active; 'I' for Inactive)
REMARK    1  A    between atoms: C_1  and  C_2
REMARK    2  A    between atoms: C_2  and  C_3
REMARK    3  A    between atoms: C_2  and  C_4
REMARK    4  A    between atoms: C_2  and  C_22
REMARK    5  A    between atoms: C_4  and  C_5
REMARK    6  A    between atoms: C_5  and  C_6
REMARK    7  A    between atoms: C_6  and  C_7
REMARK    8  A    between atoms: C_7  and  C_8
REMARK    9  A    between atoms: C_8  and  C_9
REMARK   10  A    between atoms: C_9  and  C_10
REMARK   11  A    between atoms: C_10  and  C_11
REMARK   12  A    between atoms: C_11  and  C_12
REMARK   13  A    between atoms: C_12  and  C_13
REMARK   14  A    between atoms: C_13  and  C_14
REMARK   15  A    between atoms: C_14  and  C_15
REMARK   16  A    between atoms: C_14  and  C_16
REMARK   17  A    between atoms: C_14  and  C_17
REMARK   18  A    between atoms: C_17  and  C_19
REMARK   19  A    between atoms: C_19  and  O_21
REMARK   20  A    between atoms: C_22  and  C_24
REMARK   21  A    between atoms: C_24  and  O_26
REMARK                            x       y       z     vdW  Elec       q    Type
REMARK                         _______ _______ _______ _____ _____    ______ ____
ROOT
ATOM      1  C   UNL     1       7.612   8.677  17.649  0.00  0.00    +0.000 C 
ENDROOT
BRANCH   1   2
ATOM      2  C   UNL     1       7.208   7.229  17.426  0.00  0.00    +0.000 C 
BRANCH   2   3
ATOM      3  C   UNL     1       7.809   6.384  18.538  0.00  0.00    +0.000 C 
BRANCH   3   4
ATOM      4  C   UNL     1       7.018   5.103  18.761  0.00  0.00    +0.000 C 
BRANCH   4   5
ATOM      5  C   UNL     1       5.588   5.383  19.224  0.00  0.00    +0.000 C 
BRANCH   5   6
ATOM      6  C   UNL     1       4.528   4.759  18.302  0.00  0.00    +0.000 C 
BRANCH   6   7
ATOM      7  C   UNL     1       3.057   5.124  18.623  0.00  0.00    +0.000 C 
ATOM      8  C   UNL     1       2.794   6.590  18.221  0.00  0.00    +0.000 C 
ATOM      9  C   UNL     1       2.093   4.213  17.839  0.00  0.00    +0.000 C 
BRANCH   7  10
ATOM     10  C   UNL     1       2.781   4.994  20.145  0.00  0.00    +0.000 C 
ATOM     11  F   UNL     1       1.914   6.006  20.505  0.00  0.00    +0.000 F 
BRANCH  10  12
ATOM     12  C   UNL     1       2.180   3.663  20.601  0.00  0.00    +0.000 C 
ATOM     13  O   UNL     1       1.002   3.457  20.851  0.00  0.00    +0.000 OA
BRANCH  12  14
ATOM     14  O   UNL     1       3.123   2.686  20.678  0.00  0.00    +0.000 OA
ATOM     15  H   UNL     1       3.866   2.889  20.065  0.00  0.00    +0.000 HD
ENDBRANCH  12  14
ENDBRANCH  10  12
ENDBRANCH   7  10
ENDBRANCH   6   7
ENDBRANCH   5   6
ENDBRANCH   4   5
ENDBRANCH   3   4
ENDBRANCH   2   3
ENDBRANCH   1   2
BRANCH   1  16
ATOM     16  C   UNL     1       8.815   8.792  18.576  0.00  0.00    +0.000 C 
BRANCH  16  17
ATOM     17  C   UNL     1       8.984  10.214  19.109  0.00  0.00    +0.000 C 
BRANCH  17  18
ATOM     18  C   UNL     1       9.918  11.045  18.225  0.00  0.00    +0.000 C 
BRANCH  18  19
ATOM     19  C   UNL     1       9.694  12.538  18.432  0.00  0.00    +0.000 C 
BRANCH  19  21
ATOM     20  C   UNL     1      10.189  13.666  20.658  0.00  0.00    +0.000 C 
ATOM     21  C   UNL     1      10.772  13.259  19.284  0.00  0.00    +0.000 C 
ATOM     22  C   UNL     1      11.980  12.338  19.544  0.00  0.00    +0.000 C 
BRANCH  21  23
ATOM     23  C   UNL     1      11.225  14.555  18.562  0.00  0.00    +0.000 C 
ATOM     24  F   UNL     1      12.330  15.046  19.223  0.00  0.00    +0.000 F 
BRANCH  23  25
ATOM     25  C   UNL     1      11.570  14.403  17.080  0.00  0.00    +0.000 C 
ATOM     26  O   UNL     1      12.326  13.577  16.589  0.00  0.00    +0.000 OA
BRANCH  25  27
ATOM     27  O   UNL     1      10.896  15.306  16.316  0.00  0.00    +0.000 OA
ATOM     28  H   UNL     1      10.453  14.845  15.570  0.00  0.00    +0.000 HD
ENDBRANCH  25  27
ENDBRANCH  23  25
ENDBRANCH  21  23
ENDBRANCH  19  21
ENDBRANCH  18  19
ENDBRANCH  17  18
ENDBRANCH  16  17
ENDBRANCH   1  16
TORSDOF 17
ENDMDL
MODEL 7
REMARK VINA RESULT:      -5.9      5.136      6.834
REMARK  Name = 
REMARK  21 active torsions:
REMARK  status: ('A' for Active; 'I' for Inactive)
REMARK    1  A    between atoms: C_1  and  C_2
REMARK    2  A    between atoms: C_2  and  C_3
REMARK    3  A    between atoms: C_2  and  C_4
REMARK    4  A    between atoms: C_2  and  C_22
REMARK    5  A    between atoms: C_4  and  C_5
REMARK    6  A    between atoms: C_5  and  C_6
REMARK    7  A    between atoms: C_6  and  C_7
REMARK    8  A    between atoms: C_7  and  C_8
REMARK    9  A    between atoms: C_8  and  C_9
REMARK   10  A    between atoms: C_9  and  C_10
REMARK   11  A    between atoms: C_10  and  C_11
REMARK   12  A    between atoms: C_11  and  C_12
REMARK   13  A    between atoms: C_12  and  C_13
REMARK   14  A    between atoms: C_13  and  C_14
REMARK   15  A    between atoms: C_14  and  C_15
REMARK   16  A    between atoms: C_14  and  C_16
REMARK   17  A    between atoms: C_14  and  C_17
REMARK   18  A    between atoms: C_17  and  C_19
REMARK   19  A    between atoms: C_19  and  O_21
REMARK   20  A    between atoms: C_22  and  C_24
REMARK   21  A    between atoms: C_24  and  O_26
REMARK                            x       y       z     vdW  Elec       q    Type
REMARK                         _______ _______ _______ _____ _____    ______ ____
ROOT
ATOM      1  C   UNL     1       8.028   7.209  17.741  0.00  0.00    +0.000 C 
ENDROOT
BRANCH   1   2
ATOM      2  C   UNL     1       7.276   6.168  18.554  0.00  0.00    +0.000 C 
BRANCH   2   3
ATOM      3  C   UNL     1       7.185   4.890  17.735  0.00  0.00    +0.000 C 
BRANCH   3   4
ATOM      4  C   UNL     1       6.392   5.099  16.453  0.00  0.00    +0.000 C 
BRANCH   4   5
ATOM      5  C   UNL     1       4.927   5.437  16.732  0.00  0.00    +0.000 C 
BRANCH   5   6
ATOM      6  C   UNL     1       4.116   4.224  17.218  0.00  0.00    +0.000 C 
BRANCH   6   7
ATOM      7  C   UNL     1       3.020   4.525  18.271  0.00  0.00    +0.000 C 
ATOM      8  C   UNL     1       3.203   5.960  18.805  0.00  0.00    +0.000 C 
ATOM      9  C   UNL     1       1.619   4.403  17.639  0.00  0.00    +0.000 C 
BRANCH   7  10
ATOM     10  C   UNL     1       3.138   3.553  19.476  0.00  0.00    +0.000 C 
ATOM     11  F   UNL     1       1.861   3.192  19.854  0.00  0.00    +0.000 F 
BRANCH  10  12
ATOM     12  C   UNL     1       3.942   2.275  19.224  0.00  0.00    +0.000 C 
ATOM     13  O   UNL     1       3.554   1.295  18.608  0.00  0.00    +0.000 OA
BRANCH  12  14
ATOM     14  O   UNL     1       5.191   2.355  19.754  0.00  0.00    +0.000 OA
ATOM     15  H   UNL     1       5.205   3.015  20.484  0.00  0.00    +0.000 HD
ENDBRANCH  12  14
ENDBRANCH  10  12
ENDBRANCH   7  10
ENDBRANCH   6   7
ENDBRANCH   5   6
ENDBRANCH   4   5
ENDBRANCH   3   4
ENDBRANCH   2   3
ENDBRANCH   1   2
BRANCH   1  16
ATOM     16  C   UNL     1       7.257   8.520  17.651  0.00  0.00    +0.000 C 
BRANCH  16  17
ATOM     17  C   UNL     1       8.189   9.729  17.711  0.00  0.00    +0.000 C 
BRANCH  17  18
ATOM     18  C   UNL     1       9.178   9.628  18.875  0.00  0.00    +0.000 C 
BRANCH  18  19
ATOM     19  C   UNL     1       9.309  10.957  19.609  0.00  0.00    +0.000 C 
BRANCH  19  21
ATOM     20  C   UNL     1      11.013  12.761  20.171  0.00  0.00    +0.000 C 
ATOM     21  C   UNL     1      10.371  11.931  19.033  0.00  0.00    +0.000 C 
ATOM     22  C   UNL     1      11.501  11.161  18.323  0.00  0.00    +0.000 C 
BRANCH  21  23
ATOM     23  C   UNL     1       9.692  12.922  18.053  0.00  0.00    +0.000 C 
ATOM     24  F   UNL     1       8.610  13.483  18.697  0.00  0.00    +0.000 F 
BRANCH  23  25
ATOM     25  C   UNL     1      10.581  14.047  17.523  0.00  0.00    +0.000 C 
ATOM     26  O   UNL     1      10.917  15.056  18.127  0.00  0.00    +0.000 OA
BRANCH  25  27
ATOM     27  O   UNL     1      11.009  13.790  16.257  0.00  0.00    +0.000 OA
ATOM     28  H   UNL     1      11.510  12.945  16.241  0.00  0.00    +0.000 HD
ENDBRANCH  25  27
ENDBRANCH  23  25
ENDBRANCH  21  23
ENDBRANCH  19  21
ENDBRANCH  18  19
ENDBRANCH  17  18
ENDBRANCH  16  17
ENDBRANCH   1  16
TORSDOF 17
ENDMDL
MODEL 8
REMARK VINA RESULT:      -5.8      3.038      6.820
REMARK  Name = 
REMARK  21 active torsions:
REMARK  status: ('A' for Active; 'I' for Inactive)
REMARK    1  A    between atoms: C_1  and  C_2
REMARK    2  A    between atoms: C_2  and  C_3
REMARK    3  A    between atoms: C_2  and  C_4
REMARK    4  A    between atoms: C_2  and  C_22
REMARK    5  A    between atoms: C_4  and  C_5
REMARK    6  A    between atoms: C_5  and  C_6
REMARK    7  A    between atoms: C_6  and  C_7
REMARK    8  A    between atoms: C_7  and  C_8
REMARK    9  A    between atoms: C_8  and  C_9
REMARK   10  A    between atoms: C_9  and  C_10
REMARK   11  A    between atoms: C_10  and  C_11
REMARK   12  A    between atoms: C_11  and  C_12
REMARK   13  A    between atoms: C_12  and  C_13
REMARK   14  A    between atoms: C_13  and  C_14
REMARK   15  A    between atoms: C_14  and  C_15
REMARK   16  A    between atoms: C_14  and  C_16
REMARK   17  A    between atoms: C_14  and  C_17
REMARK   18  A    between atoms: C_17  and  C_19
REMARK   19  A    between atoms: C_19  and  O_21
REMARK   20  A    between atoms: C_22  and  C_24
REMARK   21  A    between atoms: C_24  and  O_26
REMARK                            x       y       z     vdW  Elec       q    Type
REMARK                         _______ _______ _______ _____ _____    ______ ____
ROOT
ATOM      1  C   UNL     1       1.534   6.354  20.621  0.00  0.00    +0.000 C 
ENDROOT
BRANCH   1   2
ATOM      2  C   UNL     1       2.081   4.941  20.742  0.00  0.00    +0.000 C 
BRANCH   2   3
ATOM      3  C   UNL     1       1.562   4.120  19.573  0.00  0.00    +0.000 C 
BRANCH   3   4
ATOM      4  C   UNL     1       2.485   2.954  19.250  0.00  0.00    +0.000 C 
BRANCH   4   5
ATOM      5  C   UNL     1       3.130   3.097  17.870  0.00  0.00    +0.000 C 
BRANCH   5   6
ATOM      6  C   UNL     1       3.304   4.563  17.441  0.00  0.00    +0.000 C 
BRANCH   6   7
ATOM      7  C   UNL     1       4.760   5.092  17.428  0.00  0.00    +0.000 C 
ATOM      8  C   UNL     1       4.772   6.547  16.915  0.00  0.00    +0.000 C 
ATOM      9  C   UNL     1       5.357   5.060  18.848  0.00  0.00    +0.000 C 
BRANCH   7  10
ATOM     10  C   UNL     1       5.641   4.245  16.468  0.00  0.00    +0.000 C 
ATOM     11  F   UNL     1       5.077   4.310  15.211  0.00  0.00    +0.000 F 
BRANCH  10  12
ATOM     12  C   UNL     1       7.106   4.672  16.360  0.00  0.00    +0.000 C 
ATOM     13  O   UNL     1       8.007   4.339  17.114  0.00  0.00    +0.000 OA
BRANCH  12  14
ATOM     14  O   UNL     1       7.317   5.472  15.280  0.00  0.00    +0.000 OA
ATOM     15  H   UNL     1       7.805   4.975  14.585  0.00  0.00    +0.000 HD
ENDBRANCH  12  14
ENDBRANCH  10  12
ENDBRANCH   7  10
ENDBRANCH   6   7
ENDBRANCH   5   6
ENDBRANCH   4   5
ENDBRANCH   3   4
ENDBRANCH   2   3
ENDBRANCH   1   2
BRANCH   1  16
ATOM     16  C   UNL     1       2.268   7.155  19.554  0.00  0.00    +0.000 C 
BRANCH  16  17
ATOM     17  C   UNL     1       1.676   8.554  19.390  0.00  0.00    +0.000 C 
BRANCH  17  18
ATOM     18  C   UNL     1       1.124   9.096  20.711  0.00  0.00    +0.000 C 
BRANCH  18  19
ATOM     19  C   UNL     1      -0.262   9.701  20.526  0.00  0.00    +0.000 C 
BRANCH  19  21
ATOM     20  C   UNL     1      -1.453  11.808  21.311  0.00  0.00    +0.000 C 
ATOM     21  C   UNL     1      -0.304  11.250  20.437  0.00  0.00    +0.000 C 
ATOM     22  C   UNL     1       1.012  11.869  20.947  0.00  0.00    +0.000 C 
BRANCH  21  23
ATOM     23  C   UNL     1      -0.574  11.681  18.972  0.00  0.00    +0.000 C 
ATOM     24  F   UNL     1       0.639  11.768  18.324  0.00  0.00    +0.000 F 
BRANCH  23  25
ATOM     25  C   UNL     1      -1.492  10.760  18.168  0.00  0.00    +0.000 C 
ATOM     26  O   UNL     1      -2.710  10.691  18.253  0.00  0.00    +0.000 OA
BRANCH  25  27
ATOM     27  O   UNL     1      -0.789  10.005  17.281  0.00  0.00    +0.000 OA
ATOM     28  H   UNL     1      -0.775  10.448  16.404  0.00  0.00    +0.000 HD
ENDBRANCH  25  27
ENDBRANCH  23  25
ENDBRANCH  21  23
ENDBRANCH  19  21
ENDBRANCH  18  19
ENDBRANCH  17  18
ENDBRANCH  16  17
ENDBRANCH   1  16
TORSDOF 17
ENDMDL
MODEL 9
REMARK VINA RESULT:      -5.8      5.367      9.253
REMARK  Name = 
REMARK  21 active torsions:
REMARK  status: ('A' for Active; 'I' for Inactive)
REMARK    1  A    between atoms: C_1  and  C_2
REMARK    2  A    between atoms: C_2  and  C_3
REMARK    3  A    between atoms: C_2  and  C_4
REMARK    4  A    between atoms: C_2  and  C_22
REMARK    5  A    between atoms: C_4  and  C_5
REMARK    6  A    between atoms: C_5  and  C_6
REMARK    7  A    between atoms: C_6  and  C_7
REMARK    8  A    between atoms: C_7  and  C_8
REMARK    9  A    between atoms: C_8  and  C_9
REMARK   10  A    between atoms: C_9  and  C_10
REMARK   11  A    between atoms: C_10  and  C_11
REMARK   12  A    between atoms: C_11  and  C_12
REMARK   13  A    between atoms: C_12  and  C_13
REMARK   14  A    between atoms: C_13  and  C_14
REMARK   15  A    between atoms: C_14  and  C_15
REMARK   16  A    between atoms: C_14  and  C_16
REMARK   17  A    between atoms: C_14  and  C_17
REMARK   18  A    between atoms: C_17  and  C_19
REMARK   19  A    between atoms: C_19  and  O_21
REMARK   20  A    between atoms: C_22  and  C_24
REMARK   21  A    between atoms: C_24  and  O_26
REMARK                            x       y       z     vdW  Elec       q    Type
REMARK                         _______ _______ _______ _____ _____    ______ ____
ROOT
ATOM      1  C   UNL     1       7.624   6.115  18.517  0.00  0.00    +0.000 C 
ENDROOT
BRANCH   1   2
ATOM      2  C   UNL     1       6.924   7.200  17.715  0.00  0.00    +0.000 C 
BRANCH   2   3
ATOM      3  C   UNL     1       7.959   8.227  17.286  0.00  0.00    +0.000 C 
BRANCH   3   4
ATOM      4  C   UNL     1       8.439   9.067  18.461  0.00  0.00    +0.000 C 
BRANCH   4   5
ATOM      5  C   UNL     1       9.173  10.328  18.004  0.00  0.00    +0.000 C 
BRANCH   5   6
ATOM      6  C   UNL     1       9.375  11.347  19.138  0.00  0.00    +0.000 C 
BRANCH   6   7
ATOM      7  C   UNL     1      10.589  12.296  18.982  0.00  0.00    +0.000 C 
ATOM      8  C   UNL     1      11.641  11.963  20.059  0.00  0.00    +0.000 C 
ATOM      9  C   UNL     1      11.230  12.127  17.591  0.00  0.00    +0.000 C 
BRANCH   7  10
ATOM     10  C   UNL     1      10.157  13.774  19.184  0.00  0.00    +0.000 C 
ATOM     11  F   UNL     1      11.000  14.567  18.433  0.00  0.00    +0.000 F 
BRANCH  10  12
ATOM     12  C   UNL     1       8.714  14.105  18.795  0.00  0.00    +0.000 C 
ATOM     13  O   UNL     1       7.786  14.280  19.569  0.00  0.00    +0.000 OA
BRANCH  12  14
ATOM     14  O   UNL     1       8.570  14.213  17.447  0.00  0.00    +0.000 OA
ATOM     15  H   UNL     1       7.903  13.564  17.127  0.00  0.00    +0.000 HD
ENDBRANCH  12  14
ENDBRANCH  10  12
ENDBRANCH   7  10
ENDBRANCH   6   7
ENDBRANCH   5   6
ENDBRANCH   4   5
ENDBRANCH   3   4
ENDBRANCH   2   3
ENDBRANCH   1   2
BRANCH   1  16
ATOM     16  C   UNL     1       7.474   4.746  17.867  0.00  0.00    +0.000 C 
BRANCH  16  17
ATOM     17  C   UNL     1       6.006   4.350  17.713  0.00  0.00    +0.000 C 
BRANCH  17  18
ATOM     18  C   UNL     1       5.229   4.527  19.020  0.00  0.00    +0.000 C 
BRANCH  18  19
ATOM     19  C   UNL     1       4.257   3.376  19.248  0.00  0.00    +0.000 C 
BRANCH  19  21
ATOM     20  C   UNL     1       2.644   5.067  18.243  0.00  0.00    +0.000 C 
ATOM     21  C   UNL     1       2.823   3.600  18.700  0.00  0.00    +0.000 C 
ATOM     22  C   UNL     1       2.549   2.696  17.482  0.00  0.00    +0.000 C 
BRANCH  21  23
ATOM     23  C   UNL     1       1.788   3.325  19.822  0.00  0.00    +0.000 C 
ATOM     24  F   UNL     1       1.428   1.997  19.753  0.00  0.00    +0.000 F 
BRANCH  23  25
ATOM     25  C   UNL     1       2.255   3.632  21.245  0.00  0.00    +0.000 C 
ATOM     26  O   UNL     1       2.536   2.816  22.111  0.00  0.00    +0.000 OA
BRANCH  25  27
ATOM     27  O   UNL     1       2.360   4.972  21.458  0.00  0.00    +0.000 OA
ATOM     28  H   UNL     1       1.477   5.344  21.676  0.00  0.00    +0.000 HD
ENDBRANCH  25  27
ENDBRANCH  23  25
ENDBRANCH  21  23
ENDBRANCH  19  21
ENDBRANCH  18  19
ENDBRANCH  17  18
ENDBRANCH  16  17
ENDBRANCH   1  16
TORSDOF 17
ENDMDL
