MODEL 1
REMARK VINA RESULT:      -8.7      0.000      0.000
REMARK  Name = 
REMARK  11 active torsions:
REMARK  status: ('A' for Active; 'I' for Inactive)
REMARK    1  A    between atoms: C_1  and  C_2
REMARK    2  A    between atoms: C_2  and  C_3
REMARK    3  A    between atoms: C_3  and  C_4
REMARK    4  A    between atoms: C_3  and  C_31
REMARK    5  A    between atoms: N_6  and  CA_7
REMARK    6  A    between atoms: CA_7  and  C_8
REMARK    7  A    between atoms: CA_7  and  C_28
REMARK    8  A    between atoms: C_8  and  C_9
REMARK    9  A    between atoms: C_12  and  N_13
REMARK   10  A    between atoms: C_14  and  C_16
REMARK   11  A    between atoms: C_28  and  OXT_30
REMARK                            x       y       z     vdW  Elec       q    Type
REMARK                         _______ _______ _______ _____ _____    ______ ____
ROOT
ATOM      1  C   UNL     1       0.664   9.588  20.149  0.00  0.00    +0.000 A 
ATOM      2  C   UNL     1       1.204   9.581  18.855  0.00  0.00    +0.000 A 
ATOM      3  C   UNL     1       1.935   8.466  18.319  0.00  0.00    +0.000 A 
ATOM      4  C   UNL     1       2.221   7.319  19.075  0.00  0.00    +0.000 A 
ATOM      5  C   UNL     1       1.829   7.404  20.431  0.00  0.00    +0.000 A 
ATOM      6  C   UNL     1       1.068   8.507  20.954  0.00  0.00    +0.000 A 
ENDROOT
BRANCH   4   7
ATOM      7  N   UNL     1       2.904   6.126  18.574  0.00  0.00    +0.000 N 
ATOM      8  C   UNL     1       2.381   4.961  17.902  0.00  0.00    +0.000 C 
ATOM      9  O   UNL     1       1.181   4.740  17.775  0.00  0.00    +0.000 OA
ATOM     10  H   UNL     1       3.894   6.137  18.764  0.00  0.00    +0.000 HD
BRANCH   8  11
ATOM     11  C   UNL     1       3.449   3.915  17.285  0.00  0.00    +0.000 A 
ATOM     12  C   UNL     1       3.445   2.821  18.117  0.00  0.00    +0.000 A 
ATOM     13  C   UNL     1       4.327   2.930  19.176  0.00  0.00    +0.000 A 
ATOM     14  N   UNL     1       5.335   3.829  19.232  0.00  0.00    +0.000 NA
ATOM     15  C   UNL     1       5.677   4.401  18.068  0.00  0.00    +0.000 A 
ATOM     16  C   UNL     1       7.030   4.714  17.931  0.00  0.00    +0.000 A 
ATOM     17  C   UNL     1       7.649   4.651  16.688  0.00  0.00    +0.000 A 
ATOM     18  C   UNL     1       6.889   4.306  15.578  0.00  0.00    +0.000 A 
ATOM     19  C   UNL     1       5.483   4.186  15.714  0.00  0.00    +0.000 A 
ATOM     20  C   UNL     1       4.802   4.324  16.979  0.00  0.00    +0.000 A 
ENDBRANCH   8  11
ENDBRANCH   4   7
BRANCH   1  21
ATOM     21  C   UNL     1      -0.236  10.712  20.723  0.00  0.00    +0.000 C 
BRANCH  21  22
ATOM     22  CA  UNL     1      -0.726  11.901  19.826  0.00  0.00    +0.000 C 
BRANCH  22  25
ATOM     23  C   UNL     1       0.881  13.778  19.201  0.00  0.00    +0.000 C 
ATOM     24  O   UNL     1       1.234  13.213  18.168  0.00  0.00    +0.000 OA
ATOM     25  N   UNL     1       0.028  13.177  20.097  0.00  0.00    +0.000 N 
ATOM     26  H   UNL     1      -0.478  13.828  20.697  0.00  0.00    +0.000 HD
BRANCH  23  27
ATOM     27  C   UNL     1       1.442  15.172  19.603  0.00  0.00    +0.000 C 
BRANCH  27  28
ATOM     28  C   UNL     1       0.986  16.312  18.683  0.00  0.00    +0.000 A 
ATOM     29  C   UNL     1      -0.383  16.600  18.544  0.00  0.00    +0.000 A 
ATOM     30  C   UNL     1      -0.824  17.625  17.695  0.00  0.00    +0.000 A 
ATOM     31  C   UNL     1       0.093  18.382  16.972  0.00  0.00    +0.000 A 
ATOM     32  C   UNL     1       1.452  18.108  17.090  0.00  0.00    +0.000 A 
ATOM     33  C   UNL     1       1.893  17.083  17.934  0.00  0.00    +0.000 A 
ENDBRANCH  27  28
BRANCH  27  35
ATOM     34  C   UNL     1       1.629  16.878  21.509  0.00  0.00    +0.000 C 
ATOM     35  C   UNL     1       1.181  15.485  21.094  0.00  0.00    +0.000 C 
ENDBRANCH  27  35
ENDBRANCH  23  27
ENDBRANCH  22  25
BRANCH  22  36
ATOM     36  C   UNL     1      -2.186  12.317  20.093  0.00  0.00    +0.000 C 
ATOM     37  O   UNL     1      -2.628  12.509  21.223  0.00  0.00    +0.000 OA
BRANCH  36  38
ATOM     38  OXT UNL     1      -2.959  12.510  19.010  0.00  0.00    +0.000 OA
ATOM     39  HXT UNL     1      -3.796  12.014  18.994  0.00  0.00    +0.000 HD
ENDBRANCH  36  38
ENDBRANCH  22  36
ENDBRANCH  21  22
ENDBRANCH   1  21
TORSDOF 10
ENDMDL
MODEL 2
REMARK VINA RESULT:      -8.5      2.358      4.652
REMARK  Name = 
REMARK  11 active torsions:
REMARK  status: ('A' for Active; 'I' for Inactive)
REMARK    1  A    between atoms: C_1  and  C_2
REMARK    2  A    between atoms: C_2  and  C_3
REMARK    3  A    between atoms: C_3  and  C_4
REMARK    4  A    between atoms: C_3  and  C_31
REMARK    5  A    between atoms: N_6  and  CA_7
REMARK    6  A    between atoms: CA_7  and  C_8
REMARK    7  A    between atoms: CA_7  and  C_28
REMARK    8  A    between atoms: C_8  and  C_9
REMARK    9  A    between atoms: C_12  and  N_13
REMARK   10  A    between atoms: C_14  and  C_16
REMARK   11  A    between atoms: C_28  and  OXT_30
REMARK                            x       y       z     vdW  Elec       q    Type
REMARK                         _______ _______ _______ _____ _____    ______ ____
ROOT
ATOM      1  C   UNL     1       0.974  10.068  20.392  0.00  0.00    +0.000 A 
ATOM      2  C   UNL     1       1.046   8.873  21.121  0.00  0.00    +0.000 A 
ATOM      3  C   UNL     1       1.627   7.669  20.594  0.00  0.00    +0.000 A 
ATOM      4  C   UNL     1       2.113   7.579  19.281  0.00  0.00    +0.000 A 
ATOM      5  C   UNL     1       1.879   8.731  18.495  0.00  0.00    +0.000 A 
ATOM      6  C   UNL     1       1.327   9.944  19.036  0.00  0.00    +0.000 A 
ENDROOT
BRANCH   4   7
ATOM      7  N   UNL     1       2.773   6.408  18.703  0.00  0.00    +0.000 N 
ATOM      8  C   UNL     1       2.339   5.034  18.623  0.00  0.00    +0.000 C 
ATOM      9  O   UNL     1       1.343   4.608  19.197  0.00  0.00    +0.000 OA
ATOM     10  H   UNL     1       3.685   6.621  18.329  0.00  0.00    +0.000 HD
BRANCH   8  11
ATOM     11  C   UNL     1       3.223   4.026  17.717  0.00  0.00    +0.000 A 
ATOM     12  C   UNL     1       3.302   2.845  18.416  0.00  0.00    +0.000 A 
ATOM     13  C   UNL     1       4.359   2.800  19.306  0.00  0.00    +0.000 A 
ATOM     14  N   UNL     1       5.411   3.649  19.275  0.00  0.00    +0.000 NA
ATOM     15  C   UNL     1       5.577   4.337  18.136  0.00  0.00    +0.000 A 
ATOM     16  C   UNL     1       6.901   4.613  17.792  0.00  0.00    +0.000 A 
ATOM     17  C   UNL     1       7.290   4.669  16.458  0.00  0.00    +0.000 A 
ATOM     18  C   UNL     1       6.330   4.481  15.473  0.00  0.00    +0.000 A 
ATOM     19  C   UNL     1       4.964   4.398  15.845  0.00  0.00    +0.000 A 
ATOM     20  C   UNL     1       4.523   4.417  17.219  0.00  0.00    +0.000 A 
ENDBRANCH   8  11
ENDBRANCH   4   7
BRANCH   1  21
ATOM     21  C   UNL     1       0.472  11.420  20.961  0.00  0.00    +0.000 C 
BRANCH  21  22
ATOM     22  CA  UNL     1      -0.381  12.404  20.088  0.00  0.00    +0.000 C 
BRANCH  22  25
ATOM     23  C   UNL     1      -2.780  12.011  19.326  0.00  0.00    +0.000 C 
ATOM     24  O   UNL     1      -3.237  12.788  20.162  0.00  0.00    +0.000 OA
ATOM     25  N   UNL     1      -1.443  11.695  19.288  0.00  0.00    +0.000 N 
ATOM     26  H   UNL     1      -1.115  11.363  18.383  0.00  0.00    +0.000 HD
BRANCH  23  27
ATOM     27  C   UNL     1      -3.698  11.271  18.311  0.00  0.00    +0.000 C 
BRANCH  27  28
ATOM     28  C   UNL     1      -5.136  11.806  18.271  0.00  0.00    +0.000 A 
ATOM     29  C   UNL     1      -5.575  12.562  17.170  0.00  0.00    +0.000 A 
ATOM     30  C   UNL     1      -6.878  13.077  17.119  0.00  0.00    +0.000 A 
ATOM     31  C   UNL     1      -7.767  12.845  18.165  0.00  0.00    +0.000 A 
ATOM     32  C   UNL     1      -7.349  12.105  19.267  0.00  0.00    +0.000 A 
ATOM     33  C   UNL     1      -6.048  11.594  19.320  0.00  0.00    +0.000 A 
ENDBRANCH  27  28
BRANCH  27  35
ATOM     34  C   UNL     1      -2.933   9.790  16.362  0.00  0.00    +0.000 C 
ATOM     35  C   UNL     1      -3.060  11.205  16.905  0.00  0.00    +0.000 C 
ENDBRANCH  27  35
ENDBRANCH  23  27
ENDBRANCH  22  25
BRANCH  22  36
ATOM     36  C   UNL     1       0.432  13.123  18.992  0.00  0.00    +0.000 C 
ATOM     37  O   UNL     1       1.373  13.872  19.245  0.00  0.00    +0.000 OA
BRANCH  36  38
ATOM     38  OXT UNL     1       0.091  12.851  17.721  0.00  0.00    +0.000 OA
ATOM     39  HXT UNL     1       0.804  12.499  17.158  0.00  0.00    +0.000 HD
ENDBRANCH  36  38
ENDBRANCH  22  36
ENDBRANCH  21  22
ENDBRANCH   1  21
TORSDOF 10
ENDMDL
MODEL 3
REMARK VINA RESULT:      -8.4      1.909     10.550
REMARK  Name = 
REMARK  11 active torsions:
REMARK  status: ('A' for Active; 'I' for Inactive)
REMARK    1  A    between atoms: C_1  and  C_2
REMARK    2  A    between atoms: C_2  and  C_3
REMARK    3  A    between atoms: C_3  and  C_4
REMARK    4  A    between atoms: C_3  and  C_31
REMARK    5  A    between atoms: N_6  and  CA_7
REMARK    6  A    between atoms: CA_7  and  C_8
REMARK    7  A    between atoms: CA_7  and  C_28
REMARK    8  A    between atoms: C_8  and  C_9
REMARK    9  A    between atoms: C_12  and  N_13
REMARK   10  A    between atoms: C_14  and  C_16
REMARK   11  A    between atoms: C_28  and  OXT_30
REMARK                            x       y       z     vdW  Elec       q    Type
REMARK                         _______ _______ _______ _____ _____    ______ ____
ROOT
ATOM      1  C   UNL     1       1.858   6.529  20.088  0.00  0.00    +0.000 A 
ATOM      2  C   UNL     1       1.287   7.492  20.932  0.00  0.00    +0.000 A 
ATOM      3  C   UNL     1       1.077   8.856  20.532  0.00  0.00    +0.000 A 
ATOM      4  C   UNL     1       1.488   9.347  19.284  0.00  0.00    +0.000 A 
ATOM      5  C   UNL     1       2.220   8.419  18.507  0.00  0.00    +0.000 A 
ATOM      6  C   UNL     1       2.398   7.046  18.897  0.00  0.00    +0.000 A 
ENDROOT
BRANCH   4   7
ATOM      7  N   UNL     1       1.251  10.703  18.790  0.00  0.00    +0.000 N 
ATOM      8  C   UNL     1       1.133  11.952  19.503  0.00  0.00    +0.000 C 
ATOM      9  O   UNL     1       1.076  12.026  20.726  0.00  0.00    +0.000 OA
ATOM     10  H   UNL     1       1.130  10.737  17.789  0.00  0.00    +0.000 HD
BRANCH   8  11
ATOM     11  C   UNL     1       1.086  13.310  18.625  0.00  0.00    +0.000 A 
ATOM     12  C   UNL     1       2.284  13.379  17.953  0.00  0.00    +0.000 A 
ATOM     13  C   UNL     1       3.285  14.007  18.672  0.00  0.00    +0.000 A 
ATOM     14  N   UNL     1       3.064  14.778  19.760  0.00  0.00    +0.000 NA
ATOM     15  C   UNL     1       1.805  15.203  19.934  0.00  0.00    +0.000 A 
ATOM     16  C   UNL     1       1.675  16.463  20.519  0.00  0.00    +0.000 A 
ATOM     17  C   UNL     1       0.623  17.302  20.170  0.00  0.00    +0.000 A 
ATOM     18  C   UNL     1      -0.319  16.849  19.254  0.00  0.00    +0.000 A 
ATOM     19  C   UNL     1      -0.272  15.499  18.826  0.00  0.00    +0.000 A 
ATOM     20  C   UNL     1       0.765  14.581  19.235  0.00  0.00    +0.000 A 
ENDBRANCH   8  11
ENDBRANCH   4   7
BRANCH   1  21
ATOM     21  C   UNL     1       1.987   5.022  20.430  0.00  0.00    +0.000 C 
BRANCH  21  22
ATOM     22  CA  UNL     1       2.421   3.976  19.345  0.00  0.00    +0.000 C 
BRANCH  22  25
ATOM     23  C   UNL     1       4.196   3.745  17.531  0.00  0.00    +0.000 C 
ATOM     24  O   UNL     1       4.166   2.517  17.573  0.00  0.00    +0.000 OA
ATOM     25  N   UNL     1       3.472   4.516  18.409  0.00  0.00    +0.000 N 
ATOM     26  H   UNL     1       3.273   5.458  18.076  0.00  0.00    +0.000 HD
BRANCH  23  27
ATOM     27  C   UNL     1       5.120   4.506  16.537  0.00  0.00    +0.000 C 
BRANCH  27  28
ATOM     28  C   UNL     1       6.134   5.434  17.221  0.00  0.00    +0.000 A 
ATOM     29  C   UNL     1       6.225   6.783  16.834  0.00  0.00    +0.000 A 
ATOM     30  C   UNL     1       7.155   7.645  17.432  0.00  0.00    +0.000 A 
ATOM     31  C   UNL     1       8.009   7.178  18.427  0.00  0.00    +0.000 A 
ATOM     32  C   UNL     1       7.939   5.844  18.819  0.00  0.00    +0.000 A 
ATOM     33  C   UNL     1       7.013   4.982  18.221  0.00  0.00    +0.000 A 
ENDBRANCH  27  28
BRANCH  27  35
ATOM     34  C   UNL     1       6.274   4.233  14.263  0.00  0.00    +0.000 C 
ATOM     35  C   UNL     1       5.794   3.545  15.532  0.00  0.00    +0.000 C 
ENDBRANCH  27  35
ENDBRANCH  23  27
ENDBRANCH  22  25
BRANCH  22  36
ATOM     36  C   UNL     1       1.288   3.582  18.376  0.00  0.00    +0.000 C 
ATOM     37  O   UNL     1       1.032   4.219  17.357  0.00  0.00    +0.000 OA
BRANCH  36  38
ATOM     38  OXT UNL     1       0.608   2.462  18.678  0.00  0.00    +0.000 OA
ATOM     39  HXT UNL     1       0.613   2.205  19.617  0.00  0.00    +0.000 HD
ENDBRANCH  36  38
ENDBRANCH  22  36
ENDBRANCH  21  22
ENDBRANCH   1  21
TORSDOF 10
ENDMDL
MODEL 4
REMARK VINA RESULT:      -8.4      5.270      9.747
REMARK  Name = 
REMARK  11 active torsions:
REMARK  status: ('A' for Active; 'I' for Inactive)
REMARK    1  A    between atoms: C_1  and  C_2
REMARK    2  A    between atoms: C_2  and  C_3
REMARK    3  A    between atoms: C_3  and  C_4
REMARK    4  A    between atoms: C_3  and  C_31
REMARK    5  A    between atoms: N_6  and  CA_7
REMARK    6  A    between atoms: CA_7  and  C_8
REMARK    7  A    between atoms: CA_7  and  C_28
REMARK    8  A    between atoms: C_8  and  C_9
REMARK    9  A    between atoms: C_12  and  N_13
REMARK   10  A    between atoms: C_14  and  C_16
REMARK   11  A    between atoms: C_28  and  OXT_30
REMARK                            x       y       z     vdW  Elec       q    Type
REMARK                         _______ _______ _______ _____ _____    ______ ____
ROOT
ATOM      1  C   UNL     1       7.016   5.529  18.016  0.00  0.00    +0.000 A 
ATOM      2  C   UNL     1       7.976   6.037  18.902  0.00  0.00    +0.000 A 
ATOM      3  C   UNL     1       8.427   7.401  18.868  0.00  0.00    +0.000 A 
ATOM      4  C   UNL     1       7.986   8.316  17.901  0.00  0.00    +0.000 A 
ATOM      5  C   UNL     1       7.154   7.754  16.905  0.00  0.00    +0.000 A 
ATOM      6  C   UNL     1       6.679   6.398  16.962  0.00  0.00    +0.000 A 
ENDROOT
BRANCH   4   7
ATOM      7  N   UNL     1       8.355   9.731  17.847  0.00  0.00    +0.000 N 
ATOM      8  C   UNL     1       9.036  10.558  18.813  0.00  0.00    +0.000 C 
ATOM      9  O   UNL     1       9.293  10.188  19.953  0.00  0.00    +0.000 OA
ATOM     10  H   UNL     1       8.051  10.179  16.996  0.00  0.00    +0.000 HD
BRANCH   8  11
ATOM     11  C   UNL     1       9.481  12.040  18.343  0.00  0.00    +0.000 A 
ATOM     12  C   UNL     1      10.746  11.918  17.819  0.00  0.00    +0.000 A 
ATOM     13  C   UNL     1      11.749  12.034  18.763  0.00  0.00    +0.000 A 
ATOM     14  N   UNL     1      11.567  12.550  20.000  0.00  0.00    +0.000 NA
ATOM     15  C   UNL     1      10.449  13.269  20.178  0.00  0.00    +0.000 A 
ATOM     16  C   UNL     1      10.559  14.332  21.075  0.00  0.00    +0.000 A 
ATOM     17  C   UNL     1       9.828  15.499  20.884  0.00  0.00    +0.000 A 
ATOM     18  C   UNL     1       8.959  15.575  19.803  0.00  0.00    +0.000 A 
ATOM     19  C   UNL     1       8.721  14.414  19.025  0.00  0.00    +0.000 A 
ATOM     20  C   UNL     1       9.407  13.164  19.250  0.00  0.00    +0.000 A 
ENDBRANCH   8  11
ENDBRANCH   4   7
BRANCH   1  21
ATOM     21  C   UNL     1       6.408   4.105  18.095  0.00  0.00    +0.000 C 
BRANCH  21  22
ATOM     22  CA  UNL     1       4.859   3.886  18.207  0.00  0.00    +0.000 C 
BRANCH  22  25
ATOM     23  C   UNL     1       2.953   5.434  18.887  0.00  0.00    +0.000 C 
ATOM     24  O   UNL     1       2.358   5.267  17.825  0.00  0.00    +0.000 OA
ATOM     25  N   UNL     1       4.198   4.894  19.111  0.00  0.00    +0.000 N 
ATOM     26  H   UNL     1       4.432   4.772  20.095  0.00  0.00    +0.000 HD
BRANCH  23  27
ATOM     27  C   UNL     1       2.375   6.337  20.015  0.00  0.00    +0.000 C 
BRANCH  27  28
ATOM     28  C   UNL     1       1.952   7.732  19.535  0.00  0.00    +0.000 A 
ATOM     29  C   UNL     1       2.333   8.183  18.259  0.00  0.00    +0.000 A 
ATOM     30  C   UNL     1       1.973   9.460  17.807  0.00  0.00    +0.000 A 
ATOM     31  C   UNL     1       1.225  10.308  18.617  0.00  0.00    +0.000 A 
ATOM     32  C   UNL     1       0.844   9.883  19.886  0.00  0.00    +0.000 A 
ATOM     33  C   UNL     1       1.205   8.610  20.340  0.00  0.00    +0.000 A 
ENDBRANCH  27  28
BRANCH  27  35
ATOM     34  C   UNL     1       1.381   4.107  20.801  0.00  0.00    +0.000 C 
ATOM     35  C   UNL     1       1.251   5.622  20.799  0.00  0.00    +0.000 C 
ENDBRANCH  27  35
ENDBRANCH  23  27
ENDBRANCH  22  25
BRANCH  22  36
ATOM     36  C   UNL     1       4.470   2.546  18.865  0.00  0.00    +0.000 C 
ATOM     37  O   UNL     1       4.691   2.296  20.047  0.00  0.00    +0.000 OA
BRANCH  36  38
ATOM     38  OXT UNL     1       3.822   1.665  18.084  0.00  0.00    +0.000 OA
ATOM     39  HXT UNL     1       3.526   0.848  18.525  0.00  0.00    +0.000 HD
ENDBRANCH  36  38
ENDBRANCH  22  36
ENDBRANCH  21  22
ENDBRANCH   1  21
TORSDOF 10
ENDMDL
MODEL 5
REMARK VINA RESULT:      -8.3      2.598      4.362
REMARK  Name = 
REMARK  11 active torsions:
REMARK  status: ('A' for Active; 'I' for Inactive)
REMARK    1  A    between atoms: C_1  and  C_2
REMARK    2  A    between atoms: C_2  and  C_3
REMARK    3  A    between atoms: C_3  and  C_4
REMARK    4  A    between atoms: C_3  and  C_31
REMARK    5  A    between atoms: N_6  and  CA_7
REMARK    6  A    between atoms: CA_7  and  C_8
REMARK    7  A    between atoms: CA_7  and  C_28
REMARK    8  A    between atoms: C_8  and  C_9
REMARK    9  A    between atoms: C_12  and  N_13
REMARK   10  A    between atoms: C_14  and  C_16
REMARK   11  A    between atoms: C_28  and  OXT_30
REMARK                            x       y       z     vdW  Elec       q    Type
REMARK                         _______ _______ _______ _____ _____    ______ ____
ROOT
ATOM      1  C   UNL     1       0.491   9.899  19.467  0.00  0.00    +0.000 A 
ATOM      2  C   UNL     1       0.993   9.750  18.167  0.00  0.00    +0.000 A 
ATOM      3  C   UNL     1       1.777   8.617  17.756  0.00  0.00    +0.000 A 
ATOM      4  C   UNL     1       2.154   7.600  18.646  0.00  0.00    +0.000 A 
ATOM      5  C   UNL     1       1.796   7.843  19.992  0.00  0.00    +0.000 A 
ATOM      6  C   UNL     1       0.983   8.960  20.392  0.00  0.00    +0.000 A 
ENDROOT
BRANCH   4   7
ATOM      7  N   UNL     1       2.895   6.392  18.282  0.00  0.00    +0.000 N 
ATOM      8  C   UNL     1       2.474   5.013  18.241  0.00  0.00    +0.000 C 
ATOM      9  O   UNL     1       1.393   4.627  18.671  0.00  0.00    +0.000 OA
ATOM     10  H   UNL     1       3.858   6.582  18.051  0.00  0.00    +0.000 HD
BRANCH   8  11
ATOM     11  C   UNL     1       3.491   3.943  17.580  0.00  0.00    +0.000 A 
ATOM     12  C   UNL     1       3.596   2.904  18.474  0.00  0.00    +0.000 A 
ATOM     13  C   UNL     1       4.582   3.092  19.426  0.00  0.00    +0.000 A 
ATOM     14  N   UNL     1       5.573   4.005  19.318  0.00  0.00    +0.000 NA
ATOM     15  C   UNL     1       5.779   4.506  18.092  0.00  0.00    +0.000 A 
ATOM     16  C   UNL     1       7.104   4.827  17.793  0.00  0.00    +0.000 A 
ATOM     17  C   UNL     1       7.591   4.692  16.497  0.00  0.00    +0.000 A 
ATOM     18  C   UNL     1       6.725   4.267  15.498  0.00  0.00    +0.000 A 
ATOM     19  C   UNL     1       5.344   4.138  15.789  0.00  0.00    +0.000 A 
ATOM     20  C   UNL     1       4.797   4.349  17.108  0.00  0.00    +0.000 A 
ENDBRANCH   8  11
ENDBRANCH   4   7
BRANCH   1  21
ATOM     21  C   UNL     1      -0.461  11.036  19.920  0.00  0.00    +0.000 C 
BRANCH  21  22
ATOM     22  CA  UNL     1      -0.043  12.049  21.041  0.00  0.00    +0.000 C 
BRANCH  22  25
ATOM     23  C   UNL     1      -1.211  13.647  22.646  0.00  0.00    +0.000 C 
ATOM     24  O   UNL     1      -0.383  13.456  23.535  0.00  0.00    +0.000 OA
ATOM     25  N   UNL     1      -1.180  12.943  21.466  0.00  0.00    +0.000 N 
ATOM     26  H   UNL     1      -1.643  13.407  20.686  0.00  0.00    +0.000 HD
BRANCH  23  27
ATOM     27  C   UNL     1      -2.396  14.637  22.832  0.00  0.00    +0.000 C 
BRANCH  27  28
ATOM     28  C   UNL     1      -3.698  13.966  23.293  0.00  0.00    +0.000 A 
ATOM     29  C   UNL     1      -4.935  14.425  22.809  0.00  0.00    +0.000 A 
ATOM     30  C   UNL     1      -6.138  13.840  23.229  0.00  0.00    +0.000 A 
ATOM     31  C   UNL     1      -6.127  12.784  24.136  0.00  0.00    +0.000 A 
ATOM     32  C   UNL     1      -4.912  12.320  24.632  0.00  0.00    +0.000 A 
ATOM     33  C   UNL     1      -3.711  12.906  24.216  0.00  0.00    +0.000 A 
ENDBRANCH  27  28
BRANCH  27  35
ATOM     34  C   UNL     1      -2.301  17.186  23.101  0.00  0.00    +0.000 C 
ATOM     35  C   UNL     1      -2.007  15.833  23.730  0.00  0.00    +0.000 C 
ENDBRANCH  27  35
ENDBRANCH  23  27
ENDBRANCH  22  25
BRANCH  22  36
ATOM     36  C   UNL     1       1.025  13.065  20.590  0.00  0.00    +0.000 C 
ATOM     37  O   UNL     1       0.936  13.705  19.544  0.00  0.00    +0.000 OA
BRANCH  36  38
ATOM     38  OXT UNL     1       2.057  13.259  21.430  0.00  0.00    +0.000 OA
ATOM     39  HXT UNL     1       2.780  12.611  21.367  0.00  0.00    +0.000 HD
ENDBRANCH  36  38
ENDBRANCH  22  36
ENDBRANCH  21  22
ENDBRANCH   1  21
TORSDOF 10
ENDMDL
MODEL 6
REMARK VINA RESULT:      -8.3      2.298      3.904
REMARK  Name = 
REMARK  11 active torsions:
REMARK  status: ('A' for Active; 'I' for Inactive)
REMARK    1  A    between atoms: C_1  and  C_2
REMARK    2  A    between atoms: C_2  and  C_3
REMARK    3  A    between atoms: C_3  and  C_4
REMARK    4  A    between atoms: C_3  and  C_31
REMARK    5  A    between atoms: N_6  and  CA_7
REMARK    6  A    between atoms: CA_7  and  C_8
REMARK    7  A    between atoms: CA_7  and  C_28
REMARK    8  A    between atoms: C_8  and  C_9
REMARK    9  A    between atoms: C_12  and  N_13
REMARK   10  A    between atoms: C_14  and  C_16
REMARK   11  A    between atoms: C_28  and  OXT_30
REMARK                            x       y       z     vdW  Elec       q    Type
REMARK                         _______ _______ _______ _____ _____    ______ ____
ROOT
ATOM      1  C   UNL     1       0.648   9.800  19.578  0.00  0.00    +0.000 A 
ATOM      2  C   UNL     1       1.162   9.701  18.278  0.00  0.00    +0.000 A 
ATOM      3  C   UNL     1       1.919   8.569  17.820  0.00  0.00    +0.000 A 
ATOM      4  C   UNL     1       2.257   7.499  18.662  0.00  0.00    +0.000 A 
ATOM      5  C   UNL     1       1.888   7.684  20.015  0.00  0.00    +0.000 A 
ATOM      6  C   UNL     1       1.102   8.803  20.461  0.00  0.00    +0.000 A 
ENDROOT
BRANCH   4   7
ATOM      7  N   UNL     1       2.968   6.289  18.247  0.00  0.00    +0.000 N 
ATOM      8  C   UNL     1       2.467   4.981  17.901  0.00  0.00    +0.000 C 
ATOM      9  O   UNL     1       1.298   4.647  18.054  0.00  0.00    +0.000 OA
ATOM     10  H   UNL     1       3.969   6.413  18.233  0.00  0.00    +0.000 HD
BRANCH   8  11
ATOM     11  C   UNL     1       3.518   3.924  17.273  0.00  0.00    +0.000 A 
ATOM     12  C   UNL     1       3.676   2.930  18.209  0.00  0.00    +0.000 A 
ATOM     13  C   UNL     1       4.666   3.198  19.137  0.00  0.00    +0.000 A 
ATOM     14  N   UNL     1       5.618   4.145  18.975  0.00  0.00    +0.000 NA
ATOM     15  C   UNL     1       5.788   4.598  17.725  0.00  0.00    +0.000 A 
ATOM     16  C   UNL     1       7.095   4.957  17.393  0.00  0.00    +0.000 A 
ATOM     17  C   UNL     1       7.570   4.785  16.098  0.00  0.00    +0.000 A 
ATOM     18  C   UNL     1       6.709   4.283  15.130  0.00  0.00    +0.000 A 
ATOM     19  C   UNL     1       5.338   4.112  15.448  0.00  0.00    +0.000 A 
ATOM     20  C   UNL     1       4.800   4.360  16.764  0.00  0.00    +0.000 A 
ENDBRANCH   8  11
ENDBRANCH   4   7
BRANCH   1  21
ATOM     21  C   UNL     1      -0.278  10.940  20.076  0.00  0.00    +0.000 C 
BRANCH  21  22
ATOM     22  CA  UNL     1      -0.966  11.928  19.072  0.00  0.00    +0.000 C 
BRANCH  22  25
ATOM     23  C   UNL     1      -1.735  13.901  20.488  0.00  0.00    +0.000 C 
ATOM     24  O   UNL     1      -0.588  14.178  20.834  0.00  0.00    +0.000 OA
ATOM     25  N   UNL     1      -2.013  12.787  19.732  0.00  0.00    +0.000 N 
ATOM     26  H   UNL     1      -2.883  12.842  19.206  0.00  0.00    +0.000 HD
BRANCH  23  27
ATOM     27  C   UNL     1      -2.956  14.747  20.954  0.00  0.00    +0.000 C 
BRANCH  27  28
ATOM     28  C   UNL     1      -3.777  14.086  22.070  0.00  0.00    +0.000 A 
ATOM     29  C   UNL     1      -5.142  14.389  22.211  0.00  0.00    +0.000 A 
ATOM     30  C   UNL     1      -5.909  13.812  23.234  0.00  0.00    +0.000 A 
ATOM     31  C   UNL     1      -5.327  12.921  24.130  0.00  0.00    +0.000 A 
ATOM     32  C   UNL     1      -3.975  12.613  24.011  0.00  0.00    +0.000 A 
ATOM     33  C   UNL     1      -3.209  13.191  22.993  0.00  0.00    +0.000 A 
ENDBRANCH  27  28
BRANCH  27  35
ATOM     34  C   UNL     1      -2.637  17.155  20.133  0.00  0.00    +0.000 C 
ATOM     35  C   UNL     1      -2.547  16.194  21.308  0.00  0.00    +0.000 C 
ENDBRANCH  27  35
ENDBRANCH  23  27
ENDBRANCH  22  25
BRANCH  22  36
ATOM     36  C   UNL     1      -1.770  11.221  17.962  0.00  0.00    +0.000 C 
ATOM     37  O   UNL     1      -2.399  10.184  18.154  0.00  0.00    +0.000 OA
BRANCH  36  38
ATOM     38  OXT UNL     1      -1.791  11.828  16.763  0.00  0.00    +0.000 OA
ATOM     39  HXT UNL     1      -0.930  12.141  16.432  0.00  0.00    +0.000 HD
ENDBRANCH  36  38
ENDBRANCH  22  36
ENDBRANCH  21  22
ENDBRANCH   1  21
TORSDOF 10
ENDMDL
MODEL 7
REMARK VINA RESULT:      -8.3      2.907      4.401
REMARK  Name = 
REMARK  11 active torsions:
REMARK  status: ('A' for Active; 'I' for Inactive)
REMARK    1  A    between atoms: C_1  and  C_2
REMARK    2  A    between atoms: C_2  and  C_3
REMARK    3  A    between atoms: C_3  and  C_4
REMARK    4  A    between atoms: C_3  and  C_31
REMARK    5  A    between atoms: N_6  and  CA_7
REMARK    6  A    between atoms: CA_7  and  C_8
REMARK    7  A    between atoms: CA_7  and  C_28
REMARK    8  A    between atoms: C_8  and  C_9
REMARK    9  A    between atoms: C_12  and  N_13
REMARK   10  A    between atoms: C_14  and  C_16
REMARK   11  A    between atoms: C_28  and  OXT_30
REMARK                            x       y       z     vdW  Elec       q    Type
REMARK                         _______ _______ _______ _____ _____    ______ ____
ROOT
ATOM      1  C   UNL     1       1.776   7.825  20.584  0.00  0.00    +0.000 A 
ATOM      2  C   UNL     1       1.806   6.437  20.776  0.00  0.00    +0.000 A 
ATOM      3  C   UNL     1       2.368   5.528  19.815  0.00  0.00    +0.000 A 
ATOM      4  C   UNL     1       2.875   5.955  18.579  0.00  0.00    +0.000 A 
ATOM      5  C   UNL     1       2.683   7.332  18.317  0.00  0.00    +0.000 A 
ATOM      6  C   UNL     1       2.150   8.243  19.294  0.00  0.00    +0.000 A 
ENDROOT
BRANCH   4   7
ATOM      7  N   UNL     1       3.516   5.094  17.586  0.00  0.00    +0.000 N 
ATOM      8  C   UNL     1       4.421   5.420  16.509  0.00  0.00    +0.000 C 
ATOM      9  O   UNL     1       4.683   6.570  16.175  0.00  0.00    +0.000 OA
ATOM     10  H   UNL     1       3.246   4.127  17.677  0.00  0.00    +0.000 HD
BRANCH   8  11
ATOM     11  C   UNL     1       5.119   4.189  15.725  0.00  0.00    +0.000 A 
ATOM     12  C   UNL     1       6.084   3.690  16.568  0.00  0.00    +0.000 A 
ATOM     13  C   UNL     1       7.307   4.322  16.442  0.00  0.00    +0.000 A 
ATOM     14  N   UNL     1       7.651   5.103  15.393  0.00  0.00    +0.000 NA
ATOM     15  C   UNL     1       6.892   4.978  14.294  0.00  0.00    +0.000 A 
ATOM     16  C   UNL     1       7.561   5.153  13.083  0.00  0.00    +0.000 A 
ATOM     17  C   UNL     1       7.177   4.441  11.952  0.00  0.00    +0.000 A 
ATOM     18  C   UNL     1       6.092   3.579  12.040  0.00  0.00    +0.000 A 
ATOM     19  C   UNL     1       5.312   3.568  13.224  0.00  0.00    +0.000 A 
ATOM     20  C   UNL     1       5.641   4.358  14.387  0.00  0.00    +0.000 A 
ENDBRANCH   8  11
ENDBRANCH   4   7
BRANCH   1  21
ATOM     21  C   UNL     1       1.297   8.852  21.643  0.00  0.00    +0.000 C 
BRANCH  21  22
ATOM     22  CA  UNL     1      -0.223   9.207  21.803  0.00  0.00    +0.000 C 
BRANCH  22  25
ATOM     23  C   UNL     1       0.055  11.344  20.444  0.00  0.00    +0.000 C 
ATOM     24  O   UNL     1       1.078  11.666  21.045  0.00  0.00    +0.000 OA
ATOM     25  N   UNL     1      -0.681  10.242  20.809  0.00  0.00    +0.000 N 
ATOM     26  H   UNL     1      -1.263   9.860  20.064  0.00  0.00    +0.000 HD
BRANCH  23  27
ATOM     27  C   UNL     1      -0.519  12.212  19.287  0.00  0.00    +0.000 C 
BRANCH  27  28
ATOM     28  C   UNL     1      -1.562  11.485  18.426  0.00  0.00    +0.000 A 
ATOM     29  C   UNL     1      -2.916  11.855  18.501  0.00  0.00    +0.000 A 
ATOM     30  C   UNL     1      -3.889  11.194  17.738  0.00  0.00    +0.000 A 
ATOM     31  C   UNL     1      -3.528  10.154  16.887  0.00  0.00    +0.000 A 
ATOM     32  C   UNL     1      -2.193   9.768  16.805  0.00  0.00    +0.000 A 
ATOM     33  C   UNL     1      -1.222  10.425  17.568  0.00  0.00    +0.000 A 
ENDBRANCH  27  28
BRANCH  27  35
ATOM     34  C   UNL     1      -1.604  13.525  21.204  0.00  0.00    +0.000 C 
ATOM     35  C   UNL     1      -1.031  13.578  19.796  0.00  0.00    +0.000 C 
ENDBRANCH  27  35
ENDBRANCH  23  27
ENDBRANCH  22  25
BRANCH  22  36
ATOM     36  C   UNL     1      -0.564   9.871  23.152  0.00  0.00    +0.000 C 
ATOM     37  O   UNL     1       0.145   9.755  24.149  0.00  0.00    +0.000 OA
BRANCH  36  38
ATOM     38  OXT UNL     1      -1.669  10.636  23.178  0.00  0.00    +0.000 OA
ATOM     39  HXT UNL     1      -2.064  10.837  22.311  0.00  0.00    +0.000 HD
ENDBRANCH  36  38
ENDBRANCH  22  36
ENDBRANCH  21  22
ENDBRANCH   1  21
TORSDOF 10
ENDMDL
MODEL 8
REMARK VINA RESULT:      -8.3      2.613      3.858
REMARK  Name = 
REMARK  11 active torsions:
REMARK  status: ('A' for Active; 'I' for Inactive)
REMARK    1  A    between atoms: C_1  and  C_2
REMARK    2  A    between atoms: C_2  and  C_3
REMARK    3  A    between atoms: C_3  and  C_4
REMARK    4  A    between atoms: C_3  and  C_31
REMARK    5  A    between atoms: N_6  and  CA_7
REMARK    6  A    between atoms: CA_7  and  C_8
REMARK    7  A    between atoms: CA_7  and  C_28
REMARK    8  A    between atoms: C_8  and  C_9
REMARK    9  A    between atoms: C_12  and  N_13
REMARK   10  A    between atoms: C_14  and  C_16
REMARK   11  A    between atoms: C_28  and  OXT_30
REMARK                            x       y       z     vdW  Elec       q    Type
REMARK                         _______ _______ _______ _____ _____    ______ ____
ROOT
ATOM      1  C   UNL     1       0.491   9.724  20.010  0.00  0.00    +0.000 A 
ATOM      2  C   UNL     1       0.973   9.723  18.694  0.00  0.00    +0.000 A 
ATOM      3  C   UNL     1       1.743   8.642  18.143  0.00  0.00    +0.000 A 
ATOM      4  C   UNL     1       2.128   7.528  18.903  0.00  0.00    +0.000 A 
ATOM      5  C   UNL     1       1.792   7.615  20.274  0.00  0.00    +0.000 A 
ATOM      6  C   UNL     1       0.992   8.682  20.813  0.00  0.00    +0.000 A 
ENDROOT
BRANCH   4   7
ATOM      7  N   UNL     1       2.856   6.367  18.391  0.00  0.00    +0.000 N 
ATOM      8  C   UNL     1       2.420   5.007  18.182  0.00  0.00    +0.000 C 
ATOM      9  O   UNL     1       1.336   4.582  18.565  0.00  0.00    +0.000 OA
ATOM     10  H   UNL     1       3.820   6.574  18.182  0.00  0.00    +0.000 HD
BRANCH   8  11
ATOM     11  C   UNL     1       3.426   4.017  17.391  0.00  0.00    +0.000 A 
ATOM     12  C   UNL     1       3.473   2.851  18.118  0.00  0.00    +0.000 A 
ATOM     13  C   UNL     1       4.434   2.858  19.111  0.00  0.00    +0.000 A 
ATOM     14  N   UNL     1       5.454   3.744  19.170  0.00  0.00    +0.000 NA
ATOM     15  C   UNL     1       5.713   4.418  18.041  0.00  0.00    +0.000 A 
ATOM     16  C   UNL     1       7.055   4.736  17.828  0.00  0.00    +0.000 A 
ATOM     17  C   UNL     1       7.576   4.784  16.540  0.00  0.00    +0.000 A 
ATOM     18  C   UNL     1       6.729   4.546  15.466  0.00  0.00    +0.000 A 
ATOM     19  C   UNL     1       5.336   4.420  15.699  0.00  0.00    +0.000 A 
ATOM     20  C   UNL     1       4.756   4.446  17.020  0.00  0.00    +0.000 A 
ENDBRANCH   8  11
ENDBRANCH   4   7
BRANCH   1  21
ATOM     21  C   UNL     1      -0.447  10.805  20.607  0.00  0.00    +0.000 C 
BRANCH  21  22
ATOM     22  CA  UNL     1      -0.663  12.181  19.887  0.00  0.00    +0.000 C 
BRANCH  22  25
ATOM     23  C   UNL     1      -0.975  13.828  21.807  0.00  0.00    +0.000 C 
ATOM     24  O   UNL     1       0.119  13.558  22.297  0.00  0.00    +0.000 OA
ATOM     25  N   UNL     1      -1.468  13.147  20.718  0.00  0.00    +0.000 N 
ATOM     26  H   UNL     1      -2.165  13.660  20.182  0.00  0.00    +0.000 HD
BRANCH  23  27
ATOM     27  C   UNL     1      -1.911  14.898  22.438  0.00  0.00    +0.000 C 
BRANCH  27  28
ATOM     28  C   UNL     1      -3.239  14.330  22.960  0.00  0.00    +0.000 A 
ATOM     29  C   UNL     1      -3.236  13.256  23.867  0.00  0.00    +0.000 A 
ATOM     30  C   UNL     1      -4.435  12.709  24.343  0.00  0.00    +0.000 A 
ATOM     31  C   UNL     1      -5.658  13.226  23.926  0.00  0.00    +0.000 A 
ATOM     32  C   UNL     1      -5.682  14.285  23.024  0.00  0.00    +0.000 A 
ATOM     33  C   UNL     1      -4.486  14.829  22.545  0.00  0.00    +0.000 A 
ENDBRANCH  27  28
BRANCH  27  35
ATOM     34  C   UNL     1      -1.081  17.218  23.150  0.00  0.00    +0.000 C 
ATOM     35  C   UNL     1      -1.177  15.742  23.505  0.00  0.00    +0.000 C 
ENDBRANCH  27  35
ENDBRANCH  23  27
ENDBRANCH  22  25
BRANCH  22  36
ATOM     36  C   UNL     1      -1.500  12.080  18.596  0.00  0.00    +0.000 C 
ATOM     37  O   UNL     1      -2.534  11.421  18.523  0.00  0.00    +0.000 OA
BRANCH  36  38
ATOM     38  OXT UNL     1      -1.065  12.796  17.546  0.00  0.00    +0.000 OA
ATOM     39  HXT UNL     1      -1.371  13.720  17.508  0.00  0.00    +0.000 HD
ENDBRANCH  36  38
ENDBRANCH  22  36
ENDBRANCH  21  22
ENDBRANCH   1  21
TORSDOF 10
ENDMDL
MODEL 9
REMARK VINA RESULT:      -8.3      2.745      4.329
REMARK  Name = 
REMARK  11 active torsions:
REMARK  status: ('A' for Active; 'I' for Inactive)
REMARK    1  A    between atoms: C_1  and  C_2
REMARK    2  A    between atoms: C_2  and  C_3
REMARK    3  A    between atoms: C_3  and  C_4
REMARK    4  A    between atoms: C_3  and  C_31
REMARK    5  A    between atoms: N_6  and  CA_7
REMARK    6  A    between atoms: CA_7  and  C_8
REMARK    7  A    between atoms: CA_7  and  C_28
REMARK    8  A    between atoms: C_8  and  C_9
REMARK    9  A    between atoms: C_12  and  N_13
REMARK   10  A    between atoms: C_14  and  C_16
REMARK   11  A    between atoms: C_28  and  OXT_30
REMARK                            x       y       z     vdW  Elec       q    Type
REMARK                         _______ _______ _______ _____ _____    ______ ____
ROOT
ATOM      1  C   UNL     1       0.571  10.053  19.351  0.00  0.00    +0.000 A 
ATOM      2  C   UNL     1       1.129   9.909  18.073  0.00  0.00    +0.000 A 
ATOM      3  C   UNL     1       1.891   8.756  17.679  0.00  0.00    +0.000 A 
ATOM      4  C   UNL     1       2.191   7.711  18.565  0.00  0.00    +0.000 A 
ATOM      5  C   UNL     1       1.777   7.943  19.898  0.00  0.00    +0.000 A 
ATOM      6  C   UNL     1       0.985   9.081  20.280  0.00  0.00    +0.000 A 
ENDROOT
BRANCH   4   7
ATOM      7  N   UNL     1       2.905   6.484  18.214  0.00  0.00    +0.000 N 
ATOM      8  C   UNL     1       2.492   5.104  18.296  0.00  0.00    +0.000 C 
ATOM      9  O   UNL     1       1.455   4.744  18.842  0.00  0.00    +0.000 OA
ATOM     10  H   UNL     1       3.843   6.660  17.888  0.00  0.00    +0.000 HD
BRANCH   8  11
ATOM     11  C   UNL     1       3.455   3.996  17.617  0.00  0.00    +0.000 A 
ATOM     12  C   UNL     1       3.534   2.952  18.508  0.00  0.00    +0.000 A 
ATOM     13  C   UNL     1       4.543   3.099  19.443  0.00  0.00    +0.000 A 
ATOM     14  N   UNL     1       5.566   3.974  19.320  0.00  0.00    +0.000 NA
ATOM     15  C   UNL     1       5.772   4.468  18.091  0.00  0.00    +0.000 A 
ATOM     16  C   UNL     1       7.103   4.738  17.770  0.00  0.00    +0.000 A 
ATOM     17  C   UNL     1       7.563   4.587  16.466  0.00  0.00    +0.000 A 
ATOM     18  C   UNL     1       6.664   4.198  15.481  0.00  0.00    +0.000 A 
ATOM     19  C   UNL     1       5.284   4.123  15.795  0.00  0.00    +0.000 A 
ATOM     20  C   UNL     1       4.768   4.352  17.124  0.00  0.00    +0.000 A 
ENDBRANCH   8  11
ENDBRANCH   4   7
BRANCH   1  21
ATOM     21  C   UNL     1      -0.362  11.215  19.780  0.00  0.00    +0.000 C 
BRANCH  21  22
ATOM     22  CA  UNL     1      -0.192  11.924  21.168  0.00  0.00    +0.000 C 
BRANCH  22  25
ATOM     23  C   UNL     1      -2.137  12.199  22.791  0.00  0.00    +0.000 C 
ATOM     24  O   UNL     1      -1.837  11.185  23.418  0.00  0.00    +0.000 OA
ATOM     25  N   UNL     1      -1.468  12.567  21.648  0.00  0.00    +0.000 N 
ATOM     26  H   UNL     1      -1.532  13.559  21.425  0.00  0.00    +0.000 HD
BRANCH  23  27
ATOM     27  C   UNL     1      -3.348  13.085  23.203  0.00  0.00    +0.000 C 
BRANCH  27  28
ATOM     28  C   UNL     1      -2.956  14.343  23.990  0.00  0.00    +0.000 A 
ATOM     29  C   UNL     1      -1.618  14.545  24.372  0.00  0.00    +0.000 A 
ATOM     30  C   UNL     1      -1.238  15.677  25.107  0.00  0.00    +0.000 A 
ATOM     31  C   UNL     1      -2.186  16.629  25.471  0.00  0.00    +0.000 A 
ATOM     32  C   UNL     1      -3.517  16.444  25.108  0.00  0.00    +0.000 A 
ATOM     33  C   UNL     1      -3.897  15.313  24.378  0.00  0.00    +0.000 A 
ENDBRANCH  27  28
BRANCH  27  35
ATOM     34  C   UNL     1      -5.652  12.819  22.108  0.00  0.00    +0.000 C 
ATOM     35  C   UNL     1      -4.255  13.411  21.995  0.00  0.00    +0.000 C 
ENDBRANCH  27  35
ENDBRANCH  23  27
ENDBRANCH  22  25
BRANCH  22  36
ATOM     36  C   UNL     1       0.787  13.115  21.140  0.00  0.00    +0.000 C 
ATOM     37  O   UNL     1       0.413  14.285  21.170  0.00  0.00    +0.000 OA
BRANCH  36  38
ATOM     38  OXT UNL     1       2.096  12.810  21.128  0.00  0.00    +0.000 OA
ATOM     39  HXT UNL     1       2.706  13.565  21.205  0.00  0.00    +0.000 HD
ENDBRANCH  36  38
ENDBRANCH  22  36
ENDBRANCH  21  22
ENDBRANCH   1  21
TORSDOF 10
ENDMDL
