MODEL 1
REMARK VINA RESULT:      -5.0      0.000      0.000
REMARK  Name = 
REMARK  8 active torsions:
REMARK  status: ('A' for Active; 'I' for Inactive)
REMARK    1  A    between atoms: C_1  and  C_2
REMARK    2  A    between atoms: N_4  and  O_5
REMARK    3  A    between atoms: N_4  and  C_6
REMARK    4  A    between atoms: C_6  and  C_7
REMARK    5  A    between atoms: C_7  and  C_8
REMARK    6  A    between atoms: C_8  and  P_9
REMARK    7  A    between atoms: P_9  and  O_11
REMARK    8  A    between atoms: P_9  and  O_12
REMARK                            x       y       z     vdW  Elec       q    Type
REMARK                         _______ _______ _______ _____ _____    ______ ____
ROOT
ATOM      1  C   UNL     1       2.875   3.382  17.214  0.00  0.00    +0.000 C 
ENDROOT
BRANCH   1   2
ATOM      2  C   UNL     1       1.588   3.781  17.963  0.00  0.00    +0.000 C 
BRANCH   2   6
ATOM      3  C   UNL     1       1.744   2.618  21.532  0.00  0.00    +0.000 C 
ATOM      4  C   UNL     1       1.338   3.528  20.412  0.00  0.00    +0.000 C 
ATOM      5  O   UNL     1       1.064   4.707  20.615  0.00  0.00    +0.000 OA
ATOM      6  N   UNL     1       1.317   2.959  19.144  0.00  0.00    +0.000 N 
BRANCH   6   7
ATOM      7  O   UNL     1       1.831   1.649  19.027  0.00  0.00    +0.000 OA
ATOM      8  H   UNL     1       1.786   1.335  19.950  0.00  0.00    +0.000 HD
ENDBRANCH   6   7
ENDBRANCH   2   6
ENDBRANCH   1   2
BRANCH   1   9
ATOM      9  C   UNL     1       4.003   4.374  17.446  0.00  0.00    +0.000 C 
BRANCH   9  10
ATOM     10  P   UNL     1       4.980   4.234  18.917  0.00  0.00    +0.000 P 
ATOM     11  O   UNL     1       6.416   4.633  18.854  0.00  0.00    +0.000 OA
BRANCH  10  12
ATOM     12  O   UNL     1       4.180   5.183  19.937  0.00  0.00    +0.000 OA
ATOM     13  H   UNL     1       3.643   5.850  19.477  0.00  0.00    +0.000 HD
ENDBRANCH  10  12
BRANCH  10  14
ATOM     14  O   UNL     1       4.777   2.796  19.588  0.00  0.00    +0.000 OA
ATOM     15  H   UNL     1       5.572   2.486  20.062  0.00  0.00    +0.000 HD
ENDBRANCH  10  14
ENDBRANCH   9  10
ENDBRANCH   1   9
TORSDOF 7
ENDMDL
MODEL 2
REMARK VINA RESULT:      -5.0      2.982      4.159
REMARK  Name = 
REMARK  8 active torsions:
REMARK  status: ('A' for Active; 'I' for Inactive)
REMARK    1  A    between atoms: C_1  and  C_2
REMARK    2  A    between atoms: N_4  and  O_5
REMARK    3  A    between atoms: N_4  and  C_6
REMARK    4  A    between atoms: C_6  and  C_7
REMARK    5  A    between atoms: C_7  and  C_8
REMARK    6  A    between atoms: C_8  and  P_9
REMARK    7  A    between atoms: P_9  and  O_11
REMARK    8  A    between atoms: P_9  and  O_12
REMARK                            x       y       z     vdW  Elec       q    Type
REMARK                         _______ _______ _______ _____ _____    ______ ____
ROOT
ATOM      1  C   UNL     1       5.139   6.230  17.029  0.00  0.00    +0.000 C 
ENDROOT
BRANCH   1   2
ATOM      2  C   UNL     1       4.140   5.377  17.837  0.00  0.00    +0.000 C 
BRANCH   2   6
ATOM      3  C   UNL     1       3.565   1.685  18.226  0.00  0.00    +0.000 C 
ATOM      4  C   UNL     1       3.361   3.040  17.616  0.00  0.00    +0.000 C 
ATOM      5  O   UNL     1       2.317   3.328  17.037  0.00  0.00    +0.000 OA
ATOM      6  N   UNL     1       4.408   3.940  17.770  0.00  0.00    +0.000 N 
BRANCH   6   7
ATOM      7  O   UNL     1       5.469   3.542  18.613  0.00  0.00    +0.000 OA
ATOM      8  H   UNL     1       5.991   4.364  18.678  0.00  0.00    +0.000 HD
ENDBRANCH   6   7
ENDBRANCH   2   6
ENDBRANCH   1   2
BRANCH   1   9
ATOM      9  C   UNL     1       5.398   5.651  15.647  0.00  0.00    +0.000 C 
BRANCH   9  10
ATOM     10  P   UNL     1       6.904   4.768  15.356  0.00  0.00    +0.000 P 
ATOM     11  O   UNL     1       7.728   4.364  16.533  0.00  0.00    +0.000 OA
BRANCH  10  12
ATOM     12  O   UNL     1       6.381   3.471  14.567  0.00  0.00    +0.000 OA
ATOM     13  H   UNL     1       7.111   2.902  14.267  0.00  0.00    +0.000 HD
ENDBRANCH  10  12
BRANCH  10  14
ATOM     14  O   UNL     1       7.774   5.501  14.229  0.00  0.00    +0.000 OA
ATOM     15  H   UNL     1       8.584   5.008  13.999  0.00  0.00    +0.000 HD
ENDBRANCH  10  14
ENDBRANCH   9  10
ENDBRANCH   1   9
TORSDOF 7
ENDMDL
MODEL 3
REMARK VINA RESULT:      -4.9      2.801      3.760
REMARK  Name = 
REMARK  8 active torsions:
REMARK  status: ('A' for Active; 'I' for Inactive)
REMARK    1  A    between atoms: C_1  and  C_2
REMARK    2  A    between atoms: N_4  and  O_5
REMARK    3  A    between atoms: N_4  and  C_6
REMARK    4  A    between atoms: C_6  and  C_7
REMARK    5  A    between atoms: C_7  and  C_8
REMARK    6  A    between atoms: C_8  and  P_9
REMARK    7  A    between atoms: P_9  and  O_11
REMARK    8  A    between atoms: P_9  and  O_12
REMARK                            x       y       z     vdW  Elec       q    Type
REMARK                         _______ _______ _______ _____ _____    ______ ____
ROOT
ATOM      1  C   UNL     1       4.815   6.208  17.735  0.00  0.00    +0.000 C 
ENDROOT
BRANCH   1   2
ATOM      2  C   UNL     1       4.686   5.217  18.909  0.00  0.00    +0.000 C 
BRANCH   2   6
ATOM      3  C   UNL     1       3.555   1.708  18.185  0.00  0.00    +0.000 C 
ATOM      4  C   UNL     1       4.105   2.815  19.034  0.00  0.00    +0.000 C 
ATOM      5  O   UNL     1       4.822   2.581  20.002  0.00  0.00    +0.000 OA
ATOM      6  N   UNL     1       3.771   4.105  18.640  0.00  0.00    +0.000 N 
BRANCH   6   7
ATOM      7  O   UNL     1       3.096   4.239  17.407  0.00  0.00    +0.000 OA
ATOM      8  H   UNL     1       2.315   3.671  17.546  0.00  0.00    +0.000 HD
ENDBRANCH   6   7
ENDBRANCH   2   6
ENDBRANCH   1   2
BRANCH   1   9
ATOM      9  C   UNL     1       6.217   6.218  17.147  0.00  0.00    +0.000 C 
BRANCH   9  10
ATOM     10  P   UNL     1       6.818   4.762  16.339  0.00  0.00    +0.000 P 
ATOM     11  O   UNL     1       5.829   3.729  15.911  0.00  0.00    +0.000 OA
BRANCH  10  12
ATOM     12  O   UNL     1       7.572   5.378  15.061  0.00  0.00    +0.000 OA
ATOM     13  H   UNL     1       7.121   5.161  14.227  0.00  0.00    +0.000 HD
ENDBRANCH  10  12
BRANCH  10  14
ATOM     14  O   UNL     1       8.039   4.131  17.159  0.00  0.00    +0.000 OA
ATOM     15  H   UNL     1       7.820   3.968  18.096  0.00  0.00    +0.000 HD
ENDBRANCH  10  14
ENDBRANCH   9  10
ENDBRANCH   1   9
TORSDOF 7
ENDMDL
MODEL 4
REMARK VINA RESULT:      -4.8      2.698      4.832
REMARK  Name = 
REMARK  8 active torsions:
REMARK  status: ('A' for Active; 'I' for Inactive)
REMARK    1  A    between atoms: C_1  and  C_2
REMARK    2  A    between atoms: N_4  and  O_5
REMARK    3  A    between atoms: N_4  and  C_6
REMARK    4  A    between atoms: C_6  and  C_7
REMARK    5  A    between atoms: C_7  and  C_8
REMARK    6  A    between atoms: C_8  and  P_9
REMARK    7  A    between atoms: P_9  and  O_11
REMARK    8  A    between atoms: P_9  and  O_12
REMARK                            x       y       z     vdW  Elec       q    Type
REMARK                         _______ _______ _______ _____ _____    ______ ____
ROOT
ATOM      1  C   UNL     1       4.003   3.795  16.873  0.00  0.00    +0.000 C 
ENDROOT
BRANCH   1   2
ATOM      2  C   UNL     1       5.488   4.095  16.584  0.00  0.00    +0.000 C 
BRANCH   2   6
ATOM      3  C   UNL     1       7.689   6.759  18.056  0.00  0.00    +0.000 C 
ATOM      4  C   UNL     1       6.500   6.232  17.311  0.00  0.00    +0.000 C 
ATOM      5  O   UNL     1       5.912   6.918  16.479  0.00  0.00    +0.000 OA
ATOM      6  N   UNL     1       6.129   4.926  17.605  0.00  0.00    +0.000 N 
BRANCH   6   7
ATOM      7  O   UNL     1       6.998   4.191  18.441  0.00  0.00    +0.000 OA
ATOM      8  H   UNL     1       6.722   3.274  18.258  0.00  0.00    +0.000 HD
ENDBRANCH   6   7
ENDBRANCH   2   6
ENDBRANCH   1   2
BRANCH   1   9
ATOM      9  C   UNL     1       3.660   3.975  18.343  0.00  0.00    +0.000 C 
BRANCH   9  10
ATOM     10  P   UNL     1       3.658   2.556  19.403  0.00  0.00    +0.000 P 
ATOM     11  O   UNL     1       2.753   2.561  20.590  0.00  0.00    +0.000 OA
BRANCH  10  12
ATOM     12  O   UNL     1       3.242   1.384  18.387  0.00  0.00    +0.000 OA
ATOM     13  H   UNL     1       2.605   0.763  18.781  0.00  0.00    +0.000 HD
ENDBRANCH  10  12
BRANCH  10  14
ATOM     14  O   UNL     1       5.155   2.138  19.782  0.00  0.00    +0.000 OA
ATOM     15  H   UNL     1       5.774   2.893  19.761  0.00  0.00    +0.000 HD
ENDBRANCH  10  14
ENDBRANCH   9  10
ENDBRANCH   1   9
TORSDOF 7
ENDMDL
MODEL 5
REMARK VINA RESULT:      -4.8      2.728      3.566
REMARK  Name = 
REMARK  8 active torsions:
REMARK  status: ('A' for Active; 'I' for Inactive)
REMARK    1  A    between atoms: C_1  and  C_2
REMARK    2  A    between atoms: N_4  and  O_5
REMARK    3  A    between atoms: N_4  and  C_6
REMARK    4  A    between atoms: C_6  and  C_7
REMARK    5  A    between atoms: C_7  and  C_8
REMARK    6  A    between atoms: C_8  and  P_9
REMARK    7  A    between atoms: P_9  and  O_11
REMARK    8  A    between atoms: P_9  and  O_12
REMARK                            x       y       z     vdW  Elec       q    Type
REMARK                         _______ _______ _______ _____ _____    ______ ____
ROOT
ATOM      1  C   UNL     1       5.139   5.874  17.651  0.00  0.00    +0.000 C 
ENDROOT
BRANCH   1   2
ATOM      2  C   UNL     1       3.667   5.421  17.727  0.00  0.00    +0.000 C 
BRANCH   2   6
ATOM      3  C   UNL     1       2.182   1.999  18.172  0.00  0.00    +0.000 C 
ATOM      4  C   UNL     1       2.224   3.412  17.671  0.00  0.00    +0.000 C 
ATOM      5  O   UNL     1       1.195   4.025  17.403  0.00  0.00    +0.000 OA
ATOM      6  N   UNL     1       3.489   3.978  17.557  0.00  0.00    +0.000 N 
BRANCH   6   7
ATOM      7  O   UNL     1       4.569   3.228  18.072  0.00  0.00    +0.000 OA
ATOM      8  H   UNL     1       4.179   2.848  18.881  0.00  0.00    +0.000 HD
ENDBRANCH   6   7
ENDBRANCH   2   6
ENDBRANCH   1   2
BRANCH   1   9
ATOM      9  C   UNL     1       5.632   5.979  16.216  0.00  0.00    +0.000 C 
BRANCH   9  10
ATOM     10  P   UNL     1       6.842   4.823  15.638  0.00  0.00    +0.000 P 
ATOM     11  O   UNL     1       7.675   5.200  14.459  0.00  0.00    +0.000 OA
BRANCH  10  12
ATOM     12  O   UNL     1       7.766   4.632  16.938  0.00  0.00    +0.000 OA
ATOM     13  H   UNL     1       8.384   3.886  16.845  0.00  0.00    +0.000 HD
ENDBRANCH  10  12
BRANCH  10  14
ATOM     14  O   UNL     1       6.196   3.367  15.485  0.00  0.00    +0.000 OA
ATOM     15  H   UNL     1       6.709   2.787  14.890  0.00  0.00    +0.000 HD
ENDBRANCH  10  14
ENDBRANCH   9  10
ENDBRANCH   1   9
TORSDOF 7
ENDMDL
MODEL 6
REMARK VINA RESULT:      -4.8      3.063      4.077
REMARK  Name = 
REMARK  8 active torsions:
REMARK  status: ('A' for Active; 'I' for Inactive)
REMARK    1  A    between atoms: C_1  and  C_2
REMARK    2  A    between atoms: N_4  and  O_5
REMARK    3  A    between atoms: N_4  and  C_6
REMARK    4  A    between atoms: C_6  and  C_7
REMARK    5  A    between atoms: C_7  and  C_8
REMARK    6  A    between atoms: C_8  and  P_9
REMARK    7  A    between atoms: P_9  and  O_11
REMARK    8  A    between atoms: P_9  and  O_12
REMARK                            x       y       z     vdW  Elec       q    Type
REMARK                         _______ _______ _______ _____ _____    ______ ____
ROOT
ATOM      1  C   UNL     1       5.393   6.389  17.025  0.00  0.00    +0.000 C 
ENDROOT
BRANCH   1   2
ATOM      2  C   UNL     1       4.507   5.647  18.046  0.00  0.00    +0.000 C 
BRANCH   2   6
ATOM      3  C   UNL     1       3.540   2.036  18.425  0.00  0.00    +0.000 C 
ATOM      4  C   UNL     1       3.473   3.409  17.826  0.00  0.00    +0.000 C 
ATOM      5  O   UNL     1       2.457   3.815  17.269  0.00  0.00    +0.000 OA
ATOM      6  N   UNL     1       4.616   4.189  17.966  0.00  0.00    +0.000 N 
BRANCH   6   7
ATOM      7  O   UNL     1       5.642   3.671  18.786  0.00  0.00    +0.000 OA
ATOM      8  H   UNL     1       5.130   3.223  19.485  0.00  0.00    +0.000 HD
ENDBRANCH   6   7
ENDBRANCH   2   6
ENDBRANCH   1   2
BRANCH   1   9
ATOM      9  C   UNL     1       5.366   5.727  15.656  0.00  0.00    +0.000 C 
BRANCH   9  10
ATOM     10  P   UNL     1       6.796   4.843  15.102  0.00  0.00    +0.000 P 
ATOM     11  O   UNL     1       7.738   5.532  14.172  0.00  0.00    +0.000 OA
BRANCH  10  12
ATOM     12  O   UNL     1       7.532   4.499  16.488  0.00  0.00    +0.000 OA
ATOM     13  H   UNL     1       6.901   4.286  17.197  0.00  0.00    +0.000 HD
ENDBRANCH  10  12
BRANCH  10  14
ATOM     14  O   UNL     1       6.388   3.386  14.584  0.00  0.00    +0.000 OA
ATOM     15  H   UNL     1       7.159   2.799  14.461  0.00  0.00    +0.000 HD
ENDBRANCH  10  14
ENDBRANCH   9  10
ENDBRANCH   1   9
TORSDOF 7
ENDMDL
MODEL 7
REMARK VINA RESULT:      -4.8      0.876      1.368
REMARK  Name = 
REMARK  8 active torsions:
REMARK  status: ('A' for Active; 'I' for Inactive)
REMARK    1  A    between atoms: C_1  and  C_2
REMARK    2  A    between atoms: N_4  and  O_5
REMARK    3  A    between atoms: N_4  and  C_6
REMARK    4  A    between atoms: C_6  and  C_7
REMARK    5  A    between atoms: C_7  and  C_8
REMARK    6  A    between atoms: C_8  and  P_9
REMARK    7  A    between atoms: P_9  and  O_11
REMARK    8  A    between atoms: P_9  and  O_12
REMARK                            x       y       z     vdW  Elec       q    Type
REMARK                         _______ _______ _______ _____ _____    ______ ____
ROOT
ATOM      1  C   UNL     1       3.003   3.158  17.477  0.00  0.00    +0.000 C 
ENDROOT
BRANCH   1   2
ATOM      2  C   UNL     1       1.785   4.016  17.878  0.00  0.00    +0.000 C 
BRANCH   2   6
ATOM      3  C   UNL     1       1.361   2.675  21.361  0.00  0.00    +0.000 C 
ATOM      4  C   UNL     1       1.693   3.713  20.332  0.00  0.00    +0.000 C 
ATOM      5  O   UNL     1       2.457   4.640  20.584  0.00  0.00    +0.000 OA
ATOM      6  N   UNL     1       1.105   3.541  19.084  0.00  0.00    +0.000 N 
BRANCH   6   7
ATOM      7  O   UNL     1       0.398   2.336  18.875  0.00  0.00    +0.000 OA
ATOM      8  H   UNL     1      -0.526   2.624  19.001  0.00  0.00    +0.000 HD
ENDBRANCH   6   7
ENDBRANCH   2   6
ENDBRANCH   1   2
BRANCH   1   9
ATOM      9  C   UNL     1       4.232   4.007  17.193  0.00  0.00    +0.000 C 
BRANCH   9  10
ATOM     10  P   UNL     1       5.366   4.342  18.511  0.00  0.00    +0.000 P 
ATOM     11  O   UNL     1       5.227   5.628  19.255  0.00  0.00    +0.000 OA
BRANCH  10  12
ATOM     12  O   UNL     1       5.112   3.097  19.492  0.00  0.00    +0.000 OA
ATOM     13  H   UNL     1       4.302   3.202  20.021  0.00  0.00    +0.000 HD
ENDBRANCH  10  12
BRANCH  10  14
ATOM     14  O   UNL     1       6.870   4.075  18.035  0.00  0.00    +0.000 OA
ATOM     15  H   UNL     1       7.041   3.136  17.832  0.00  0.00    +0.000 HD
ENDBRANCH  10  14
ENDBRANCH   9  10
ENDBRANCH   1   9
TORSDOF 7
ENDMDL
MODEL 8
REMARK VINA RESULT:      -4.8      2.090      3.091
REMARK  Name = 
REMARK  8 active torsions:
REMARK  status: ('A' for Active; 'I' for Inactive)
REMARK    1  A    between atoms: C_1  and  C_2
REMARK    2  A    between atoms: N_4  and  O_5
REMARK    3  A    between atoms: N_4  and  C_6
REMARK    4  A    between atoms: C_6  and  C_7
REMARK    5  A    between atoms: C_7  and  C_8
REMARK    6  A    between atoms: C_8  and  P_9
REMARK    7  A    between atoms: P_9  and  O_11
REMARK    8  A    between atoms: P_9  and  O_12
REMARK                            x       y       z     vdW  Elec       q    Type
REMARK                         _______ _______ _______ _____ _____    ______ ____
ROOT
ATOM      1  C   UNL     1       5.218   4.276  16.080  0.00  0.00    +0.000 C 
ENDROOT
BRANCH   1   2
ATOM      2  C   UNL     1       3.958   4.482  16.945  0.00  0.00    +0.000 C 
BRANCH   2   6
ATOM      3  C   UNL     1       1.738   2.203  18.944  0.00  0.00    +0.000 C 
ATOM      4  C   UNL     1       2.056   3.193  17.863  0.00  0.00    +0.000 C 
ATOM      5  O   UNL     1       1.191   3.930  17.399  0.00  0.00    +0.000 OA
ATOM      6  N   UNL     1       3.381   3.233  17.447  0.00  0.00    +0.000 N 
BRANCH   6   7
ATOM      7  O   UNL     1       4.304   2.465  18.190  0.00  0.00    +0.000 OA
ATOM      8  H   UNL     1       4.299   1.621  17.701  0.00  0.00    +0.000 HD
ENDBRANCH   6   7
ENDBRANCH   2   6
ENDBRANCH   1   2
BRANCH   1   9
ATOM      9  C   UNL     1       6.341   5.222  16.472  0.00  0.00    +0.000 C 
BRANCH   9  10
ATOM     10  P   UNL     1       7.109   5.032  18.056  0.00  0.00    +0.000 P 
ATOM     11  O   UNL     1       6.292   4.481  19.177  0.00  0.00    +0.000 OA
BRANCH  10  12
ATOM     12  O   UNL     1       8.330   4.045  17.717  0.00  0.00    +0.000 OA
ATOM     13  H   UNL     1       8.812   4.316  16.917  0.00  0.00    +0.000 HD
ENDBRANCH  10  12
BRANCH  10  14
ATOM     14  O   UNL     1       7.882   6.371  18.469  0.00  0.00    +0.000 OA
ATOM     15  H   UNL     1       8.724   6.483  17.988  0.00  0.00    +0.000 HD
ENDBRANCH  10  14
ENDBRANCH   9  10
ENDBRANCH   1   9
TORSDOF 7
ENDMDL
MODEL 9
REMARK VINA RESULT:      -4.8      3.349      4.504
REMARK  Name = 
REMARK  8 active torsions:
REMARK  status: ('A' for Active; 'I' for Inactive)
REMARK    1  A    between atoms: C_1  and  C_2
REMARK    2  A    between atoms: N_4  and  O_5
REMARK    3  A    between atoms: N_4  and  C_6
REMARK    4  A    between atoms: C_6  and  C_7
REMARK    5  A    between atoms: C_7  and  C_8
REMARK    6  A    between atoms: C_8  and  P_9
REMARK    7  A    between atoms: P_9  and  O_11
REMARK    8  A    between atoms: P_9  and  O_12
REMARK                            x       y       z     vdW  Elec       q    Type
REMARK                         _______ _______ _______ _____ _____    ______ ____
ROOT
ATOM      1  C   UNL     1       7.196   5.640  17.820  0.00  0.00    +0.000 C 
ENDROOT
BRANCH   1   2
ATOM      2  C   UNL     1       6.156   5.331  18.916  0.00  0.00    +0.000 C 
BRANCH   2   6
ATOM      3  C   UNL     1       2.858   3.617  18.373  0.00  0.00    +0.000 C 
ATOM      4  C   UNL     1       3.946   4.605  18.075  0.00  0.00    +0.000 C 
ATOM      5  O   UNL     1       3.714   5.646  17.468  0.00  0.00    +0.000 OA
ATOM      6  N   UNL     1       5.211   4.276  18.547  0.00  0.00    +0.000 N 
BRANCH   6   7
ATOM      7  O   UNL     1       5.301   3.144  19.385  0.00  0.00    +0.000 OA
ATOM      8  H   UNL     1       5.941   3.445  20.058  0.00  0.00    +0.000 HD
ENDBRANCH   6   7
ENDBRANCH   2   6
ENDBRANCH   1   2
BRANCH   1   9
ATOM      9  C   UNL     1       7.295   4.522  16.794  0.00  0.00    +0.000 C 
BRANCH   9  10
ATOM     10  P   UNL     1       6.767   4.833  15.133  0.00  0.00    +0.000 P 
ATOM     11  O   UNL     1       6.122   3.721  14.375  0.00  0.00    +0.000 OA
BRANCH  10  12
ATOM     12  O   UNL     1       5.734   6.046  15.334  0.00  0.00    +0.000 OA
ATOM     13  H   UNL     1       5.188   5.938  16.132  0.00  0.00    +0.000 HD
ENDBRANCH  10  12
BRANCH  10  14
ATOM     14  O   UNL     1       7.935   5.540  14.298  0.00  0.00    +0.000 OA
ATOM     15  H   UNL     1       8.300   6.325  14.750  0.00  0.00    +0.000 HD
ENDBRANCH  10  14
ENDBRANCH   9  10
ENDBRANCH   1   9
TORSDOF 7
ENDMDL
