MODEL 1
REMARK VINA RESULT:      -7.7      0.000      0.000
REMARK  Name = 
REMARK  6 active torsions:
REMARK  status: ('A' for Active; 'I' for Inactive)
REMARK    1  A    between atoms: C_1  and  C_2
REMARK    2  A    between atoms: C_2  and  C_3
REMARK    3  A    between atoms: C_3  and  C_4
REMARK    4  A    between atoms: C_4  and  C_5
REMARK    5  A    between atoms: C_11  and  C_12
REMARK    6  A    between atoms: C_16  and  N_17
REMARK                            x       y       z     vdW  Elec       q    Type
REMARK                         _______ _______ _______ _____ _____    ______ ____
ROOT
ATOM      1  C   UNL     1       3.524   4.460  19.261  0.00  0.00    +0.000 C 
ATOM      2  O   UNL     1       2.875   3.913  18.373  0.00  0.00    +0.000 OA
ATOM      3  N   UNL     1       4.835   4.872  19.188  0.00  0.00    +0.000 N 
ATOM      4  C   UNL     1       5.603   4.854  18.050  0.00  0.00    +0.000 A 
ATOM      5  N   UNL     1       6.909   4.997  18.057  0.00  0.00    +0.000 NA
ATOM      6  N   UNL     1       7.442   4.910  16.783  0.00  0.00    +0.000 NA
ATOM      7  C   UNL     1       6.514   4.736  15.860  0.00  0.00    +0.000 A 
ATOM      8  S   UNL     1       4.919   4.745  16.496  0.00  0.00    +0.000 S 
ATOM      9  H   UNL     1       5.350   5.072  20.034  0.00  0.00    +0.000 HD
ENDROOT
BRANCH   7  10
ATOM     10  C   UNL     1       6.767   4.578  14.422  0.00  0.00    +0.000 A 
ATOM     11  C   UNL     1       7.725   5.349  13.737  0.00  0.00    +0.000 A 
ATOM     12  C   UNL     1       7.923   5.205  12.362  0.00  0.00    +0.000 A 
ATOM     13  C   UNL     1       7.162   4.289  11.641  0.00  0.00    +0.000 A 
ATOM     14  C   UNL     1       6.205   3.515  12.309  0.00  0.00    +0.000 A 
ATOM     15  C   UNL     1       6.007   3.652  13.690  0.00  0.00    +0.000 A 
BRANCH  14  16
ATOM     16  N   UNL     1       5.395   2.550  11.552  0.00  0.00    +0.000 N 
ATOM     17  O   UNL     1       5.913   1.456  11.279  0.00  0.00    +0.000 OA
ATOM     18  O   UNL     1       4.250   2.885  11.232  0.00  0.00    +0.000 OA
ENDBRANCH  14  16
ENDBRANCH   7  10
BRANCH   1  19
ATOM     19  C   UNL     1       2.885   4.722  20.608  0.00  0.00    +0.000 C 
BRANCH  19  20
ATOM     20  C   UNL     1       1.361   4.634  20.567  0.00  0.00    +0.000 C 
BRANCH  20  22
ATOM     21  C   UNL     1       1.616   2.483  21.843  0.00  0.00    +0.000 C 
ATOM     22  C   UNL     1       0.840   3.207  20.754  0.00  0.00    +0.000 C 
ENDBRANCH  20  22
ENDBRANCH  19  20
ENDBRANCH   1  19
TORSDOF 5
ENDMDL
MODEL 2
REMARK VINA RESULT:      -7.6      0.964      1.375
REMARK  Name = 
REMARK  6 active torsions:
REMARK  status: ('A' for Active; 'I' for Inactive)
REMARK    1  A    between atoms: C_1  and  C_2
REMARK    2  A    between atoms: C_2  and  C_3
REMARK    3  A    between atoms: C_3  and  C_4
REMARK    4  A    between atoms: C_4  and  C_5
REMARK    5  A    between atoms: C_11  and  C_12
REMARK    6  A    between atoms: C_16  and  N_17
REMARK                            x       y       z     vdW  Elec       q    Type
REMARK                         _______ _______ _______ _____ _____    ______ ____
ROOT
ATOM      1  C   UNL     1       3.484   2.943  19.580  0.00  0.00    +0.000 C 
ATOM      2  O   UNL     1       3.022   2.296  18.644  0.00  0.00    +0.000 OA
ATOM      3  N   UNL     1       4.620   3.719  19.563  0.00  0.00    +0.000 N 
ATOM      4  C   UNL     1       5.362   4.002  18.444  0.00  0.00    +0.000 A 
ATOM      5  N   UNL     1       6.571   4.514  18.489  0.00  0.00    +0.000 NA
ATOM      6  N   UNL     1       7.109   4.673  17.224  0.00  0.00    +0.000 NA
ATOM      7  C   UNL     1       6.272   4.304  16.271  0.00  0.00    +0.000 A 
ATOM      8  S   UNL     1       4.742   3.809  16.872  0.00  0.00    +0.000 S 
ATOM      9  H   UNL     1       5.053   4.000  20.432  0.00  0.00    +0.000 HD
ENDROOT
BRANCH   7  10
ATOM     10  C   UNL     1       6.563   4.325  14.832  0.00  0.00    +0.000 A 
ATOM     11  C   UNL     1       7.558   5.153  14.278  0.00  0.00    +0.000 A 
ATOM     12  C   UNL     1       7.793   5.182  12.901  0.00  0.00    +0.000 A 
ATOM     13  C   UNL     1       7.032   4.387  12.048  0.00  0.00    +0.000 A 
ATOM     14  C   UNL     1       6.038   3.559  12.585  0.00  0.00    +0.000 A 
ATOM     15  C   UNL     1       5.804   3.523  13.967  0.00  0.00    +0.000 A 
BRANCH  14  16
ATOM     16  N   UNL     1       5.229   2.722  11.689  0.00  0.00    +0.000 N 
ATOM     17  O   UNL     1       5.695   1.623  11.353  0.00  0.00    +0.000 OA
ATOM     18  O   UNL     1       4.133   3.162  11.323  0.00  0.00    +0.000 OA
ENDBRANCH  14  16
ENDBRANCH   7  10
BRANCH   1  19
ATOM     19  C   UNL     1       2.793   2.915  20.927  0.00  0.00    +0.000 C 
BRANCH  19  20
ATOM     20  C   UNL     1       2.243   4.278  21.338  0.00  0.00    +0.000 C 
BRANCH  20  22
ATOM     21  C   UNL     1       2.013   6.495  20.174  0.00  0.00    +0.000 C 
ATOM     22  C   UNL     1       1.592   5.034  20.177  0.00  0.00    +0.000 C 
ENDBRANCH  20  22
ENDBRANCH  19  20
ENDBRANCH   1  19
TORSDOF 5
ENDMDL
MODEL 3
REMARK VINA RESULT:      -7.4      0.865      1.212
REMARK  Name = 
REMARK  6 active torsions:
REMARK  status: ('A' for Active; 'I' for Inactive)
REMARK    1  A    between atoms: C_1  and  C_2
REMARK    2  A    between atoms: C_2  and  C_3
REMARK    3  A    between atoms: C_3  and  C_4
REMARK    4  A    between atoms: C_4  and  C_5
REMARK    5  A    between atoms: C_11  and  C_12
REMARK    6  A    between atoms: C_16  and  N_17
REMARK                            x       y       z     vdW  Elec       q    Type
REMARK                         _______ _______ _______ _____ _____    ______ ____
ROOT
ATOM      1  C   UNL     1       3.808   4.108  19.518  0.00  0.00    +0.000 C 
ATOM      2  O   UNL     1       3.881   3.007  18.978  0.00  0.00    +0.000 OA
ATOM      3  N   UNL     1       4.379   5.280  19.078  0.00  0.00    +0.000 N 
ATOM      4  C   UNL     1       5.027   5.437  17.877  0.00  0.00    +0.000 A 
ATOM      5  N   UNL     1       5.786   6.472  17.596  0.00  0.00    +0.000 NA
ATOM      6  N   UNL     1       6.344   6.371  16.333  0.00  0.00    +0.000 NA
ATOM      7  C   UNL     1       5.959   5.278  15.699  0.00  0.00    +0.000 A 
ATOM      8  S   UNL     1       4.826   4.345  16.589  0.00  0.00    +0.000 S 
ATOM      9  H   UNL     1       4.479   6.062  19.710  0.00  0.00    +0.000 HD
ENDROOT
BRANCH   7  10
ATOM     10  C   UNL     1       6.403   4.876  14.358  0.00  0.00    +0.000 A 
ATOM     11  C   UNL     1       7.535   5.439  13.739  0.00  0.00    +0.000 A 
ATOM     12  C   UNL     1       7.917   5.065  12.449  0.00  0.00    +0.000 A 
ATOM     13  C   UNL     1       7.170   4.123  11.747  0.00  0.00    +0.000 A 
ATOM     14  C   UNL     1       6.041   3.554  12.350  0.00  0.00    +0.000 A 
ATOM     15  C   UNL     1       5.658   3.922  13.648  0.00  0.00    +0.000 A 
BRANCH  14  16
ATOM     16  N   UNL     1       5.246   2.562  11.612  0.00  0.00    +0.000 N 
ATOM     17  O   UNL     1       4.109   2.895  11.246  0.00  0.00    +0.000 OA
ATOM     18  O   UNL     1       5.758   1.457  11.401  0.00  0.00    +0.000 OA
ENDBRANCH  14  16
ENDBRANCH   7  10
BRANCH   1  19
ATOM     19  C   UNL     1       3.042   4.262  20.814  0.00  0.00    +0.000 C 
BRANCH  19  20
ATOM     20  C   UNL     1       1.536   4.394  20.600  0.00  0.00    +0.000 C 
BRANCH  20  22
ATOM     21  C   UNL     1       0.524   2.627  19.125  0.00  0.00    +0.000 C 
ATOM     22  C   UNL     1       0.818   3.042  20.557  0.00  0.00    +0.000 C 
ENDBRANCH  20  22
ENDBRANCH  19  20
ENDBRANCH   1  19
TORSDOF 5
ENDMDL
MODEL 4
REMARK VINA RESULT:      -7.4      1.192      1.880
REMARK  Name = 
REMARK  6 active torsions:
REMARK  status: ('A' for Active; 'I' for Inactive)
REMARK    1  A    between atoms: C_1  and  C_2
REMARK    2  A    between atoms: C_2  and  C_3
REMARK    3  A    between atoms: C_3  and  C_4
REMARK    4  A    between atoms: C_4  and  C_5
REMARK    5  A    between atoms: C_11  and  C_12
REMARK    6  A    between atoms: C_16  and  N_17
REMARK                            x       y       z     vdW  Elec       q    Type
REMARK                         _______ _______ _______ _____ _____    ______ ____
ROOT
ATOM      1  C   UNL     1       3.094   4.722  19.342  0.00  0.00    +0.000 C 
ATOM      2  O   UNL     1       2.405   4.384  18.382  0.00  0.00    +0.000 OA
ATOM      3  N   UNL     1       4.463   4.855  19.365  0.00  0.00    +0.000 N 
ATOM      4  C   UNL     1       5.282   4.754  18.268  0.00  0.00    +0.000 A 
ATOM      5  N   UNL     1       6.586   4.620  18.349  0.00  0.00    +0.000 NA
ATOM      6  N   UNL     1       7.170   4.510  17.100  0.00  0.00    +0.000 NA
ATOM      7  C   UNL     1       6.287   4.596  16.122  0.00  0.00    +0.000 A 
ATOM      8  S   UNL     1       4.691   4.895  16.679  0.00  0.00    +0.000 S 
ATOM      9  H   UNL     1       4.953   4.886  20.249  0.00  0.00    +0.000 HD
ENDROOT
BRANCH   7  10
ATOM     10  C   UNL     1       6.594   4.486  14.690  0.00  0.00    +0.000 A 
ATOM     11  C   UNL     1       7.608   5.246  14.077  0.00  0.00    +0.000 A 
ATOM     12  C   UNL     1       7.858   5.149  12.706  0.00  0.00    +0.000 A 
ATOM     13  C   UNL     1       7.094   4.294  11.918  0.00  0.00    +0.000 A 
ATOM     14  C   UNL     1       6.081   3.532  12.514  0.00  0.00    +0.000 A 
ATOM     15  C   UNL     1       5.831   3.621  13.891  0.00  0.00    +0.000 A 
BRANCH  14  16
ATOM     16  N   UNL     1       5.268   2.630  11.685  0.00  0.00    +0.000 N 
ATOM     17  O   UNL     1       4.143   3.023  11.344  0.00  0.00    +0.000 OA
ATOM     18  O   UNL     1       5.754   1.536  11.378  0.00  0.00    +0.000 OA
ENDBRANCH  14  16
ENDBRANCH   7  10
BRANCH   1  19
ATOM     19  C   UNL     1       2.437   5.020  20.672  0.00  0.00    +0.000 C 
BRANCH  19  20
ATOM     20  C   UNL     1       1.399   6.136  20.583  0.00  0.00    +0.000 C 
BRANCH  20  22
ATOM     21  C   UNL     1       1.131   8.634  20.690  0.00  0.00    +0.000 C 
ATOM     22  C   UNL     1       2.009   7.489  20.209  0.00  0.00    +0.000 C 
ENDBRANCH  20  22
ENDBRANCH  19  20
ENDBRANCH   1  19
TORSDOF 5
ENDMDL
MODEL 5
REMARK VINA RESULT:      -7.3      1.012      1.144
REMARK  Name = 
REMARK  6 active torsions:
REMARK  status: ('A' for Active; 'I' for Inactive)
REMARK    1  A    between atoms: C_1  and  C_2
REMARK    2  A    between atoms: C_2  and  C_3
REMARK    3  A    between atoms: C_3  and  C_4
REMARK    4  A    between atoms: C_4  and  C_5
REMARK    5  A    between atoms: C_11  and  C_12
REMARK    6  A    between atoms: C_16  and  N_17
REMARK                            x       y       z     vdW  Elec       q    Type
REMARK                         _______ _______ _______ _____ _____    ______ ____
ROOT
ATOM      1  C   UNL     1       3.980   2.880  19.613  0.00  0.00    +0.000 C 
ATOM      2  O   UNL     1       3.975   1.906  18.864  0.00  0.00    +0.000 OA
ATOM      3  N   UNL     1       4.602   4.087  19.388  0.00  0.00    +0.000 N 
ATOM      4  C   UNL     1       5.221   4.448  18.217  0.00  0.00    +0.000 A 
ATOM      5  N   UNL     1       6.027   5.479  18.113  0.00  0.00    +0.000 NA
ATOM      6  N   UNL     1       6.540   5.604  16.834  0.00  0.00    +0.000 NA
ATOM      7  C   UNL     1       6.076   4.679  16.014  0.00  0.00    +0.000 A 
ATOM      8  S   UNL     1       4.920   3.644  16.748  0.00  0.00    +0.000 S 
ATOM      9  H   UNL     1       4.764   4.722  20.157  0.00  0.00    +0.000 HD
ENDROOT
BRANCH   7  10
ATOM     10  C   UNL     1       6.456   4.529  14.603  0.00  0.00    +0.000 A 
ATOM     11  C   UNL     1       7.505   5.268  14.023  0.00  0.00    +0.000 A 
ATOM     12  C   UNL     1       7.824   5.134  12.670  0.00  0.00    +0.000 A 
ATOM     13  C   UNL     1       7.096   4.261  11.866  0.00  0.00    +0.000 A 
ATOM     14  C   UNL     1       6.050   3.520  12.429  0.00  0.00    +0.000 A 
ATOM     15  C   UNL     1       5.730   3.647  13.788  0.00  0.00    +0.000 A 
BRANCH  14  16
ATOM     16  N   UNL     1       5.275   2.600  11.583  0.00  0.00    +0.000 N 
ATOM     17  O   UNL     1       5.792   1.510  11.298  0.00  0.00    +0.000 OA
ATOM     18  O   UNL     1       4.157   2.968  11.208  0.00  0.00    +0.000 OA
ENDBRANCH  14  16
ENDBRANCH   7  10
BRANCH   1  19
ATOM     19  C   UNL     1       3.264   2.810  20.944  0.00  0.00    +0.000 C 
BRANCH  19  20
ATOM     20  C   UNL     1       2.111   3.806  21.049  0.00  0.00    +0.000 C 
BRANCH  20  22
ATOM     21  C   UNL     1       0.674   2.968  19.164  0.00  0.00    +0.000 C 
ATOM     22  C   UNL     1       0.760   3.197  20.665  0.00  0.00    +0.000 C 
ENDBRANCH  20  22
ENDBRANCH  19  20
ENDBRANCH   1  19
TORSDOF 5
ENDMDL
MODEL 6
REMARK VINA RESULT:      -7.2      2.206      7.855
REMARK  Name = 
REMARK  6 active torsions:
REMARK  status: ('A' for Active; 'I' for Inactive)
REMARK    1  A    between atoms: C_1  and  C_2
REMARK    2  A    between atoms: C_2  and  C_3
REMARK    3  A    between atoms: C_3  and  C_4
REMARK    4  A    between atoms: C_4  and  C_5
REMARK    5  A    between atoms: C_11  and  C_12
REMARK    6  A    between atoms: C_16  and  N_17
REMARK                            x       y       z     vdW  Elec       q    Type
REMARK                         _______ _______ _______ _____ _____    ______ ____
ROOT
ATOM      1  C   UNL     1       7.026   5.190  14.340  0.00  0.00    +0.000 C 
ATOM      2  O   UNL     1       5.969   5.774  14.119  0.00  0.00    +0.000 OA
ATOM      3  N   UNL     1       7.464   4.711  15.554  0.00  0.00    +0.000 N 
ATOM      4  C   UNL     1       6.721   4.696  16.708  0.00  0.00    +0.000 A 
ATOM      5  N   UNL     1       7.237   4.486  17.897  0.00  0.00    +0.000 NA
ATOM      6  N   UNL     1       6.278   4.553  18.892  0.00  0.00    +0.000 NA
ATOM      7  C   UNL     1       5.069   4.780  18.412  0.00  0.00    +0.000 A 
ATOM      8  S   UNL     1       5.027   4.849  16.697  0.00  0.00    +0.000 S 
ATOM      9  H   UNL     1       8.439   4.479  15.684  0.00  0.00    +0.000 HD
ENDROOT
BRANCH   7  10
ATOM     10  C   UNL     1       3.851   4.934  19.218  0.00  0.00    +0.000 A 
ATOM     11  C   UNL     1       3.297   6.194  19.511  0.00  0.00    +0.000 A 
ATOM     12  C   UNL     1       2.157   6.317  20.309  0.00  0.00    +0.000 A 
ATOM     13  C   UNL     1       1.551   5.180  20.837  0.00  0.00    +0.000 A 
ATOM     14  C   UNL     1       2.091   3.920  20.554  0.00  0.00    +0.000 A 
ATOM     15  C   UNL     1       3.232   3.792  19.748  0.00  0.00    +0.000 A 
BRANCH  14  16
ATOM     16  N   UNL     1       1.458   2.716  21.113  0.00  0.00    +0.000 N 
ATOM     17  O   UNL     1       1.480   2.575  22.344  0.00  0.00    +0.000 OA
ATOM     18  O   UNL     1       0.942   1.919  20.322  0.00  0.00    +0.000 OA
ENDBRANCH  14  16
ENDBRANCH   7  10
BRANCH   1  19
ATOM     19  C   UNL     1       8.006   4.953  13.211  0.00  0.00    +0.000 C 
BRANCH  19  20
ATOM     20  C   UNL     1       7.321   4.535  11.911  0.00  0.00    +0.000 C 
BRANCH  20  22
ATOM     21  C   UNL     1       5.153   3.266  11.837  0.00  0.00    +0.000 C 
ATOM     22  C   UNL     1       6.660   3.158  12.002  0.00  0.00    +0.000 C 
ENDBRANCH  20  22
ENDBRANCH  19  20
ENDBRANCH   1  19
TORSDOF 5
ENDMDL
MODEL 7
REMARK VINA RESULT:      -7.2      4.722      7.665
REMARK  Name = 
REMARK  6 active torsions:
REMARK  status: ('A' for Active; 'I' for Inactive)
REMARK    1  A    between atoms: C_1  and  C_2
REMARK    2  A    between atoms: C_2  and  C_3
REMARK    3  A    between atoms: C_3  and  C_4
REMARK    4  A    between atoms: C_4  and  C_5
REMARK    5  A    between atoms: C_11  and  C_12
REMARK    6  A    between atoms: C_16  and  N_17
REMARK                            x       y       z     vdW  Elec       q    Type
REMARK                         _______ _______ _______ _____ _____    ______ ____
ROOT
ATOM      1  C   UNL     1       8.185   8.351  18.061  0.00  0.00    +0.000 C 
ATOM      2  O   UNL     1       8.494   7.540  18.930  0.00  0.00    +0.000 OA
ATOM      3  N   UNL     1       7.210   8.198  17.101  0.00  0.00    +0.000 N 
ATOM      4  C   UNL     1       6.325   7.150  17.039  0.00  0.00    +0.000 A 
ATOM      5  N   UNL     1       5.591   6.887  15.983  0.00  0.00    +0.000 NA
ATOM      6  N   UNL     1       4.808   5.761  16.169  0.00  0.00    +0.000 NA
ATOM      7  C   UNL     1       4.960   5.236  17.371  0.00  0.00    +0.000 A 
ATOM      8  S   UNL     1       6.019   6.142  18.374  0.00  0.00    +0.000 S 
ATOM      9  H   UNL     1       7.204   8.798  16.288  0.00  0.00    +0.000 HD
ENDROOT
BRANCH   7  10
ATOM     10  C   UNL     1       4.290   4.023  17.858  0.00  0.00    +0.000 A 
ATOM     11  C   UNL     1       3.396   3.285  17.059  0.00  0.00    +0.000 A 
ATOM     12  C   UNL     1       2.744   2.154  17.555  0.00  0.00    +0.000 A 
ATOM     13  C   UNL     1       2.968   1.740  18.865  0.00  0.00    +0.000 A 
ATOM     14  C   UNL     1       3.855   2.465  19.672  0.00  0.00    +0.000 A 
ATOM     15  C   UNL     1       4.516   3.597  19.175  0.00  0.00    +0.000 A 
BRANCH  14  16
ATOM     16  N   UNL     1       4.092   2.035  21.058  0.00  0.00    +0.000 N 
ATOM     17  O   UNL     1       3.173   2.201  21.875  0.00  0.00    +0.000 OA
ATOM     18  O   UNL     1       5.190   1.536  21.326  0.00  0.00    +0.000 OA
ENDBRANCH  14  16
ENDBRANCH   7  10
BRANCH   1  19
ATOM     19  C   UNL     1       8.923   9.669  17.965  0.00  0.00    +0.000 C 
BRANCH  19  20
ATOM     20  C   UNL     1       9.296  10.240  19.331  0.00  0.00    +0.000 C 
BRANCH  20  22
ATOM     21  C   UNL     1       9.381  12.720  19.732  0.00  0.00    +0.000 C 
ATOM     22  C   UNL     1      10.150  11.506  19.236  0.00  0.00    +0.000 C 
ENDBRANCH  20  22
ENDBRANCH  19  20
ENDBRANCH   1  19
TORSDOF 5
ENDMDL
MODEL 8
REMARK VINA RESULT:      -7.0      4.276      9.040
REMARK  Name = 
REMARK  6 active torsions:
REMARK  status: ('A' for Active; 'I' for Inactive)
REMARK    1  A    between atoms: C_1  and  C_2
REMARK    2  A    between atoms: C_2  and  C_3
REMARK    3  A    between atoms: C_3  and  C_4
REMARK    4  A    between atoms: C_4  and  C_5
REMARK    5  A    between atoms: C_11  and  C_12
REMARK    6  A    between atoms: C_16  and  N_17
REMARK                            x       y       z     vdW  Elec       q    Type
REMARK                         _______ _______ _______ _____ _____    ______ ____
ROOT
ATOM      1  C   UNL     1       5.804   5.589  16.011  0.00  0.00    +0.000 C 
ATOM      2  O   UNL     1       5.756   6.762  15.648  0.00  0.00    +0.000 OA
ATOM      3  N   UNL     1       5.173   5.038  17.103  0.00  0.00    +0.000 N 
ATOM      4  C   UNL     1       4.271   5.694  17.903  0.00  0.00    +0.000 A 
ATOM      5  N   UNL     1       3.889   5.247  19.077  0.00  0.00    +0.000 NA
ATOM      6  N   UNL     1       2.998   6.110  19.691  0.00  0.00    +0.000 NA
ATOM      7  C   UNL     1       2.719   7.161  18.942  0.00  0.00    +0.000 A 
ATOM      8  S   UNL     1       3.478   7.112  17.402  0.00  0.00    +0.000 S 
ATOM      9  H   UNL     1       5.473   4.142  17.460  0.00  0.00    +0.000 HD
ENDROOT
BRANCH   7  10
ATOM     10  C   UNL     1       1.833   8.267  19.328  0.00  0.00    +0.000 A 
ATOM     11  C   UNL     1       1.558   9.346  18.467  0.00  0.00    +0.000 A 
ATOM     12  C   UNL     1       0.740  10.404  18.870  0.00  0.00    +0.000 A 
ATOM     13  C   UNL     1       0.184  10.407  20.146  0.00  0.00    +0.000 A 
ATOM     14  C   UNL     1       0.449   9.340  21.013  0.00  0.00    +0.000 A 
ATOM     15  C   UNL     1       1.265   8.273  20.611  0.00  0.00    +0.000 A 
BRANCH  14  16
ATOM     16  N   UNL     1      -0.132   9.341  22.364  0.00  0.00    +0.000 N 
ATOM     17  O   UNL     1      -0.849   8.380  22.680  0.00  0.00    +0.000 OA
ATOM     18  O   UNL     1       0.127  10.298  23.101  0.00  0.00    +0.000 OA
ENDBRANCH  14  16
ENDBRANCH   7  10
BRANCH   1  19
ATOM     19  C   UNL     1       6.640   4.595  15.233  0.00  0.00    +0.000 C 
BRANCH  19  20
ATOM     20  C   UNL     1       5.803   3.717  14.305  0.00  0.00    +0.000 C 
BRANCH  20  22
ATOM     21  C   UNL     1       5.268   3.136  11.918  0.00  0.00    +0.000 C 
ATOM     22  C   UNL     1       6.304   3.731  12.858  0.00  0.00    +0.000 C 
ENDBRANCH  20  22
ENDBRANCH  19  20
ENDBRANCH   1  19
TORSDOF 5
ENDMDL
MODEL 9
REMARK VINA RESULT:      -7.0      2.334      8.143
REMARK  Name = 
REMARK  6 active torsions:
REMARK  status: ('A' for Active; 'I' for Inactive)
REMARK    1  A    between atoms: C_1  and  C_2
REMARK    2  A    between atoms: C_2  and  C_3
REMARK    3  A    between atoms: C_3  and  C_4
REMARK    4  A    between atoms: C_4  and  C_5
REMARK    5  A    between atoms: C_11  and  C_12
REMARK    6  A    between atoms: C_16  and  N_17
REMARK                            x       y       z     vdW  Elec       q    Type
REMARK                         _______ _______ _______ _____ _____    ______ ____
ROOT
ATOM      1  C   UNL     1       6.983   5.096  14.405  0.00  0.00    +0.000 C 
ATOM      2  O   UNL     1       5.935   5.705  14.203  0.00  0.00    +0.000 OA
ATOM      3  N   UNL     1       7.434   4.611  15.611  0.00  0.00    +0.000 N 
ATOM      4  C   UNL     1       6.714   4.620  16.781  0.00  0.00    +0.000 A 
ATOM      5  N   UNL     1       7.249   4.403  17.960  0.00  0.00    +0.000 NA
ATOM      6  N   UNL     1       6.314   4.497  18.974  0.00  0.00    +0.000 NA
ATOM      7  C   UNL     1       5.101   4.752  18.518  0.00  0.00    +0.000 A 
ATOM      8  S   UNL     1       5.025   4.815  16.804  0.00  0.00    +0.000 S 
ATOM      9  H   UNL     1       8.405   4.356  15.722  0.00  0.00    +0.000 HD
ENDROOT
BRANCH   7  10
ATOM     10  C   UNL     1       3.904   4.939  19.349  0.00  0.00    +0.000 A 
ATOM     11  C   UNL     1       3.256   3.865  19.987  0.00  0.00    +0.000 A 
ATOM     12  C   UNL     1       2.099   4.063  20.743  0.00  0.00    +0.000 A 
ATOM     13  C   UNL     1       1.561   5.341  20.872  0.00  0.00    +0.000 A 
ATOM     14  C   UNL     1       2.195   6.419  20.242  0.00  0.00    +0.000 A 
ATOM     15  C   UNL     1       3.361   6.225  19.487  0.00  0.00    +0.000 A 
BRANCH  14  16
ATOM     16  N   UNL     1       1.629   7.770  20.371  0.00  0.00    +0.000 N 
ATOM     17  O   UNL     1       1.151   8.089  21.470  0.00  0.00    +0.000 OA
ATOM     18  O   UNL     1       1.664   8.505  19.378  0.00  0.00    +0.000 OA
ENDBRANCH  14  16
ENDBRANCH   7  10
BRANCH   1  19
ATOM     19  C   UNL     1       7.932   4.830  13.256  0.00  0.00    +0.000 C 
BRANCH  19  20
ATOM     20  C   UNL     1       7.208   4.501  11.953  0.00  0.00    +0.000 C 
BRANCH  20  22
ATOM     21  C   UNL     1       7.252   2.107  11.187  0.00  0.00    +0.000 C 
ATOM     22  C   UNL     1       6.492   3.148  11.993  0.00  0.00    +0.000 C 
ENDBRANCH  20  22
ENDBRANCH  19  20
ENDBRANCH   1  19
TORSDOF 5
ENDMDL
