MODEL 1
REMARK VINA RESULT:      -6.9      0.000      0.000
REMARK  Name = 
REMARK  15 active torsions:
REMARK  status: ('A' for Active; 'I' for Inactive)
REMARK    1  A    between atoms: C_1  and  O_2
REMARK    2  A    between atoms: O_2  and  C_3
REMARK    3  A    between atoms: C_3  and  C_5
REMARK    4  A    between atoms: C_5  and  C_6
REMARK    5  A    between atoms: C_9  and  O_10
REMARK    6  A    between atoms: O_10  and  C_11
REMARK    7  A    between atoms: C_11  and  C_12
REMARK    8  A    between atoms: C_12  and  C_13
REMARK    9  A    between atoms: C_13  and  N_14
REMARK   10  A    between atoms: N_14  and  C_15
REMARK   11  A    between atoms: C_16  and  C_18
REMARK   12  A    between atoms: C_18  and  C_19
REMARK   13  A    between atoms: C_19  and  C_20
REMARK   14  A    between atoms: C_20  and  C_21
REMARK   15  A    between atoms: C_21  and  C_22
REMARK                            x       y       z     vdW  Elec       q    Type
REMARK                         _______ _______ _______ _____ _____    ______ ____
ROOT
ATOM      1  C   UNL     1       1.602   5.891  20.974  0.00  0.00    +0.000 C 
ENDROOT
BRANCH   1   2
ATOM      2  C   UNL     1       2.211   7.080  20.245  0.00  0.00    +0.000 C 
BRANCH   2   3
ATOM      3  O   UNL     1       1.678   8.281  20.772  0.00  0.00    +0.000 OA
BRANCH   3   7
ATOM      4  C   UNL     1      -0.876  10.848  18.671  0.00  0.00    +0.000 A 
ATOM      5  C   UNL     1      -0.960  10.628  20.045  0.00  0.00    +0.000 A 
ATOM      6  C   UNL     1      -0.062   9.760  20.670  0.00  0.00    +0.000 A 
ATOM      7  C   UNL     1       0.949   9.101  19.953  0.00  0.00    +0.000 A 
ATOM      8  C   UNL     1       1.064   9.361  18.577  0.00  0.00    +0.000 A 
ATOM      9 CL   UNL     1       2.254   8.699  17.508  0.00  0.00    +0.000 Cl
ATOM     10  C   UNL     1       0.155  10.230  17.953  0.00  0.00    +0.000 A 
BRANCH   4  11
ATOM     11  C   UNL     1      -1.857  11.749  17.965  0.00  0.00    +0.000 C 
BRANCH  11  12
ATOM     12  C   UNL     1      -2.883  11.010  17.134  0.00  0.00    +0.000 C 
ATOM     13  O   UNL     1      -3.806  10.336  17.560  0.00  0.00    +0.000 OA
BRANCH  12  15
ATOM     14  C   UNL     1      -3.019  10.153  14.961  0.00  0.00    +0.000 C 
ATOM     15  O   UNL     1      -2.631  11.236  15.810  0.00  0.00    +0.000 OA
ENDBRANCH  12  15
ENDBRANCH  11  12
ENDBRANCH   4  11
ENDBRANCH   3   7
ENDBRANCH   2   3
ENDBRANCH   1   2
BRANCH   1  16
ATOM     16  C   UNL     1       2.428   4.648  20.651  0.00  0.00    +0.000 C 
BRANCH  16  17
ATOM     17  N   UNL     1       1.612   3.459  20.435  0.00  0.00    +0.000 N 
ATOM     18  C   UNL     1       1.325   2.615  21.581  0.00  0.00    +0.000 C 
ATOM     19  C   UNL     1       1.080   3.096  19.196  0.00  0.00    +0.000 C 
ATOM     20  O   UNL     1       0.396   2.086  19.045  0.00  0.00    +0.000 OA
BRANCH  19  21
ATOM     21  C   UNL     1       1.404   4.033  18.043  0.00  0.00    +0.000 C 
BRANCH  21  22
ATOM     22  C   UNL     1       2.300   3.430  16.974  0.00  0.00    +0.000 C 
BRANCH  22  23
ATOM     23  C   UNL     1       3.488   2.719  17.630  0.00  0.00    +0.000 C 
BRANCH  23  24
ATOM     24  C   UNL     1       4.634   3.701  17.860  0.00  0.00    +0.000 C 
BRANCH  24  25
ATOM     25  C   UNL     1       4.990   4.571  16.647  0.00  0.00    +0.000 C 
ATOM     26  C   UNL     1       6.357   4.183  16.064  0.00  0.00    +0.000 C 
ATOM     27  C   UNL     1       7.500   4.691  16.940  0.00  0.00    +0.000 C 
ATOM     28  S   UNL     1       7.138   6.411  17.373  0.00  0.00    +0.000 S 
ATOM     29  S   UNL     1       5.118   6.348  17.033  0.00  0.00    +0.000 S 
ENDBRANCH  24  25
ENDBRANCH  23  24
ENDBRANCH  22  23
ENDBRANCH  21  22
ENDBRANCH  19  21
ENDBRANCH  16  17
ENDBRANCH   1  16
TORSDOF 13
ENDMDL
MODEL 2
REMARK VINA RESULT:      -6.5      6.734     10.102
REMARK  Name = 
REMARK  15 active torsions:
REMARK  status: ('A' for Active; 'I' for Inactive)
REMARK    1  A    between atoms: C_1  and  O_2
REMARK    2  A    between atoms: O_2  and  C_3
REMARK    3  A    between atoms: C_3  and  C_5
REMARK    4  A    between atoms: C_5  and  C_6
REMARK    5  A    between atoms: C_9  and  O_10
REMARK    6  A    between atoms: O_10  and  C_11
REMARK    7  A    between atoms: C_11  and  C_12
REMARK    8  A    between atoms: C_12  and  C_13
REMARK    9  A    between atoms: C_13  and  N_14
REMARK   10  A    between atoms: N_14  and  C_15
REMARK   11  A    between atoms: C_16  and  C_18
REMARK   12  A    between atoms: C_18  and  C_19
REMARK   13  A    between atoms: C_19  and  C_20
REMARK   14  A    between atoms: C_20  and  C_21
REMARK   15  A    between atoms: C_21  and  C_22
REMARK                            x       y       z     vdW  Elec       q    Type
REMARK                         _______ _______ _______ _____ _____    ______ ____
ROOT
ATOM      1  C   UNL     1       7.827   9.383  17.744  0.00  0.00    +0.000 C 
ENDROOT
BRANCH   1   2
ATOM      2  C   UNL     1       8.033   7.891  17.958  0.00  0.00    +0.000 C 
BRANCH   2   3
ATOM      3  O   UNL     1       7.736   7.196  16.760  0.00  0.00    +0.000 OA
BRANCH   3   7
ATOM      4  C   UNL     1       4.930   4.150  17.374  0.00  0.00    +0.000 A 
ATOM      5  C   UNL     1       5.192   5.158  18.300  0.00  0.00    +0.000 A 
ATOM      6  C   UNL     1       6.140   6.143  18.013  0.00  0.00    +0.000 A 
ATOM      7  C   UNL     1       6.841   6.161  16.797  0.00  0.00    +0.000 A 
ATOM      8  C   UNL     1       6.541   5.173  15.843  0.00  0.00    +0.000 A 
ATOM      9 CL   UNL     1       7.244   5.026  14.268  0.00  0.00    +0.000 Cl
ATOM     10  C   UNL     1       5.591   4.183  16.140  0.00  0.00    +0.000 A 
BRANCH   4  11
ATOM     11  C   UNL     1       3.941   3.053  17.676  0.00  0.00    +0.000 C 
BRANCH  11  12
ATOM     12  C   UNL     1       2.567   3.553  18.065  0.00  0.00    +0.000 C 
ATOM     13  O   UNL     1       1.727   4.013  17.309  0.00  0.00    +0.000 OA
BRANCH  12  15
ATOM     14  C   UNL     1       1.315   4.151  19.948  0.00  0.00    +0.000 C 
ATOM     15  O   UNL     1       2.395   3.384  19.409  0.00  0.00    +0.000 OA
ENDBRANCH  12  15
ENDBRANCH  11  12
ENDBRANCH   4  11
ENDBRANCH   3   7
ENDBRANCH   2   3
ENDBRANCH   1   2
BRANCH   1  16
ATOM     16  C   UNL     1       9.049  10.124  18.279  0.00  0.00    +0.000 C 
BRANCH  16  17
ATOM     17  N   UNL     1       9.122  11.509  17.829  0.00  0.00    +0.000 N 
ATOM     18  C   UNL     1       7.881  12.173  17.470  0.00  0.00    +0.000 C 
ATOM     19  C   UNL     1      10.312  12.235  17.739  0.00  0.00    +0.000 C 
ATOM     20  O   UNL     1      10.341  13.402  17.355  0.00  0.00    +0.000 OA
BRANCH  19  21
ATOM     21  C   UNL     1      11.570  11.486  18.146  0.00  0.00    +0.000 C 
BRANCH  21  22
ATOM     22  C   UNL     1      11.976  11.678  19.597  0.00  0.00    +0.000 C 
BRANCH  22  23
ATOM     23  C   UNL     1      11.122  12.779  20.236  0.00  0.00    +0.000 C 
BRANCH  23  24
ATOM     24  C   UNL     1      10.190  12.185  21.289  0.00  0.00    +0.000 C 
BRANCH  24  25
ATOM     25  C   UNL     1       8.776  12.784  21.309  0.00  0.00    +0.000 C 
ATOM     26  C   UNL     1       8.822  14.317  21.375  0.00  0.00    +0.000 C 
ATOM     27  C   UNL     1       9.200  14.803  22.772  0.00  0.00    +0.000 C 
ATOM     28  S   UNL     1       8.220  13.858  23.966  0.00  0.00    +0.000 S 
ATOM     29  S   UNL     1       7.785  12.268  22.749  0.00  0.00    +0.000 S 
ENDBRANCH  24  25
ENDBRANCH  23  24
ENDBRANCH  22  23
ENDBRANCH  21  22
ENDBRANCH  19  21
ENDBRANCH  16  17
ENDBRANCH   1  16
TORSDOF 13
ENDMDL
MODEL 3
REMARK VINA RESULT:      -6.5      4.334      9.270
REMARK  Name = 
REMARK  15 active torsions:
REMARK  status: ('A' for Active; 'I' for Inactive)
REMARK    1  A    between atoms: C_1  and  O_2
REMARK    2  A    between atoms: O_2  and  C_3
REMARK    3  A    between atoms: C_3  and  C_5
REMARK    4  A    between atoms: C_5  and  C_6
REMARK    5  A    between atoms: C_9  and  O_10
REMARK    6  A    between atoms: O_10  and  C_11
REMARK    7  A    between atoms: C_11  and  C_12
REMARK    8  A    between atoms: C_12  and  C_13
REMARK    9  A    between atoms: C_13  and  N_14
REMARK   10  A    between atoms: N_14  and  C_15
REMARK   11  A    between atoms: C_16  and  C_18
REMARK   12  A    between atoms: C_18  and  C_19
REMARK   13  A    between atoms: C_19  and  C_20
REMARK   14  A    between atoms: C_20  and  C_21
REMARK   15  A    between atoms: C_21  and  C_22
REMARK                            x       y       z     vdW  Elec       q    Type
REMARK                         _______ _______ _______ _____ _____    ______ ____
ROOT
ATOM      1  C   UNL     1       1.400  10.848  18.507  0.00  0.00    +0.000 C 
ENDROOT
BRANCH   1   2
ATOM      2  C   UNL     1       1.343   9.410  18.011  0.00  0.00    +0.000 C 
BRANCH   2   3
ATOM      3  O   UNL     1       1.770   8.538  19.042  0.00  0.00    +0.000 OA
BRANCH   3   7
ATOM      4  C   UNL     1       4.357   5.557  17.647  0.00  0.00    +0.000 A 
ATOM      5  C   UNL     1       4.299   6.843  17.112  0.00  0.00    +0.000 A 
ATOM      6  C   UNL     1       3.411   7.782  17.643  0.00  0.00    +0.000 A 
ATOM      7  C   UNL     1       2.570   7.474  18.724  0.00  0.00    +0.000 A 
ATOM      8  C   UNL     1       2.664   6.193  19.294  0.00  0.00    +0.000 A 
ATOM      9 CL   UNL     1       1.761   5.610  20.652  0.00  0.00    +0.000 Cl
ATOM     10  C   UNL     1       3.554   5.251  18.753  0.00  0.00    +0.000 A 
BRANCH   4  11
ATOM     11  C   UNL     1       5.277   4.513  17.067  0.00  0.00    +0.000 C 
BRANCH  11  12
ATOM     12  C   UNL     1       6.727   4.680  17.467  0.00  0.00    +0.000 C 
ATOM     13  O   UNL     1       7.196   4.478  18.574  0.00  0.00    +0.000 OA
BRANCH  12  15
ATOM     14  C   UNL     1       6.921   4.589  15.138  0.00  0.00    +0.000 C 
ATOM     15  O   UNL     1       7.448   5.072  16.376  0.00  0.00    +0.000 OA
ENDBRANCH  12  15
ENDBRANCH  11  12
ENDBRANCH   4  11
ENDBRANCH   3   7
ENDBRANCH   2   3
ENDBRANCH   1   2
BRANCH   1  16
ATOM     16  C   UNL     1       1.080  10.860  19.999  0.00  0.00    +0.000 C 
BRANCH  16  17
ATOM     17  N   UNL     1       0.994  12.205  20.556  0.00  0.00    +0.000 N 
ATOM     18  C   UNL     1       2.202  13.012  20.572  0.00  0.00    +0.000 C 
ATOM     19  C   UNL     1      -0.182  12.765  21.059  0.00  0.00    +0.000 C 
ATOM     20  O   UNL     1      -0.222  13.902  21.523  0.00  0.00    +0.000 OA
BRANCH  19  21
ATOM     21  C   UNL     1      -1.412  11.873  20.996  0.00  0.00    +0.000 C 
BRANCH  21  22
ATOM     22  C   UNL     1      -2.715  12.571  21.345  0.00  0.00    +0.000 C 
BRANCH  22  23
ATOM     23  C   UNL     1      -3.600  12.677  20.099  0.00  0.00    +0.000 C 
BRANCH  23  24
ATOM     24  C   UNL     1      -2.954  11.948  18.924  0.00  0.00    +0.000 C 
BRANCH  24  25
ATOM     25  C   UNL     1      -3.857  10.922  18.225  0.00  0.00    +0.000 C 
ATOM     26  C   UNL     1      -3.071   9.663  17.832  0.00  0.00    +0.000 C 
ATOM     27  C   UNL     1      -2.184   9.918  16.617  0.00  0.00    +0.000 C 
ATOM     28  S   UNL     1      -3.176  10.805  15.389  0.00  0.00    +0.000 S 
ATOM     29  S   UNL     1      -4.595  11.534  16.675  0.00  0.00    +0.000 S 
ENDBRANCH  24  25
ENDBRANCH  23  24
ENDBRANCH  22  23
ENDBRANCH  21  22
ENDBRANCH  19  21
ENDBRANCH  16  17
ENDBRANCH   1  16
TORSDOF 13
ENDMDL
MODEL 4
REMARK VINA RESULT:      -6.3      2.445      2.972
REMARK  Name = 
REMARK  15 active torsions:
REMARK  status: ('A' for Active; 'I' for Inactive)
REMARK    1  A    between atoms: C_1  and  O_2
REMARK    2  A    between atoms: O_2  and  C_3
REMARK    3  A    between atoms: C_3  and  C_5
REMARK    4  A    between atoms: C_5  and  C_6
REMARK    5  A    between atoms: C_9  and  O_10
REMARK    6  A    between atoms: O_10  and  C_11
REMARK    7  A    between atoms: C_11  and  C_12
REMARK    8  A    between atoms: C_12  and  C_13
REMARK    9  A    between atoms: C_13  and  N_14
REMARK   10  A    between atoms: N_14  and  C_15
REMARK   11  A    between atoms: C_16  and  C_18
REMARK   12  A    between atoms: C_18  and  C_19
REMARK   13  A    between atoms: C_19  and  C_20
REMARK   14  A    between atoms: C_20  and  C_21
REMARK   15  A    between atoms: C_21  and  C_22
REMARK                            x       y       z     vdW  Elec       q    Type
REMARK                         _______ _______ _______ _____ _____    ______ ____
ROOT
ATOM      1  C   UNL     1       2.647   6.116  20.205  0.00  0.00    +0.000 C 
ENDROOT
BRANCH   1   2
ATOM      2  C   UNL     1       2.153   7.509  19.840  0.00  0.00    +0.000 C 
BRANCH   2   3
ATOM      3  O   UNL     1       1.363   8.021  20.898  0.00  0.00    +0.000 OA
BRANCH   3   7
ATOM      4  C   UNL     1      -0.361  11.708  19.917  0.00  0.00    +0.000 A 
ATOM      5  C   UNL     1       0.300  10.894  18.999  0.00  0.00    +0.000 A 
ATOM      6  C   UNL     1       0.842   9.673  19.408  0.00  0.00    +0.000 A 
ATOM      7  C   UNL     1       0.728   9.222  20.732  0.00  0.00    +0.000 A 
ATOM      8  C   UNL     1       0.017  10.019  21.646  0.00  0.00    +0.000 A 
ATOM      9 CL   UNL     1      -0.284   9.645  23.309  0.00  0.00    +0.000 Cl
ATOM     10  C   UNL     1      -0.519  11.248  21.230  0.00  0.00    +0.000 A 
BRANCH   4  11
ATOM     11  C   UNL     1      -0.919  13.048  19.510  0.00  0.00    +0.000 C 
BRANCH  11  12
ATOM     12  C   UNL     1       0.092  14.173  19.551  0.00  0.00    +0.000 C 
ATOM     13  O   UNL     1       1.126  14.190  20.197  0.00  0.00    +0.000 OA
BRANCH  12  15
ATOM     14  C   UNL     1       0.561  16.299  18.695  0.00  0.00    +0.000 C 
ATOM     15  O   UNL     1      -0.321  15.174  18.718  0.00  0.00    +0.000 OA
ENDBRANCH  12  15
ENDBRANCH  11  12
ENDBRANCH   4  11
ENDBRANCH   3   7
ENDBRANCH   2   3
ENDBRANCH   1   2
BRANCH   1  16
ATOM     16  C   UNL     1       1.445   5.262  20.598  0.00  0.00    +0.000 C 
BRANCH  16  17
ATOM     17  N   UNL     1       1.723   3.831  20.564  0.00  0.00    +0.000 N 
ATOM     18  C   UNL     1       2.091   3.180  21.808  0.00  0.00    +0.000 C 
ATOM     19  C   UNL     1       1.640   3.051  19.408  0.00  0.00    +0.000 C 
ATOM     20  O   UNL     1       1.881   1.846  19.410  0.00  0.00    +0.000 OA
BRANCH  19  21
ATOM     21  C   UNL     1       1.233   3.792  18.144  0.00  0.00    +0.000 C 
BRANCH  21  22
ATOM     22  C   UNL     1       2.243   3.711  17.013  0.00  0.00    +0.000 C 
BRANCH  22  23
ATOM     23  C   UNL     1       3.604   4.229  17.491  0.00  0.00    +0.000 C 
BRANCH  23  24
ATOM     24  C   UNL     1       4.729   3.596  16.677  0.00  0.00    +0.000 C 
BRANCH  24  25
ATOM     25  C   UNL     1       5.574   4.589  15.865  0.00  0.00    +0.000 C 
ATOM     26  C   UNL     1       7.075   4.348  16.080  0.00  0.00    +0.000 C 
ATOM     27  C   UNL     1       7.531   4.860  17.444  0.00  0.00    +0.000 C 
ATOM     28  S   UNL     1       6.820   6.508  17.678  0.00  0.00    +0.000 S 
ATOM     29  S   UNL     1       5.294   6.331  16.321  0.00  0.00    +0.000 S 
ENDBRANCH  24  25
ENDBRANCH  23  24
ENDBRANCH  22  23
ENDBRANCH  21  22
ENDBRANCH  19  21
ENDBRANCH  16  17
ENDBRANCH   1  16
TORSDOF 13
ENDMDL
MODEL 5
REMARK VINA RESULT:      -6.2      1.703      2.280
REMARK  Name = 
REMARK  15 active torsions:
REMARK  status: ('A' for Active; 'I' for Inactive)
REMARK    1  A    between atoms: C_1  and  O_2
REMARK    2  A    between atoms: O_2  and  C_3
REMARK    3  A    between atoms: C_3  and  C_5
REMARK    4  A    between atoms: C_5  and  C_6
REMARK    5  A    between atoms: C_9  and  O_10
REMARK    6  A    between atoms: O_10  and  C_11
REMARK    7  A    between atoms: C_11  and  C_12
REMARK    8  A    between atoms: C_12  and  C_13
REMARK    9  A    between atoms: C_13  and  N_14
REMARK   10  A    between atoms: N_14  and  C_15
REMARK   11  A    between atoms: C_16  and  C_18
REMARK   12  A    between atoms: C_18  and  C_19
REMARK   13  A    between atoms: C_19  and  C_20
REMARK   14  A    between atoms: C_20  and  C_21
REMARK   15  A    between atoms: C_21  and  C_22
REMARK                            x       y       z     vdW  Elec       q    Type
REMARK                         _______ _______ _______ _____ _____    ______ ____
ROOT
ATOM      1  C   UNL     1       0.937   4.612  20.597  0.00  0.00    +0.000 C 
ENDROOT
BRANCH   1   2
ATOM      2  C   UNL     1       1.833   5.730  21.112  0.00  0.00    +0.000 C 
BRANCH   2   3
ATOM      3  O   UNL     1       2.189   6.582  20.038  0.00  0.00    +0.000 OA
BRANCH   3   7
ATOM      4  C   UNL     1       0.327  10.321  20.324  0.00  0.00    +0.000 A 
ATOM      5  C   UNL     1       0.339   9.381  21.354  0.00  0.00    +0.000 A 
ATOM      6  C   UNL     1       0.991   8.159  21.179  0.00  0.00    +0.000 A 
ATOM      7  C   UNL     1       1.659   7.843  19.986  0.00  0.00    +0.000 A 
ATOM      8  C   UNL     1       1.690   8.810  18.966  0.00  0.00    +0.000 A 
ATOM      9 CL   UNL     1       2.486   8.657  17.436  0.00  0.00    +0.000 Cl
ATOM     10  C   UNL     1       1.027  10.034  19.146  0.00  0.00    +0.000 A 
BRANCH   4  11
ATOM     11  C   UNL     1      -0.403  11.631  20.473  0.00  0.00    +0.000 C 
BRANCH  11  12
ATOM     12  C   UNL     1      -1.164  12.055  19.236  0.00  0.00    +0.000 C 
ATOM     13  O   UNL     1      -0.830  12.922  18.446  0.00  0.00    +0.000 OA
BRANCH  12  15
ATOM     14  C   UNL     1      -2.441  10.690  17.830  0.00  0.00    +0.000 C 
ATOM     15  O   UNL     1      -2.289  11.288  19.119  0.00  0.00    +0.000 OA
ENDBRANCH  12  15
ENDBRANCH  11  12
ENDBRANCH   4  11
ENDBRANCH   3   7
ENDBRANCH   2   3
ENDBRANCH   1   2
BRANCH   1  16
ATOM     16  C   UNL     1       1.751   3.737  19.648  0.00  0.00    +0.000 C 
BRANCH  16  17
ATOM     17  N   UNL     1       2.715   2.888  20.337  0.00  0.00    +0.000 N 
ATOM     18  C   UNL     1       2.246   2.103  21.465  0.00  0.00    +0.000 C 
ATOM     19  C   UNL     1       4.057   2.775  19.965  0.00  0.00    +0.000 C 
ATOM     20  O   UNL     1       4.847   2.051  20.567  0.00  0.00    +0.000 OA
BRANCH  19  21
ATOM     21  C   UNL     1       4.478   3.610  18.766  0.00  0.00    +0.000 C 
BRANCH  21  22
ATOM     22  C   UNL     1       4.232   2.948  17.421  0.00  0.00    +0.000 C 
BRANCH  22  23
ATOM     23  C   UNL     1       4.460   3.959  16.292  0.00  0.00    +0.000 C 
BRANCH  23  24
ATOM     24  C   UNL     1       4.795   5.332  16.869  0.00  0.00    +0.000 C 
BRANCH  24  25
ATOM     25  C   UNL     1       6.135   5.918  16.402  0.00  0.00    +0.000 C 
ATOM     26  C   UNL     1       7.245   4.857  16.423  0.00  0.00    +0.000 C 
ATOM     27  C   UNL     1       7.709   4.565  17.847  0.00  0.00    +0.000 C 
ATOM     28  S   UNL     1       7.938   6.152  18.687  0.00  0.00    +0.000 S 
ATOM     29  S   UNL     1       6.747   7.275  17.454  0.00  0.00    +0.000 S 
ENDBRANCH  24  25
ENDBRANCH  23  24
ENDBRANCH  22  23
ENDBRANCH  21  22
ENDBRANCH  19  21
ENDBRANCH  16  17
ENDBRANCH   1  16
TORSDOF 13
ENDMDL
MODEL 6
REMARK VINA RESULT:      -6.2      3.562      5.148
REMARK  Name = 
REMARK  15 active torsions:
REMARK  status: ('A' for Active; 'I' for Inactive)
REMARK    1  A    between atoms: C_1  and  O_2
REMARK    2  A    between atoms: O_2  and  C_3
REMARK    3  A    between atoms: C_3  and  C_5
REMARK    4  A    between atoms: C_5  and  C_6
REMARK    5  A    between atoms: C_9  and  O_10
REMARK    6  A    between atoms: O_10  and  C_11
REMARK    7  A    between atoms: C_11  and  C_12
REMARK    8  A    between atoms: C_12  and  C_13
REMARK    9  A    between atoms: C_13  and  N_14
REMARK   10  A    between atoms: N_14  and  C_15
REMARK   11  A    between atoms: C_16  and  C_18
REMARK   12  A    between atoms: C_18  and  C_19
REMARK   13  A    between atoms: C_19  and  C_20
REMARK   14  A    between atoms: C_20  and  C_21
REMARK   15  A    between atoms: C_21  and  C_22
REMARK                            x       y       z     vdW  Elec       q    Type
REMARK                         _______ _______ _______ _____ _____    ______ ____
ROOT
ATOM      1  C   UNL     1       4.263   6.707  18.676  0.00  0.00    +0.000 C 
ENDROOT
BRANCH   1   2
ATOM      2  C   UNL     1       2.746   6.731  18.801  0.00  0.00    +0.000 C 
BRANCH   2   3
ATOM      3  O   UNL     1       2.274   8.045  18.564  0.00  0.00    +0.000 OA
BRANCH   3   7
ATOM      4  C   UNL     1       0.092   9.535  21.811  0.00  0.00    +0.000 A 
ATOM      5  C   UNL     1       0.730   8.295  21.811  0.00  0.00    +0.000 A 
ATOM      6  C   UNL     1       1.445   7.876  20.686  0.00  0.00    +0.000 A 
ATOM      7  C   UNL     1       1.558   8.681  19.542  0.00  0.00    +0.000 A 
ATOM      8  C   UNL     1       0.957   9.951  19.561  0.00  0.00    +0.000 A 
ATOM      9 CL   UNL     1       1.003  11.122  18.287  0.00  0.00    +0.000 Cl
ATOM     10  C   UNL     1       0.234  10.364  20.691  0.00  0.00    +0.000 A 
BRANCH   4  11
ATOM     11  C   UNL     1      -0.719   9.993  22.996  0.00  0.00    +0.000 C 
BRANCH  11  12
ATOM     12  C   UNL     1      -1.077  11.464  22.965  0.00  0.00    +0.000 C 
ATOM     13  O   UNL     1      -0.311  12.387  22.743  0.00  0.00    +0.000 OA
BRANCH  12  15
ATOM     14  C   UNL     1      -2.991  12.747  22.565  0.00  0.00    +0.000 C 
ATOM     15  O   UNL     1      -2.416  11.602  23.199  0.00  0.00    +0.000 OA
ENDBRANCH  12  15
ENDBRANCH  11  12
ENDBRANCH   4  11
ENDBRANCH   3   7
ENDBRANCH   2   3
ENDBRANCH   1   2
BRANCH   1  16
ATOM     16  C   UNL     1       4.640   7.099  17.250  0.00  0.00    +0.000 C 
BRANCH  16  17
ATOM     17  N   UNL     1       6.036   6.826  16.931  0.00  0.00    +0.000 N 
ATOM     18  C   UNL     1       7.051   7.658  17.554  0.00  0.00    +0.000 C 
ATOM     19  C   UNL     1       6.453   5.804  16.076  0.00  0.00    +0.000 C 
ATOM     20  O   UNL     1       7.638   5.599  15.826  0.00  0.00    +0.000 OA
BRANCH  19  21
ATOM     21  C   UNL     1       5.341   4.960  15.472  0.00  0.00    +0.000 C 
BRANCH  21  22
ATOM     22  C   UNL     1       5.169   3.594  16.114  0.00  0.00    +0.000 C 
BRANCH  22  23
ATOM     23  C   UNL     1       3.882   3.566  16.945  0.00  0.00    +0.000 C 
BRANCH  23  24
ATOM     24  C   UNL     1       4.206   3.333  18.418  0.00  0.00    +0.000 C 
BRANCH  24  25
ATOM     25  C   UNL     1       3.320   2.291  19.116  0.00  0.00    +0.000 C 
ATOM     26  C   UNL     1       1.966   2.147  18.408  0.00  0.00    +0.000 C 
ATOM     27  C   UNL     1       1.051   3.332  18.709  0.00  0.00    +0.000 C 
ATOM     28  S   UNL     1       1.131   3.647  20.490  0.00  0.00    +0.000 S 
ATOM     29  S   UNL     1       2.919   2.711  20.843  0.00  0.00    +0.000 S 
ENDBRANCH  24  25
ENDBRANCH  23  24
ENDBRANCH  22  23
ENDBRANCH  21  22
ENDBRANCH  19  21
ENDBRANCH  16  17
ENDBRANCH   1  16
TORSDOF 13
ENDMDL
MODEL 7
REMARK VINA RESULT:      -6.1      2.485      3.428
REMARK  Name = 
REMARK  15 active torsions:
REMARK  status: ('A' for Active; 'I' for Inactive)
REMARK    1  A    between atoms: C_1  and  O_2
REMARK    2  A    between atoms: O_2  and  C_3
REMARK    3  A    between atoms: C_3  and  C_5
REMARK    4  A    between atoms: C_5  and  C_6
REMARK    5  A    between atoms: C_9  and  O_10
REMARK    6  A    between atoms: O_10  and  C_11
REMARK    7  A    between atoms: C_11  and  C_12
REMARK    8  A    between atoms: C_12  and  C_13
REMARK    9  A    between atoms: C_13  and  N_14
REMARK   10  A    between atoms: N_14  and  C_15
REMARK   11  A    between atoms: C_16  and  C_18
REMARK   12  A    between atoms: C_18  and  C_19
REMARK   13  A    between atoms: C_19  and  C_20
REMARK   14  A    between atoms: C_20  and  C_21
REMARK   15  A    between atoms: C_21  and  C_22
REMARK                            x       y       z     vdW  Elec       q    Type
REMARK                         _______ _______ _______ _____ _____    ______ ____
ROOT
ATOM      1  C   UNL     1       1.133   6.135  20.517  0.00  0.00    +0.000 C 
ENDROOT
BRANCH   1   2
ATOM      2  C   UNL     1       1.831   7.372  21.065  0.00  0.00    +0.000 C 
BRANCH   2   3
ATOM      3  O   UNL     1       1.459   8.503  20.297  0.00  0.00    +0.000 OA
BRANCH   3   7
ATOM      4  C   UNL     1      -1.081  11.065  22.421  0.00  0.00    +0.000 A 
ATOM      5  C   UNL     1      -0.386  10.007  23.004  0.00  0.00    +0.000 A 
ATOM      6  C   UNL     1       0.448   9.203  22.224  0.00  0.00    +0.000 A 
ATOM      7  C   UNL     1       0.626   9.437  20.851  0.00  0.00    +0.000 A 
ATOM      8  C   UNL     1      -0.035  10.535  20.274  0.00  0.00    +0.000 A 
ATOM      9 CL   UNL     1       0.070  11.037  18.620  0.00  0.00    +0.000 Cl
ATOM     10  C   UNL     1      -0.877  11.335  21.062  0.00  0.00    +0.000 A 
BRANCH   4  11
ATOM     11  C   UNL     1      -2.018  11.923  23.232  0.00  0.00    +0.000 C 
BRANCH  11  12
ATOM     12  C   UNL     1      -2.081  13.365  22.778  0.00  0.00    +0.000 C 
ATOM     13  O   UNL     1      -2.949  13.864  22.082  0.00  0.00    +0.000 OA
BRANCH  12  15
ATOM     14  C   UNL     1      -1.341  14.828  24.448  0.00  0.00    +0.000 C 
ATOM     15  O   UNL     1      -1.014  14.043  23.298  0.00  0.00    +0.000 OA
ENDBRANCH  12  15
ENDBRANCH  11  12
ENDBRANCH   4  11
ENDBRANCH   3   7
ENDBRANCH   2   3
ENDBRANCH   1   2
BRANCH   1  16
ATOM     16  C   UNL     1       2.161   5.012  20.395  0.00  0.00    +0.000 C 
BRANCH  16  17
ATOM     17  N   UNL     1       1.554   3.695  20.244  0.00  0.00    +0.000 N 
ATOM     18  C   UNL     1       1.321   2.913  21.446  0.00  0.00    +0.000 C 
ATOM     19  C   UNL     1       1.171   3.152  19.016  0.00  0.00    +0.000 C 
ATOM     20  O   UNL     1       0.663   2.037  18.921  0.00  0.00    +0.000 OA
BRANCH  19  21
ATOM     21  C   UNL     1       1.427   4.030  17.802  0.00  0.00    +0.000 C 
BRANCH  21  22
ATOM     22  C   UNL     1       2.539   3.538  16.892  0.00  0.00    +0.000 C 
BRANCH  22  23
ATOM     23  C   UNL     1       3.593   2.788  17.714  0.00  0.00    +0.000 C 
BRANCH  23  24
ATOM     24  C   UNL     1       4.760   3.711  18.051  0.00  0.00    +0.000 C 
BRANCH  24  25
ATOM     25  C   UNL     1       5.192   4.646  16.913  0.00  0.00    +0.000 C 
ATOM     26  C   UNL     1       6.603   4.302  16.414  0.00  0.00    +0.000 C 
ATOM     27  C   UNL     1       7.672   4.775  17.397  0.00  0.00    +0.000 C 
ATOM     28  S   UNL     1       7.255   6.467  17.887  0.00  0.00    +0.000 S 
ATOM     29  S   UNL     1       5.267   6.401  17.397  0.00  0.00    +0.000 S 
ENDBRANCH  24  25
ENDBRANCH  23  24
ENDBRANCH  22  23
ENDBRANCH  21  22
ENDBRANCH  19  21
ENDBRANCH  16  17
ENDBRANCH   1  16
TORSDOF 13
ENDMDL
MODEL 8
REMARK VINA RESULT:      -6.1      4.466      5.890
REMARK  Name = 
REMARK  15 active torsions:
REMARK  status: ('A' for Active; 'I' for Inactive)
REMARK    1  A    between atoms: C_1  and  O_2
REMARK    2  A    between atoms: O_2  and  C_3
REMARK    3  A    between atoms: C_3  and  C_5
REMARK    4  A    between atoms: C_5  and  C_6
REMARK    5  A    between atoms: C_9  and  O_10
REMARK    6  A    between atoms: O_10  and  C_11
REMARK    7  A    between atoms: C_11  and  C_12
REMARK    8  A    between atoms: C_12  and  C_13
REMARK    9  A    between atoms: C_13  and  N_14
REMARK   10  A    between atoms: N_14  and  C_15
REMARK   11  A    between atoms: C_16  and  C_18
REMARK   12  A    between atoms: C_18  and  C_19
REMARK   13  A    between atoms: C_19  and  C_20
REMARK   14  A    between atoms: C_20  and  C_21
REMARK   15  A    between atoms: C_21  and  C_22
REMARK                            x       y       z     vdW  Elec       q    Type
REMARK                         _______ _______ _______ _____ _____    ______ ____
ROOT
ATOM      1  C   UNL     1       4.881   4.274  19.362  0.00  0.00    +0.000 C 
ENDROOT
BRANCH   1   2
ATOM      2  C   UNL     1       3.814   5.085  20.084  0.00  0.00    +0.000 C 
BRANCH   2   3
ATOM      3  O   UNL     1       2.788   5.434  19.172  0.00  0.00    +0.000 OA
BRANCH   3   7
ATOM      4  C   UNL     1       1.503   9.415  19.019  0.00  0.00    +0.000 A 
ATOM      5  C   UNL     1       1.175   8.535  20.049  0.00  0.00    +0.000 A 
ATOM      6  C   UNL     1       1.653   7.223  20.028  0.00  0.00    +0.000 A 
ATOM      7  C   UNL     1       2.478   6.754  18.994  0.00  0.00    +0.000 A 
ATOM      8  C   UNL     1       2.849   7.656  17.981  0.00  0.00    +0.000 A 
ATOM      9 CL   UNL     1       3.887   7.313  16.638  0.00  0.00    +0.000 Cl
ATOM     10  C   UNL     1       2.361   8.972  18.005  0.00  0.00    +0.000 A 
BRANCH   4  11
ATOM     11  C   UNL     1       0.968  10.824  18.998  0.00  0.00    +0.000 C 
BRANCH  11  12
ATOM     12  C   UNL     1      -0.540  10.911  19.084  0.00  0.00    +0.000 C 
ATOM     13  O   UNL     1      -1.190  11.205  20.073  0.00  0.00    +0.000 OA
BRANCH  12  15
ATOM     14  C   UNL     1      -2.335   9.963  17.921  0.00  0.00    +0.000 C 
ATOM     15  O   UNL     1      -1.073  10.632  17.857  0.00  0.00    +0.000 OA
ENDBRANCH  12  15
ENDBRANCH  11  12
ENDBRANCH   4  11
ENDBRANCH   3   7
ENDBRANCH   2   3
ENDBRANCH   1   2
BRANCH   1  16
ATOM     16  C   UNL     1       6.075   5.183  19.082  0.00  0.00    +0.000 C 
BRANCH  16  17
ATOM     17  N   UNL     1       6.437   5.235  17.671  0.00  0.00    +0.000 N 
ATOM     18  C   UNL     1       5.885   4.222  16.790  0.00  0.00    +0.000 C 
ATOM     19  C   UNL     1       7.270   6.211  17.117  0.00  0.00    +0.000 C 
ATOM     20  O   UNL     1       7.557   6.228  15.923  0.00  0.00    +0.000 OA
BRANCH  19  21
ATOM     21  C   UNL     1       7.799   7.251  18.092  0.00  0.00    +0.000 C 
BRANCH  21  22
ATOM     22  C   UNL     1       7.869   8.661  17.531  0.00  0.00    +0.000 C 
BRANCH  22  23
ATOM     23  C   UNL     1       8.336   9.633  18.619  0.00  0.00    +0.000 C 
BRANCH  23  24
ATOM     24  C   UNL     1       9.734  10.156  18.300  0.00  0.00    +0.000 C 
BRANCH  24  25
ATOM     25  C   UNL     1      10.196  11.334  19.169  0.00  0.00    +0.000 C 
ATOM     26  C   UNL     1       9.326  12.576  18.931  0.00  0.00    +0.000 C 
ATOM     27  C   UNL     1       9.663  13.245  17.600  0.00  0.00    +0.000 C 
ATOM     28  S   UNL     1      11.466  13.345  17.477  0.00  0.00    +0.000 S 
ATOM     29  S   UNL     1      11.904  11.869  18.828  0.00  0.00    +0.000 S 
ENDBRANCH  24  25
ENDBRANCH  23  24
ENDBRANCH  22  23
ENDBRANCH  21  22
ENDBRANCH  19  21
ENDBRANCH  16  17
ENDBRANCH   1  16
TORSDOF 13
ENDMDL
MODEL 9
REMARK VINA RESULT:      -6.1      4.593      6.094
REMARK  Name = 
REMARK  15 active torsions:
REMARK  status: ('A' for Active; 'I' for Inactive)
REMARK    1  A    between atoms: C_1  and  O_2
REMARK    2  A    between atoms: O_2  and  C_3
REMARK    3  A    between atoms: C_3  and  C_5
REMARK    4  A    between atoms: C_5  and  C_6
REMARK    5  A    between atoms: C_9  and  O_10
REMARK    6  A    between atoms: O_10  and  C_11
REMARK    7  A    between atoms: C_11  and  C_12
REMARK    8  A    between atoms: C_12  and  C_13
REMARK    9  A    between atoms: C_13  and  N_14
REMARK   10  A    between atoms: N_14  and  C_15
REMARK   11  A    between atoms: C_16  and  C_18
REMARK   12  A    between atoms: C_18  and  C_19
REMARK   13  A    between atoms: C_19  and  C_20
REMARK   14  A    between atoms: C_20  and  C_21
REMARK   15  A    between atoms: C_21  and  C_22
REMARK                            x       y       z     vdW  Elec       q    Type
REMARK                         _______ _______ _______ _____ _____    ______ ____
ROOT
ATOM      1  C   UNL     1       3.493   6.554  18.433  0.00  0.00    +0.000 C 
ENDROOT
BRANCH   1   2
ATOM      2  C   UNL     1       2.167   7.301  18.402  0.00  0.00    +0.000 C 
BRANCH   2   3
ATOM      3  O   UNL     1       2.409   8.684  18.214  0.00  0.00    +0.000 OA
BRANCH   3   7
ATOM      4  C   UNL     1      -0.287  11.051  20.371  0.00  0.00    +0.000 A 
ATOM      5  C   UNL     1      -0.220   9.663  20.477  0.00  0.00    +0.000 A 
ATOM      6  C   UNL     1       0.716   8.948  19.726  0.00  0.00    +0.000 A 
ATOM      7  C   UNL     1       1.617   9.592  18.864  0.00  0.00    +0.000 A 
ATOM      8  C   UNL     1       1.583  10.996  18.795  0.00  0.00    +0.000 A 
ATOM      9 CL   UNL     1       2.622  11.997  17.839  0.00  0.00    +0.000 Cl
ATOM     10  C   UNL     1       0.636  11.708  19.548  0.00  0.00    +0.000 A 
BRANCH   4  11
ATOM     11  C   UNL     1      -1.314  11.843  21.140  0.00  0.00    +0.000 C 
BRANCH  11  12
ATOM     12  C   UNL     1      -1.051  11.909  22.629  0.00  0.00    +0.000 C 
ATOM     13  O   UNL     1      -0.963  10.959  23.388  0.00  0.00    +0.000 OA
BRANCH  12  15
ATOM     14  C   UNL     1      -1.896  14.083  22.454  0.00  0.00    +0.000 C 
ATOM     15  O   UNL     1      -0.898  13.216  22.997  0.00  0.00    +0.000 OA
ENDBRANCH  12  15
ENDBRANCH  11  12
ENDBRANCH   4  11
ENDBRANCH   3   7
ENDBRANCH   2   3
ENDBRANCH   1   2
BRANCH   1  16
ATOM     16  C   UNL     1       4.187   6.741  17.087  0.00  0.00    +0.000 C 
BRANCH  16  17
ATOM     17  N   UNL     1       5.340   5.867  16.911  0.00  0.00    +0.000 N 
ATOM     18  C   UNL     1       5.095   4.486  16.531  0.00  0.00    +0.000 C 
ATOM     19  C   UNL     1       6.664   6.284  17.070  0.00  0.00    +0.000 C 
ATOM     20  O   UNL     1       7.616   5.522  16.915  0.00  0.00    +0.000 OA
BRANCH  19  21
ATOM     21  C   UNL     1       6.850   7.744  17.451  0.00  0.00    +0.000 C 
BRANCH  21  22
ATOM     22  C   UNL     1       8.211   8.074  18.038  0.00  0.00    +0.000 C 
BRANCH  22  23
ATOM     23  C   UNL     1       8.457   9.585  17.970  0.00  0.00    +0.000 C 
BRANCH  23  24
ATOM     24  C   UNL     1       9.198  10.059  19.218  0.00  0.00    +0.000 C 
BRANCH  24  25
ATOM     25  C   UNL     1       9.446  11.572  19.284  0.00  0.00    +0.000 C 
ATOM     26  C   UNL     1      10.167  12.074  18.025  0.00  0.00    +0.000 C 
ATOM     27  C   UNL     1      11.644  11.690  18.039  0.00  0.00    +0.000 C 
ATOM     28  S   UNL     1      12.294  12.069  19.685  0.00  0.00    +0.000 S 
ATOM     29  S   UNL     1      10.502  12.080  20.679  0.00  0.00    +0.000 S 
ENDBRANCH  24  25
ENDBRANCH  23  24
ENDBRANCH  22  23
ENDBRANCH  21  22
ENDBRANCH  19  21
ENDBRANCH  16  17
ENDBRANCH   1  16
TORSDOF 13
ENDMDL
