MODEL 1
REMARK VINA RESULT:      -7.1      0.000      0.000
REMARK  Name = 
REMARK  6 active torsions:
REMARK  status: ('A' for Active; 'I' for Inactive)
REMARK    1  A    between atoms: C_1  and  O_2
REMARK    2  A    between atoms: O_2  and  C_3
REMARK    3  A    between atoms: C_8  and  O_9
REMARK    4  A    between atoms: O_9  and  C_10
REMARK    5  A    between atoms: C_11  and  O_12
REMARK    6  A    between atoms: C_13  and  N_14
REMARK                            x       y       z     vdW  Elec       q    Type
REMARK                         _______ _______ _______ _____ _____    ______ ____
ROOT
ATOM      1  C   UNL     1       6.079   4.867  16.157  0.00  0.00    +0.000 A 
ATOM      2  C   UNL     1       5.288   3.715  16.302  0.00  0.00    +0.000 A 
ATOM      3  C   UNL     1       4.059   3.750  16.984  0.00  0.00    +0.000 A 
ATOM      4  C   UNL     1       3.556   4.985  17.467  0.00  0.00    +0.000 A 
ATOM      5  C   UNL     1       4.385   6.119  17.358  0.00  0.00    +0.000 A 
ATOM      6  C   UNL     1       5.640   6.075  16.743  0.00  0.00    +0.000 A 
ATOM      7  C   UNL     1       2.165   5.148  18.102  0.00  0.00    +0.000 C 
ATOM      8  C   UNL     1       2.165   5.243  19.643  0.00  0.00    +0.000 C 
ATOM      9  C   UNL     1       2.686   3.997  20.422  0.00  0.00    +0.000 C 
ATOM     10  C   UNL     1       3.773   3.067  19.828  0.00  0.00    +0.000 C 
ATOM     11  C   UNL     1       3.311   2.052  18.729  0.00  0.00    +0.000 C 
ATOM     12  C   UNL     1       3.336   2.451  17.222  0.00  0.00    +0.000 C 
ENDROOT
BRANCH   8  13
ATOM     13  N   UNL     1       2.819   6.471  20.082  0.00  0.00    +0.000 NA
ATOM     14  H   UNL     1       2.199   7.049  20.683  0.00  0.00    +0.000 HD
ATOM     15  H   UNL     1       3.116   7.028  19.247  0.00  0.00    +0.000 HD
ENDBRANCH   8  13
BRANCH   1  17
ATOM     16  C   UNL     1       7.354   4.903  14.087  0.00  0.00    +0.000 C 
ATOM     17  O   UNL     1       7.243   4.845  15.461  0.00  0.00    +0.000 OA
ENDBRANCH   1  17
BRANCH   6  18
ATOM     18  O   UNL     1       6.375   7.221  16.761  0.00  0.00    +0.000 OA
ATOM     19  C   UNL     1       7.490   7.495  17.539  0.00  0.00    +0.000 C 
ENDBRANCH   6  18
BRANCH   7  20
ATOM     20  O   UNL     1       1.220   4.229  17.609  0.00  0.00    +0.000 OA
ATOM     21  H   UNL     1       1.472   3.939  16.696  0.00  0.00    +0.000 HD
ENDBRANCH   7  20
TORSDOF 4
ENDMDL
MODEL 2
REMARK VINA RESULT:      -6.9      1.977      5.229
REMARK  Name = 
REMARK  6 active torsions:
REMARK  status: ('A' for Active; 'I' for Inactive)
REMARK    1  A    between atoms: C_1  and  O_2
REMARK    2  A    between atoms: O_2  and  C_3
REMARK    3  A    between atoms: C_8  and  O_9
REMARK    4  A    between atoms: O_9  and  C_10
REMARK    5  A    between atoms: C_11  and  O_12
REMARK    6  A    between atoms: C_13  and  N_14
REMARK                            x       y       z     vdW  Elec       q    Type
REMARK                         _______ _______ _______ _____ _____    ______ ____
ROOT
ATOM      1  C   UNL     1       2.822   3.778  18.293  0.00  0.00    +0.000 A 
ATOM      2  C   UNL     1       3.378   4.172  17.064  0.00  0.00    +0.000 A 
ATOM      3  C   UNL     1       4.752   4.435  16.932  0.00  0.00    +0.000 A 
ATOM      4  C   UNL     1       5.620   4.219  18.031  0.00  0.00    +0.000 A 
ATOM      5  C   UNL     1       5.041   3.873  19.268  0.00  0.00    +0.000 A 
ATOM      6  C   UNL     1       3.664   3.679  19.423  0.00  0.00    +0.000 A 
ATOM      7  C   UNL     1       7.151   4.346  17.946  0.00  0.00    +0.000 C 
ATOM      8  C   UNL     1       7.725   5.654  18.532  0.00  0.00    +0.000 C 
ATOM      9  C   UNL     1       7.292   6.981  17.839  0.00  0.00    +0.000 C 
ATOM     10  C   UNL     1       5.909   7.126  17.159  0.00  0.00    +0.000 C 
ATOM     11  C   UNL     1       5.741   6.464  15.750  0.00  0.00    +0.000 C 
ATOM     12  C   UNL     1       5.251   4.989  15.623  0.00  0.00    +0.000 C 
ENDROOT
BRANCH   8  13
ATOM     13  N   UNL     1       7.519   5.702  19.976  0.00  0.00    +0.000 NA
ATOM     14  H   UNL     1       6.515   5.614  20.229  0.00  0.00    +0.000 HD
ATOM     15  H   UNL     1       7.898   6.601  20.355  0.00  0.00    +0.000 HD
ENDBRANCH   8  13
BRANCH   1  17
ATOM     16  C   UNL     1       0.982   2.214  18.583  0.00  0.00    +0.000 C 
ATOM     17  O   UNL     1       1.504   3.480  18.413  0.00  0.00    +0.000 OA
ENDBRANCH   1  17
BRANCH   6  18
ATOM     18  O   UNL     1       3.218   3.415  20.682  0.00  0.00    +0.000 OA
ATOM     19  C   UNL     1       2.314   4.156  21.429  0.00  0.00    +0.000 C 
ENDBRANCH   6  18
BRANCH   7  20
ATOM     20  O   UNL     1       7.660   4.047  16.668  0.00  0.00    +0.000 OA
ATOM     21  H   UNL     1       7.528   3.087  16.465  0.00  0.00    +0.000 HD
ENDBRANCH   7  20
TORSDOF 4
ENDMDL
MODEL 3
REMARK VINA RESULT:      -6.8      2.408      4.041
REMARK  Name = 
REMARK  6 active torsions:
REMARK  status: ('A' for Active; 'I' for Inactive)
REMARK    1  A    between atoms: C_1  and  O_2
REMARK    2  A    between atoms: O_2  and  C_3
REMARK    3  A    between atoms: C_8  and  O_9
REMARK    4  A    between atoms: O_9  and  C_10
REMARK    5  A    between atoms: C_11  and  O_12
REMARK    6  A    between atoms: C_13  and  N_14
REMARK                            x       y       z     vdW  Elec       q    Type
REMARK                         _______ _______ _______ _____ _____    ______ ____
ROOT
ATOM      1  C   UNL     1       3.260   6.966  18.194  0.00  0.00    +0.000 A 
ATOM      2  C   UNL     1       2.517   6.478  19.282  0.00  0.00    +0.000 A 
ATOM      3  C   UNL     1       2.674   5.161  19.746  0.00  0.00    +0.000 A 
ATOM      4  C   UNL     1       3.659   4.322  19.166  0.00  0.00    +0.000 A 
ATOM      5  C   UNL     1       4.359   4.809  18.044  0.00  0.00    +0.000 A 
ATOM      6  C   UNL     1       4.156   6.095  17.534  0.00  0.00    +0.000 A 
ATOM      7  C   UNL     1       3.998   2.917  19.692  0.00  0.00    +0.000 C 
ATOM      8  C   UNL     1       3.400   1.756  18.869  0.00  0.00    +0.000 C 
ATOM      9  C   UNL     1       1.845   1.668  18.811  0.00  0.00    +0.000 C 
ATOM     10  C   UNL     1       0.958   2.935  18.888  0.00  0.00    +0.000 C 
ATOM     11  C   UNL     1       0.760   3.574  20.303  0.00  0.00    +0.000 C 
ATOM     12  C   UNL     1       1.744   4.667  20.823  0.00  0.00    +0.000 C 
ENDROOT
BRANCH   8  13
ATOM     13  N   UNL     1       3.997   1.710  17.539  0.00  0.00    +0.000 NA
ATOM     14  H   UNL     1       3.375   2.126  16.818  0.00  0.00    +0.000 HD
ATOM     15  H   UNL     1       4.212   0.717  17.284  0.00  0.00    +0.000 HD
ENDBRANCH   8  13
BRANCH   1  17
ATOM     16  C   UNL     1       1.993   9.009  17.826  0.00  0.00    +0.000 C 
ATOM     17  O   UNL     1       3.144   8.250  17.773  0.00  0.00    +0.000 OA
ENDBRANCH   1  17
BRANCH   6  18
ATOM     18  O   UNL     1       4.842   6.425  16.405  0.00  0.00    +0.000 OA
ATOM     19  C   UNL     1       5.565   5.577  15.580  0.00  0.00    +0.000 C 
ENDBRANCH   6  18
BRANCH   7  20
ATOM     20  O   UNL     1       3.782   2.778  21.076  0.00  0.00    +0.000 OA
ATOM     21  H   UNL     1       3.231   1.974  21.255  0.00  0.00    +0.000 HD
ENDBRANCH   7  20
TORSDOF 4
ENDMDL
MODEL 4
REMARK VINA RESULT:      -6.8      3.158      4.459
REMARK  Name = 
REMARK  6 active torsions:
REMARK  status: ('A' for Active; 'I' for Inactive)
REMARK    1  A    between atoms: C_1  and  O_2
REMARK    2  A    between atoms: O_2  and  C_3
REMARK    3  A    between atoms: C_8  and  O_9
REMARK    4  A    between atoms: O_9  and  C_10
REMARK    5  A    between atoms: C_11  and  O_12
REMARK    6  A    between atoms: C_13  and  N_14
REMARK                            x       y       z     vdW  Elec       q    Type
REMARK                         _______ _______ _______ _____ _____    ______ ____
ROOT
ATOM      1  C   UNL     1       2.396   7.302  18.733  0.00  0.00    +0.000 A 
ATOM      2  C   UNL     1       2.590   6.214  17.866  0.00  0.00    +0.000 A 
ATOM      3  C   UNL     1       2.315   4.896  18.270  0.00  0.00    +0.000 A 
ATOM      4  C   UNL     1       1.750   4.653  19.547  0.00  0.00    +0.000 A 
ATOM      5  C   UNL     1       1.610   5.749  20.422  0.00  0.00    +0.000 A 
ATOM      6  C   UNL     1       1.948   7.054  20.050  0.00  0.00    +0.000 A 
ATOM      7  C   UNL     1       1.290   3.266  20.025  0.00  0.00    +0.000 C 
ATOM      8  C   UNL     1       2.262   2.561  20.996  0.00  0.00    +0.000 C 
ATOM      9  C   UNL     1       3.676   2.213  20.441  0.00  0.00    +0.000 C 
ATOM     10  C   UNL     1       4.358   3.084  19.356  0.00  0.00    +0.000 C 
ATOM     11  C   UNL     1       3.855   2.903  17.885  0.00  0.00    +0.000 C 
ATOM     12  C   UNL     1       2.682   3.771  17.337  0.00  0.00    +0.000 C 
ENDROOT
BRANCH   8  13
ATOM     13  N   UNL     1       2.338   3.283  22.261  0.00  0.00    +0.000 NA
ATOM     14  H   UNL     1       1.501   3.880  22.419  0.00  0.00    +0.000 HD
ATOM     15  H   UNL     1       3.199   3.878  22.276  0.00  0.00    +0.000 HD
ENDBRANCH   8  13
BRANCH   1  17
ATOM     16  C   UNL     1       1.654   9.445  17.855  0.00  0.00    +0.000 C 
ATOM     17  O   UNL     1       2.616   8.578  18.331  0.00  0.00    +0.000 OA
ENDBRANCH   1  17
BRANCH   6  18
ATOM     18  O   UNL     1       1.832   8.016  21.006  0.00  0.00    +0.000 OA
ATOM     19  C   UNL     1       0.670   8.626  21.454  0.00  0.00    +0.000 C 
ENDBRANCH   6  18
BRANCH   7  20
ATOM     20  O   UNL     1       0.863   2.433  18.975  0.00  0.00    +0.000 OA
ATOM     21  H   UNL     1       1.026   2.872  18.103  0.00  0.00    +0.000 HD
ENDBRANCH   7  20
TORSDOF 4
ENDMDL
MODEL 5
REMARK VINA RESULT:      -6.7      1.631      2.222
REMARK  Name = 
REMARK  6 active torsions:
REMARK  status: ('A' for Active; 'I' for Inactive)
REMARK    1  A    between atoms: C_1  and  O_2
REMARK    2  A    between atoms: O_2  and  C_3
REMARK    3  A    between atoms: C_8  and  O_9
REMARK    4  A    between atoms: O_9  and  C_10
REMARK    5  A    between atoms: C_11  and  O_12
REMARK    6  A    between atoms: C_13  and  N_14
REMARK                            x       y       z     vdW  Elec       q    Type
REMARK                         _______ _______ _______ _____ _____    ______ ____
ROOT
ATOM      1  C   UNL     1       4.667   5.482  16.937  0.00  0.00    +0.000 A 
ATOM      2  C   UNL     1       4.642   4.079  17.010  0.00  0.00    +0.000 A 
ATOM      3  C   UNL     1       3.585   3.395  17.634  0.00  0.00    +0.000 A 
ATOM      4  C   UNL     1       2.471   4.121  18.130  0.00  0.00    +0.000 A 
ATOM      5  C   UNL     1       2.536   5.528  18.094  0.00  0.00    +0.000 A 
ATOM      6  C   UNL     1       3.619   6.215  17.537  0.00  0.00    +0.000 A 
ATOM      7  C   UNL     1       1.209   3.456  18.703  0.00  0.00    +0.000 C 
ATOM      8  C   UNL     1       1.121   3.456  20.244  0.00  0.00    +0.000 C 
ATOM      9  C   UNL     1       2.227   2.668  21.009  0.00  0.00    +0.000 C 
ATOM     10  C   UNL     1       3.659   2.524  20.439  0.00  0.00    +0.000 C 
ATOM     11  C   UNL     1       3.862   1.479  19.290  0.00  0.00    +0.000 C 
ATOM     12  C   UNL     1       3.696   1.902  17.799  0.00  0.00    +0.000 C 
ENDROOT
BRANCH   8  13
ATOM     13  N   UNL     1       0.976   4.817  20.750  0.00  0.00    +0.000 NA
ATOM     14  H   UNL     1       1.072   4.861  21.783  0.00  0.00    +0.000 HD
ATOM     15  H   UNL     1       0.043   5.199  20.468  0.00  0.00    +0.000 HD
ENDBRANCH   8  13
BRANCH   1  17
ATOM     16  C   UNL     1       6.975   6.218  16.719  0.00  0.00    +0.000 C 
ATOM     17  O   UNL     1       5.664   6.142  16.297  0.00  0.00    +0.000 OA
ENDBRANCH   1  17
BRANCH   6  18
ATOM     18  O   UNL     1       3.597   7.574  17.625  0.00  0.00    +0.000 OA
ATOM     19  C   UNL     1       2.493   8.388  17.828  0.00  0.00    +0.000 C 
ENDBRANCH   6  18
BRANCH   7  20
ATOM     20  O   UNL     1       0.942   2.195  18.138  0.00  0.00    +0.000 OA
ATOM     21  H   UNL     1       0.193   2.261  17.494  0.00  0.00    +0.000 HD
ENDBRANCH   7  20
TORSDOF 4
ENDMDL
MODEL 6
REMARK VINA RESULT:      -6.6      3.117      5.023
REMARK  Name = 
REMARK  6 active torsions:
REMARK  status: ('A' for Active; 'I' for Inactive)
REMARK    1  A    between atoms: C_1  and  O_2
REMARK    2  A    between atoms: O_2  and  C_3
REMARK    3  A    between atoms: C_8  and  O_9
REMARK    4  A    between atoms: O_9  and  C_10
REMARK    5  A    between atoms: C_11  and  O_12
REMARK    6  A    between atoms: C_13  and  N_14
REMARK                            x       y       z     vdW  Elec       q    Type
REMARK                         _______ _______ _______ _____ _____    ______ ____
ROOT
ATOM      1  C   UNL     1       1.874   7.122  20.197  0.00  0.00    +0.000 A 
ATOM      2  C   UNL     1       1.766   5.900  20.882  0.00  0.00    +0.000 A 
ATOM      3  C   UNL     1       2.489   4.766  20.477  0.00  0.00    +0.000 A 
ATOM      4  C   UNL     1       3.416   4.864  19.408  0.00  0.00    +0.000 A 
ATOM      5  C   UNL     1       3.474   6.081  18.701  0.00  0.00    +0.000 A 
ATOM      6  C   UNL     1       2.704   7.193  19.056  0.00  0.00    +0.000 A 
ATOM      7  C   UNL     1       4.349   3.719  18.982  0.00  0.00    +0.000 C 
ATOM      8  C   UNL     1       3.901   2.956  17.717  0.00  0.00    +0.000 C 
ATOM      9  C   UNL     1       2.544   2.196  17.802  0.00  0.00    +0.000 C 
ATOM     10  C   UNL     1       1.388   2.700  18.700  0.00  0.00    +0.000 C 
ATOM     11  C   UNL     1       1.514   2.424  20.237  0.00  0.00    +0.000 C 
ATOM     12  C   UNL     1       2.214   3.457  21.171  0.00  0.00    +0.000 C 
ENDROOT
BRANCH   8  13
ATOM     13  N   UNL     1       3.967   3.823  16.545  0.00  0.00    +0.000 NA
ATOM     14  H   UNL     1       3.722   3.316  15.671  0.00  0.00    +0.000 HD
ATOM     15  H   UNL     1       4.929   4.225  16.458  0.00  0.00    +0.000 HD
ENDBRANCH   8  13
BRANCH   1  17
ATOM     16  C   UNL     1       1.243   8.748  21.891  0.00  0.00    +0.000 C 
ATOM     17  O   UNL     1       1.212   8.230  20.613  0.00  0.00    +0.000 OA
ENDBRANCH   1  17
BRANCH   6  18
ATOM     18  O   UNL     1       2.798   8.289  18.253  0.00  0.00    +0.000 OA
ATOM     19  C   UNL     1       1.762   8.975  17.637  0.00  0.00    +0.000 C 
ENDBRANCH   6  18
BRANCH   7  20
ATOM     20  O   UNL     1       4.697   2.864  20.044  0.00  0.00    +0.000 OA
ATOM     21  H   UNL     1       4.438   1.932  19.831  0.00  0.00    +0.000 HD
ENDBRANCH   7  20
TORSDOF 4
ENDMDL
MODEL 7
REMARK VINA RESULT:      -6.4      2.041      2.941
REMARK  Name = 
REMARK  6 active torsions:
REMARK  status: ('A' for Active; 'I' for Inactive)
REMARK    1  A    between atoms: C_1  and  O_2
REMARK    2  A    between atoms: O_2  and  C_3
REMARK    3  A    between atoms: C_8  and  O_9
REMARK    4  A    between atoms: O_9  and  C_10
REMARK    5  A    between atoms: C_11  and  O_12
REMARK    6  A    between atoms: C_13  and  N_14
REMARK                            x       y       z     vdW  Elec       q    Type
REMARK                         _______ _______ _______ _____ _____    ______ ____
ROOT
ATOM      1  C   UNL     1       5.991   4.785  18.248  0.00  0.00    +0.000 A 
ATOM      2  C   UNL     1       5.673   3.913  19.303  0.00  0.00    +0.000 A 
ATOM      3  C   UNL     1       4.477   3.175  19.310  0.00  0.00    +0.000 A 
ATOM      4  C   UNL     1       3.603   3.238  18.196  0.00  0.00    +0.000 A 
ATOM      5  C   UNL     1       3.911   4.155  17.171  0.00  0.00    +0.000 A 
ATOM      6  C   UNL     1       5.066   4.944  17.192  0.00  0.00    +0.000 A 
ATOM      7  C   UNL     1       2.344   2.367  18.051  0.00  0.00    +0.000 C 
ATOM      8  C   UNL     1       1.017   3.093  18.359  0.00  0.00    +0.000 C 
ATOM      9  C   UNL     1       0.829   3.620  19.814  0.00  0.00    +0.000 C 
ATOM     10  C   UNL     1       2.034   4.077  20.672  0.00  0.00    +0.000 C 
ATOM     11  C   UNL     1       2.915   2.950  21.310  0.00  0.00    +0.000 C 
ATOM     12  C   UNL     1       4.140   2.372  20.539  0.00  0.00    +0.000 C 
ENDROOT
BRANCH   8  13
ATOM     13  N   UNL     1       0.757   4.131  17.367  0.00  0.00    +0.000 NA
ATOM     14  H   UNL     1       0.121   3.799  16.614  0.00  0.00    +0.000 HD
ATOM     15  H   UNL     1       1.660   4.450  16.947  0.00  0.00    +0.000 HD
ENDBRANCH   8  13
BRANCH   1  17
ATOM     16  C   UNL     1       7.911   5.824  19.320  0.00  0.00    +0.000 C 
ATOM     17  O   UNL     1       7.164   5.464  18.217  0.00  0.00    +0.000 OA
ENDBRANCH   1  17
BRANCH   6  18
ATOM     18  O   UNL     1       5.217   5.841  16.179  0.00  0.00    +0.000 OA
ATOM     19  C   UNL     1       5.704   5.599  14.904  0.00  0.00    +0.000 C 
ENDBRANCH   6  18
BRANCH   7  20
ATOM     20  O   UNL     1       2.454   1.124  18.700  0.00  0.00    +0.000 OA
ATOM     21  H   UNL     1       1.830   1.084  19.468  0.00  0.00    +0.000 HD
ENDBRANCH   7  20
TORSDOF 4
ENDMDL
MODEL 8
REMARK VINA RESULT:      -6.4      2.022      2.598
REMARK  Name = 
REMARK  6 active torsions:
REMARK  status: ('A' for Active; 'I' for Inactive)
REMARK    1  A    between atoms: C_1  and  O_2
REMARK    2  A    between atoms: O_2  and  C_3
REMARK    3  A    between atoms: C_8  and  O_9
REMARK    4  A    between atoms: O_9  and  C_10
REMARK    5  A    between atoms: C_11  and  O_12
REMARK    6  A    between atoms: C_13  and  N_14
REMARK                            x       y       z     vdW  Elec       q    Type
REMARK                         _______ _______ _______ _____ _____    ______ ____
ROOT
ATOM      1  C   UNL     1       5.535   5.534  17.247  0.00  0.00    +0.000 A 
ATOM      2  C   UNL     1       4.145   5.633  17.067  0.00  0.00    +0.000 A 
ATOM      3  C   UNL     1       3.246   5.241  18.074  0.00  0.00    +0.000 A 
ATOM      4  C   UNL     1       3.739   4.816  19.334  0.00  0.00    +0.000 A 
ATOM      5  C   UNL     1       5.133   4.675  19.480  0.00  0.00    +0.000 A 
ATOM      6  C   UNL     1       6.031   4.997  18.456  0.00  0.00    +0.000 A 
ATOM      7  C   UNL     1       2.837   4.500  20.539  0.00  0.00    +0.000 C 
ATOM      8  C   UNL     1       2.614   2.995  20.802  0.00  0.00    +0.000 C 
ATOM      9  C   UNL     1       1.886   2.189  19.685  0.00  0.00    +0.000 C 
ATOM     10  C   UNL     1       2.017   2.575  18.191  0.00  0.00    +0.000 C 
ATOM     11  C   UNL     1       1.176   3.803  17.702  0.00  0.00    +0.000 C 
ATOM     12  C   UNL     1       1.773   5.242  17.757  0.00  0.00    +0.000 C 
ENDROOT
BRANCH   8  13
ATOM     13  N   UNL     1       3.861   2.355  21.209  0.00  0.00    +0.000 NA
ATOM     14  H   UNL     1       4.199   2.709  22.126  0.00  0.00    +0.000 HD
ATOM     15  H   UNL     1       4.594   2.518  20.479  0.00  0.00    +0.000 HD
ENDBRANCH   8  13
BRANCH   1  17
ATOM     16  C   UNL     1       6.911   5.175  15.274  0.00  0.00    +0.000 C 
ATOM     17  O   UNL     1       6.405   5.953  16.295  0.00  0.00    +0.000 OA
ENDBRANCH   1  17
BRANCH   6  18
ATOM     18  O   UNL     1       7.349   4.752  18.694  0.00  0.00    +0.000 OA
ATOM     19  C   UNL     1       8.245   5.554  19.385  0.00  0.00    +0.000 C 
ENDBRANCH   6  18
BRANCH   7  20
ATOM     20  O   UNL     1       1.641   5.241  20.544  0.00  0.00    +0.000 OA
ATOM     21  H   UNL     1       0.865   4.636  20.658  0.00  0.00    +0.000 HD
ENDBRANCH   7  20
TORSDOF 4
ENDMDL
MODEL 9
REMARK VINA RESULT:      -6.4      2.045      3.414
REMARK  Name = 
REMARK  6 active torsions:
REMARK  status: ('A' for Active; 'I' for Inactive)
REMARK    1  A    between atoms: C_1  and  O_2
REMARK    2  A    between atoms: O_2  and  C_3
REMARK    3  A    between atoms: C_8  and  O_9
REMARK    4  A    between atoms: O_9  and  C_10
REMARK    5  A    between atoms: C_11  and  O_12
REMARK    6  A    between atoms: C_13  and  N_14
REMARK                            x       y       z     vdW  Elec       q    Type
REMARK                         _______ _______ _______ _____ _____    ______ ____
ROOT
ATOM      1  C   UNL     1       5.721   6.161  17.559  0.00  0.00    +0.000 A 
ATOM      2  C   UNL     1       4.630   6.340  18.425  0.00  0.00    +0.000 A 
ATOM      3  C   UNL     1       4.012   5.251  19.062  0.00  0.00    +0.000 A 
ATOM      4  C   UNL     1       4.544   3.946  18.902  0.00  0.00    +0.000 A 
ATOM      5  C   UNL     1       5.606   3.777  17.991  0.00  0.00    +0.000 A 
ATOM      6  C   UNL     1       6.179   4.850  17.300  0.00  0.00    +0.000 A 
ATOM      7  C   UNL     1       4.024   2.715  19.663  0.00  0.00    +0.000 C 
ATOM      8  C   UNL     1       3.111   1.783  18.837  0.00  0.00    +0.000 C 
ATOM      9  C   UNL     1       1.768   2.388  18.329  0.00  0.00    +0.000 C 
ATOM     10  C   UNL     1       1.634   3.894  17.993  0.00  0.00    +0.000 C 
ATOM     11  C   UNL     1       1.495   4.879  19.203  0.00  0.00    +0.000 C 
ATOM     12  C   UNL     1       2.762   5.505  19.863  0.00  0.00    +0.000 C 
ENDROOT
BRANCH   8  13
ATOM     13  N   UNL     1       3.864   1.150  17.759  0.00  0.00    +0.000 NA
ATOM     14  H   UNL     1       3.382   0.306  17.391  0.00  0.00    +0.000 HD
ATOM     15  H   UNL     1       4.817   0.886  18.104  0.00  0.00    +0.000 HD
ENDBRANCH   8  13
BRANCH   1  17
ATOM     16  C   UNL     1       7.507   7.807  17.435  0.00  0.00    +0.000 C 
ATOM     17  O   UNL     1       6.347   7.215  16.979  0.00  0.00    +0.000 OA
ENDBRANCH   1  17
BRANCH   6  18
ATOM     18  O   UNL     1       7.152   4.550  16.396  0.00  0.00    +0.000 OA
ATOM     19  C   UNL     1       7.036   4.508  15.015  0.00  0.00    +0.000 C 
ENDBRANCH   6  18
BRANCH   7  20
ATOM     20  O   UNL     1       3.489   3.030  20.926  0.00  0.00    +0.000 OA
ATOM     21  H   UNL     1       2.519   2.832  20.944  0.00  0.00    +0.000 HD
ENDBRANCH   7  20
TORSDOF 4
ENDMDL
