MODEL 1
REMARK VINA RESULT:      -7.5      0.000      0.000
REMARK  Name = 
REMARK  9 active torsions:
REMARK  status: ('A' for Active; 'I' for Inactive)
REMARK    1  A    between atoms: N_1  and  C_2
REMARK    2  A    between atoms: C_2  and  C_3
REMARK    3  A    between atoms: C_2  and  C_5
REMARK    4  A    between atoms: C_3  and  S_4
REMARK    5  A    between atoms: N_7  and  C_8
REMARK    6  A    between atoms: C_12  and  O_13
REMARK    7  A    between atoms: O_13  and  C_14
REMARK    8  A    between atoms: C_18  and  C_19
REMARK    9  A    between atoms: C_19  and  O_21
REMARK                            x       y       z     vdW  Elec       q    Type
REMARK                         _______ _______ _______ _____ _____    ______ ____
ROOT
ATOM      1  C   UNL     1       1.942   5.323  20.446  0.00  0.00    +0.000 A 
ATOM      2  C   UNL     1       1.090   4.218  20.331  0.00  0.00    +0.000 A 
ATOM      3  C   UNL     1       1.568   2.994  19.864  0.00  0.00    +0.000 A 
ATOM      4  C   UNL     1       2.917   2.849  19.559  0.00  0.00    +0.000 A 
ATOM      5  C   UNL     1       3.777   3.940  19.682  0.00  0.00    +0.000 A 
ATOM      6  C   UNL     1       3.269   5.196  20.038  0.00  0.00    +0.000 A 
ENDROOT
BRANCH   1   9
ATOM      7  C   UNL     1       1.628   7.789  20.384  0.00  0.00    +0.000 C 
ATOM      8  O   UNL     1       2.032   7.990  19.242  0.00  0.00    +0.000 OA
ATOM      9  N   UNL     1       1.529   6.549  21.002  0.00  0.00    +0.000 N 
ATOM     10  H   UNL     1       1.016   6.549  21.876  0.00  0.00    +0.000 HD
BRANCH   7  11
ATOM     11  C   UNL     1       1.073   8.938  21.246  0.00  0.00    +0.000 C 
BRANCH  11  12
ATOM     12  N   UNL     1       1.920   9.127  22.452  0.00  0.00    +0.000 NA
ATOM     13  H   UNL     1       2.890   9.216  22.128  0.00  0.00    +0.000 HD
ATOM     14  H   UNL     1       1.918   8.255  22.988  0.00  0.00    +0.000 HD
ENDBRANCH  11  12
BRANCH  11  15
ATOM     15  C   UNL     1       0.960  10.194  20.364  0.00  0.00    +0.000 C 
BRANCH  15  16
ATOM     16  S   UNL     1      -0.708  10.395  19.654  0.00  0.00    +0.000 S 
ATOM     17  H   UNL     1      -1.139   9.155  19.934  0.00  0.00    +0.000 HD
ENDBRANCH  15  16
ENDBRANCH  11  15
ENDBRANCH   7  11
ENDBRANCH   1   9
BRANCH   5  18
ATOM     18  O   UNL     1       5.104   3.683  19.415  0.00  0.00    +0.000 OA
BRANCH  18  19
ATOM     19  C   UNL     1       5.784   4.460  18.502  0.00  0.00    +0.000 A 
ATOM     20  C   UNL     1       6.550   5.492  19.047  0.00  0.00    +0.000 A 
ATOM     21  C   UNL     1       7.340   6.290  18.222  0.00  0.00    +0.000 A 
ATOM     22  C   UNL     1       7.367   6.055  16.847  0.00  0.00    +0.000 A 
ATOM     23  C   UNL     1       6.559   5.059  16.286  0.00  0.00    +0.000 A 
ATOM     24  C   UNL     1       5.736   4.285  17.113  0.00  0.00    +0.000 A 
BRANCH  23  25
ATOM     25  C   UNL     1       6.699   4.783  14.832  0.00  0.00    +0.000 C 
ATOM     26  O   UNL     1       5.965   4.008  14.242  0.00  0.00    +0.000 OA
BRANCH  25  27
ATOM     27  O   UNL     1       7.692   5.458  14.220  0.00  0.00    +0.000 OA
ATOM     28  H   UNL     1       8.379   5.828  14.804  0.00  0.00    +0.000 HD
ENDBRANCH  25  27
ENDBRANCH  23  25
ENDBRANCH  18  19
ENDBRANCH   5  18
TORSDOF 9
ENDMDL
MODEL 2
REMARK VINA RESULT:      -7.4      1.761      2.376
REMARK  Name = 
REMARK  9 active torsions:
REMARK  status: ('A' for Active; 'I' for Inactive)
REMARK    1  A    between atoms: N_1  and  C_2
REMARK    2  A    between atoms: C_2  and  C_3
REMARK    3  A    between atoms: C_2  and  C_5
REMARK    4  A    between atoms: C_3  and  S_4
REMARK    5  A    between atoms: N_7  and  C_8
REMARK    6  A    between atoms: C_12  and  O_13
REMARK    7  A    between atoms: O_13  and  C_14
REMARK    8  A    between atoms: C_18  and  C_19
REMARK    9  A    between atoms: C_19  and  O_21
REMARK                            x       y       z     vdW  Elec       q    Type
REMARK                         _______ _______ _______ _____ _____    ______ ____
ROOT
ATOM      1  C   UNL     1       1.948   5.507  20.414  0.00  0.00    +0.000 A 
ATOM      2  C   UNL     1       1.060   4.434  20.559  0.00  0.00    +0.000 A 
ATOM      3  C   UNL     1       1.454   3.135  20.240  0.00  0.00    +0.000 A 
ATOM      4  C   UNL     1       2.757   2.889  19.822  0.00  0.00    +0.000 A 
ATOM      5  C   UNL     1       3.653   3.950  19.685  0.00  0.00    +0.000 A 
ATOM      6  C   UNL     1       3.219   5.265  19.894  0.00  0.00    +0.000 A 
ENDROOT
BRANCH   1   9
ATOM      7  C   UNL     1       1.686   7.946  20.004  0.00  0.00    +0.000 C 
ATOM      8  O   UNL     1       1.965   7.955  18.808  0.00  0.00    +0.000 OA
ATOM      9  N   UNL     1       1.628   6.819  20.814  0.00  0.00    +0.000 N 
ATOM     10  H   UNL     1       1.217   6.972  21.727  0.00  0.00    +0.000 HD
BRANCH   7  11
ATOM     11  C   UNL     1       1.259   9.234  20.732  0.00  0.00    +0.000 C 
BRANCH  11  12
ATOM     12  N   UNL     1      -0.025   9.733  20.176  0.00  0.00    +0.000 NA
ATOM     13  H   UNL     1      -0.778   9.238  20.667  0.00  0.00    +0.000 HD
ATOM     14  H   UNL     1      -0.105   9.409  19.209  0.00  0.00    +0.000 HD
ENDBRANCH  11  12
BRANCH  11  15
ATOM     15  C   UNL     1       1.212   8.944  22.243  0.00  0.00    +0.000 C 
BRANCH  15  16
ATOM     16  S   UNL     1      -0.260   9.664  23.042  0.00  0.00    +0.000 S 
ATOM     17  H   UNL     1      -1.109   9.430  22.029  0.00  0.00    +0.000 HD
ENDBRANCH  15  16
ENDBRANCH  11  15
ENDBRANCH   7  11
ENDBRANCH   1   9
BRANCH   5  18
ATOM     18  O   UNL     1       4.935   3.600  19.324  0.00  0.00    +0.000 OA
BRANCH  18  19
ATOM     19  C   UNL     1       5.615   4.353  18.391  0.00  0.00    +0.000 A 
ATOM     20  C   UNL     1       5.368   4.021  17.058  0.00  0.00    +0.000 A 
ATOM     21  C   UNL     1       5.940   4.768  16.031  0.00  0.00    +0.000 A 
ATOM     22  C   UNL     1       6.762   5.854  16.337  0.00  0.00    +0.000 A 
ATOM     23  C   UNL     1       7.060   6.160  17.670  0.00  0.00    +0.000 A 
ATOM     24  C   UNL     1       6.514   5.382  18.699  0.00  0.00    +0.000 A 
BRANCH  23  25
ATOM     25  C   UNL     1       7.857   7.384  17.944  0.00  0.00    +0.000 C 
ATOM     26  O   UNL     1       7.816   8.364  17.220  0.00  0.00    +0.000 OA
BRANCH  25  27
ATOM     27  O   UNL     1       8.617   7.329  19.056  0.00  0.00    +0.000 OA
ATOM     28  H   UNL     1       9.581   7.309  18.912  0.00  0.00    +0.000 HD
ENDBRANCH  25  27
ENDBRANCH  23  25
ENDBRANCH  18  19
ENDBRANCH   5  18
TORSDOF 9
ENDMDL
MODEL 3
REMARK VINA RESULT:      -7.3      0.977      1.069
REMARK  Name = 
REMARK  9 active torsions:
REMARK  status: ('A' for Active; 'I' for Inactive)
REMARK    1  A    between atoms: N_1  and  C_2
REMARK    2  A    between atoms: C_2  and  C_3
REMARK    3  A    between atoms: C_2  and  C_5
REMARK    4  A    between atoms: C_3  and  S_4
REMARK    5  A    between atoms: N_7  and  C_8
REMARK    6  A    between atoms: C_12  and  O_13
REMARK    7  A    between atoms: O_13  and  C_14
REMARK    8  A    between atoms: C_18  and  C_19
REMARK    9  A    between atoms: C_19  and  O_21
REMARK                            x       y       z     vdW  Elec       q    Type
REMARK                         _______ _______ _______ _____ _____    ______ ____
ROOT
ATOM      1  C   UNL     1       2.014   5.548  20.429  0.00  0.00    +0.000 A 
ATOM      2  C   UNL     1       1.112   4.479  20.475  0.00  0.00    +0.000 A 
ATOM      3  C   UNL     1       1.510   3.194  20.108  0.00  0.00    +0.000 A 
ATOM      4  C   UNL     1       2.830   2.957  19.742  0.00  0.00    +0.000 A 
ATOM      5  C   UNL     1       3.740   4.013  19.704  0.00  0.00    +0.000 A 
ATOM      6  C   UNL     1       3.307   5.320  19.960  0.00  0.00    +0.000 A 
ENDROOT
BRANCH   1   9
ATOM      7  C   UNL     1       1.693   7.993  20.106  0.00  0.00    +0.000 C 
ATOM      8  O   UNL     1       1.927   8.044  18.901  0.00  0.00    +0.000 OA
ATOM      9  N   UNL     1       1.686   6.841  20.881  0.00  0.00    +0.000 N 
ATOM     10  H   UNL     1       1.306   6.958  21.814  0.00  0.00    +0.000 HD
BRANCH   7  11
ATOM     11  C   UNL     1       1.271   9.250  20.888  0.00  0.00    +0.000 C 
BRANCH  11  12
ATOM     12  N   UNL     1       0.347  10.076  20.068  0.00  0.00    +0.000 NA
ATOM     13  H   UNL     1       0.862  10.361  19.228  0.00  0.00    +0.000 HD
ATOM     14  H   UNL     1       0.174  10.954  20.563  0.00  0.00    +0.000 HD
ENDBRANCH  11  12
BRANCH  11  15
ATOM     15  C   UNL     1       0.677   8.805  22.236  0.00  0.00    +0.000 C 
BRANCH  15  16
ATOM     16  S   UNL     1      -0.521  10.010  22.899  0.00  0.00    +0.000 S 
ATOM     17  H   UNL     1       0.385  10.828  23.459  0.00  0.00    +0.000 HD
ENDBRANCH  15  16
ENDBRANCH  11  15
ENDBRANCH   7  11
ENDBRANCH   1   9
BRANCH   5  18
ATOM     18  O   UNL     1       5.036   3.669  19.388  0.00  0.00    +0.000 OA
BRANCH  18  19
ATOM     19  C   UNL     1       5.754   4.441  18.501  0.00  0.00    +0.000 A 
ATOM     20  C   UNL     1       6.543   5.438  19.077  0.00  0.00    +0.000 A 
ATOM     21  C   UNL     1       7.371   6.226  18.280  0.00  0.00    +0.000 A 
ATOM     22  C   UNL     1       7.413   6.016  16.901  0.00  0.00    +0.000 A 
ATOM     23  C   UNL     1       6.583   5.056  16.309  0.00  0.00    +0.000 A 
ATOM     24  C   UNL     1       5.724   4.293  17.108  0.00  0.00    +0.000 A 
BRANCH  23  25
ATOM     25  C   UNL     1       6.739   4.802  14.852  0.00  0.00    +0.000 C 
ATOM     26  O   UNL     1       6.022   4.023  14.247  0.00  0.00    +0.000 OA
BRANCH  25  27
ATOM     27  O   UNL     1       7.724   5.503  14.257  0.00  0.00    +0.000 OA
ATOM     28  H   UNL     1       7.625   5.645  13.298  0.00  0.00    +0.000 HD
ENDBRANCH  25  27
ENDBRANCH  23  25
ENDBRANCH  18  19
ENDBRANCH   5  18
TORSDOF 9
ENDMDL
MODEL 4
REMARK VINA RESULT:      -7.3      3.532      5.457
REMARK  Name = 
REMARK  9 active torsions:
REMARK  status: ('A' for Active; 'I' for Inactive)
REMARK    1  A    between atoms: N_1  and  C_2
REMARK    2  A    between atoms: C_2  and  C_3
REMARK    3  A    between atoms: C_2  and  C_5
REMARK    4  A    between atoms: C_3  and  S_4
REMARK    5  A    between atoms: N_7  and  C_8
REMARK    6  A    between atoms: C_12  and  O_13
REMARK    7  A    between atoms: O_13  and  C_14
REMARK    8  A    between atoms: C_18  and  C_19
REMARK    9  A    between atoms: C_19  and  O_21
REMARK                            x       y       z     vdW  Elec       q    Type
REMARK                         _______ _______ _______ _____ _____    ______ ____
ROOT
ATOM      1  C   UNL     1       4.963   4.856  18.336  0.00  0.00    +0.000 A 
ATOM      2  C   UNL     1       4.171   5.945  17.952  0.00  0.00    +0.000 A 
ATOM      3  C   UNL     1       4.521   6.729  16.853  0.00  0.00    +0.000 A 
ATOM      4  C   UNL     1       5.639   6.399  16.096  0.00  0.00    +0.000 A 
ATOM      5  C   UNL     1       6.428   5.309  16.463  0.00  0.00    +0.000 A 
ATOM      6  C   UNL     1       6.139   4.597  17.634  0.00  0.00    +0.000 A 
ENDROOT
BRANCH   1   9
ATOM      7  C   UNL     1       3.991   2.742  19.213  0.00  0.00    +0.000 C 
ATOM      8  O   UNL     1       3.737   2.205  18.138  0.00  0.00    +0.000 OA
ATOM      9  N   UNL     1       4.599   3.980  19.376  0.00  0.00    +0.000 N 
ATOM     10  H   UNL     1       4.888   4.190  20.325  0.00  0.00    +0.000 HD
BRANCH   7  11
ATOM     11  C   UNL     1       3.734   2.014  20.546  0.00  0.00    +0.000 C 
BRANCH  11  12
ATOM     12  N   UNL     1       5.025   1.673  21.198  0.00  0.00    +0.000 NA
ATOM     13  H   UNL     1       5.772   1.947  20.550  0.00  0.00    +0.000 HD
ATOM     14  H   UNL     1       5.102   0.654  21.248  0.00  0.00    +0.000 HD
ENDBRANCH  11  12
BRANCH  11  15
ATOM     15  C   UNL     1       2.815   2.896  21.410  0.00  0.00    +0.000 C 
BRANCH  15  16
ATOM     16  S   UNL     1       1.160   3.104  20.673  0.00  0.00    +0.000 S 
ATOM     17  H   UNL     1       0.471   2.605  21.712  0.00  0.00    +0.000 HD
ENDBRANCH  15  16
ENDBRANCH  11  15
ENDBRANCH   7  11
ENDBRANCH   1   9
BRANCH   5  18
ATOM     18  O   UNL     1       7.478   5.025  15.617  0.00  0.00    +0.000 OA
BRANCH  18  19
ATOM     19  C   UNL     1       7.242   4.816  14.275  0.00  0.00    +0.000 A 
ATOM     20  C   UNL     1       8.033   5.566  13.404  0.00  0.00    +0.000 A 
ATOM     21  C   UNL     1       7.934   5.376  12.027  0.00  0.00    +0.000 A 
ATOM     22  C   UNL     1       7.041   4.430  11.519  0.00  0.00    +0.000 A 
ATOM     23  C   UNL     1       6.205   3.714  12.383  0.00  0.00    +0.000 A 
ATOM     24  C   UNL     1       6.280   3.936  13.764  0.00  0.00    +0.000 A 
BRANCH  23  25
ATOM     25  C   UNL     1       5.346   2.649  11.801  0.00  0.00    +0.000 C 
ATOM     26  O   UNL     1       4.212   2.868  11.411  0.00  0.00    +0.000 OA
BRANCH  25  27
ATOM     27  O   UNL     1       5.921   1.432  11.732  0.00  0.00    +0.000 OA
ATOM     28  H   UNL     1       5.554   0.754  12.326  0.00  0.00    +0.000 HD
ENDBRANCH  25  27
ENDBRANCH  23  25
ENDBRANCH  18  19
ENDBRANCH   5  18
TORSDOF 9
ENDMDL
MODEL 5
REMARK VINA RESULT:      -7.2      4.510      8.116
REMARK  Name = 
REMARK  9 active torsions:
REMARK  status: ('A' for Active; 'I' for Inactive)
REMARK    1  A    between atoms: N_1  and  C_2
REMARK    2  A    between atoms: C_2  and  C_3
REMARK    3  A    between atoms: C_2  and  C_5
REMARK    4  A    between atoms: C_3  and  S_4
REMARK    5  A    between atoms: N_7  and  C_8
REMARK    6  A    between atoms: C_12  and  O_13
REMARK    7  A    between atoms: O_13  and  C_14
REMARK    8  A    between atoms: C_18  and  C_19
REMARK    9  A    between atoms: C_19  and  O_21
REMARK                            x       y       z     vdW  Elec       q    Type
REMARK                         _______ _______ _______ _____ _____    ______ ____
ROOT
ATOM      1  C   UNL     1       6.122   4.292  15.430  0.00  0.00    +0.000 A 
ATOM      2  C   UNL     1       7.309   4.237  16.170  0.00  0.00    +0.000 A 
ATOM      3  C   UNL     1       7.365   4.745  17.467  0.00  0.00    +0.000 A 
ATOM      4  C   UNL     1       6.218   5.267  18.056  0.00  0.00    +0.000 A 
ATOM      5  C   UNL     1       5.028   5.316  17.332  0.00  0.00    +0.000 A 
ATOM      6  C   UNL     1       5.006   4.912  15.991  0.00  0.00    +0.000 A 
ENDROOT
BRANCH   1   9
ATOM      7  C   UNL     1       6.658   4.114  13.008  0.00  0.00    +0.000 C 
ATOM      8  O   UNL     1       7.504   5.002  12.948  0.00  0.00    +0.000 OA
ATOM      9  N   UNL     1       5.991   3.707  14.156  0.00  0.00    +0.000 N 
ATOM     10  H   UNL     1       5.457   2.851  14.057  0.00  0.00    +0.000 HD
BRANCH   7  11
ATOM     11  C   UNL     1       6.311   3.260  11.774  0.00  0.00    +0.000 C 
BRANCH  11  12
ATOM     12  N   UNL     1       7.281   2.143  11.637  0.00  0.00    +0.000 NA
ATOM     13  H   UNL     1       7.084   1.681  10.742  0.00  0.00    +0.000 HD
ATOM     14  H   UNL     1       7.054   1.431  12.337  0.00  0.00    +0.000 HD
ENDBRANCH  11  12
BRANCH  11  15
ATOM     15  C   UNL     1       4.847   2.802  11.897  0.00  0.00    +0.000 C 
BRANCH  15  16
ATOM     16  S   UNL     1       3.772   3.567  10.639  0.00  0.00    +0.000 S 
ATOM     17  H   UNL     1       3.766   2.525   9.794  0.00  0.00    +0.000 HD
ENDBRANCH  15  16
ENDBRANCH  11  15
ENDBRANCH   7  11
ENDBRANCH   1   9
BRANCH   5  18
ATOM     18  O   UNL     1       3.934   5.794  18.020  0.00  0.00    +0.000 OA
BRANCH  18  19
ATOM     19  C   UNL     1       3.025   4.911  18.563  0.00  0.00    +0.000 A 
ATOM     20  C   UNL     1       1.970   4.547  17.724  0.00  0.00    +0.000 A 
ATOM     21  C   UNL     1       1.036   3.600  18.142  0.00  0.00    +0.000 A 
ATOM     22  C   UNL     1       1.160   3.012  19.402  0.00  0.00    +0.000 A 
ATOM     23  C   UNL     1       2.183   3.412  20.270  0.00  0.00    +0.000 A 
ATOM     24  C   UNL     1       3.096   4.392  19.862  0.00  0.00    +0.000 A 
BRANCH  23  25
ATOM     25  C   UNL     1       2.330   2.685  21.558  0.00  0.00    +0.000 C 
ATOM     26  O   UNL     1       3.380   2.165  21.896  0.00  0.00    +0.000 OA
BRANCH  25  27
ATOM     27  O   UNL     1       1.219   2.651  22.320  0.00  0.00    +0.000 OA
ATOM     28  H   UNL     1       0.484   2.112  21.978  0.00  0.00    +0.000 HD
ENDBRANCH  25  27
ENDBRANCH  23  25
ENDBRANCH  18  19
ENDBRANCH   5  18
TORSDOF 9
ENDMDL
MODEL 6
REMARK VINA RESULT:      -7.1      1.639      2.440
REMARK  Name = 
REMARK  9 active torsions:
REMARK  status: ('A' for Active; 'I' for Inactive)
REMARK    1  A    between atoms: N_1  and  C_2
REMARK    2  A    between atoms: C_2  and  C_3
REMARK    3  A    between atoms: C_2  and  C_5
REMARK    4  A    between atoms: C_3  and  S_4
REMARK    5  A    between atoms: N_7  and  C_8
REMARK    6  A    between atoms: C_12  and  O_13
REMARK    7  A    between atoms: O_13  and  C_14
REMARK    8  A    between atoms: C_18  and  C_19
REMARK    9  A    between atoms: C_19  and  O_21
REMARK                            x       y       z     vdW  Elec       q    Type
REMARK                         _______ _______ _______ _____ _____    ______ ____
ROOT
ATOM      1  C   UNL     1       2.011   4.942  20.600  0.00  0.00    +0.000 A 
ATOM      2  C   UNL     1       2.102   3.867  21.491  0.00  0.00    +0.000 A 
ATOM      3  C   UNL     1       2.693   2.665  21.101  0.00  0.00    +0.000 A 
ATOM      4  C   UNL     1       3.247   2.547  19.831  0.00  0.00    +0.000 A 
ATOM      5  C   UNL     1       3.173   3.617  18.940  0.00  0.00    +0.000 A 
ATOM      6  C   UNL     1       2.475   4.779  19.296  0.00  0.00    +0.000 A 
ENDROOT
BRANCH   1   9
ATOM      7  C   UNL     1       1.774   7.403  20.328  0.00  0.00    +0.000 C 
ATOM      8  O   UNL     1       2.430   7.531  19.297  0.00  0.00    +0.000 OA
ATOM      9  N   UNL     1       1.511   6.204  20.977  0.00  0.00    +0.000 N 
ATOM     10  H   UNL     1       0.815   6.261  21.712  0.00  0.00    +0.000 HD
BRANCH   7  11
ATOM     11  C   UNL     1       1.067   8.608  20.976  0.00  0.00    +0.000 C 
BRANCH  11  12
ATOM     12  N   UNL     1       1.753   8.984  22.239  0.00  0.00    +0.000 NA
ATOM     13  H   UNL     1       2.138   8.122  22.641  0.00  0.00    +0.000 HD
ATOM     14  H   UNL     1       1.044   9.279  22.916  0.00  0.00    +0.000 HD
ENDBRANCH  11  12
BRANCH  11  15
ATOM     15  C   UNL     1       1.002   9.745  19.941  0.00  0.00    +0.000 C 
BRANCH  15  16
ATOM     16  S   UNL     1       0.568  11.347  20.696  0.00  0.00    +0.000 S 
ATOM     17  H   UNL     1       1.645  11.432  21.493  0.00  0.00    +0.000 HD
ENDBRANCH  15  16
ENDBRANCH  11  15
ENDBRANCH   7  11
ENDBRANCH   1   9
BRANCH   5  18
ATOM     18  O   UNL     1       3.802   3.426  17.729  0.00  0.00    +0.000 OA
BRANCH  18  19
ATOM     19  C   UNL     1       4.953   4.126  17.436  0.00  0.00    +0.000 A 
ATOM     20  C   UNL     1       5.206   4.319  16.077  0.00  0.00    +0.000 A 
ATOM     21  C   UNL     1       6.300   5.080  15.669  0.00  0.00    +0.000 A 
ATOM     22  C   UNL     1       7.143   5.653  16.622  0.00  0.00    +0.000 A 
ATOM     23  C   UNL     1       6.928   5.417  17.986  0.00  0.00    +0.000 A 
ATOM     24  C   UNL     1       5.851   4.619  18.391  0.00  0.00    +0.000 A 
BRANCH  23  25
ATOM     25  C   UNL     1       7.792   6.130  18.962  0.00  0.00    +0.000 C 
ATOM     26  O   UNL     1       8.349   7.181  18.693  0.00  0.00    +0.000 OA
BRANCH  25  27
ATOM     27  O   UNL     1       7.905   5.530  20.164  0.00  0.00    +0.000 OA
ATOM     28  H   UNL     1       7.619   6.057  20.931  0.00  0.00    +0.000 HD
ENDBRANCH  25  27
ENDBRANCH  23  25
ENDBRANCH  18  19
ENDBRANCH   5  18
TORSDOF 9
ENDMDL
MODEL 7
REMARK VINA RESULT:      -7.0      3.226      5.102
REMARK  Name = 
REMARK  9 active torsions:
REMARK  status: ('A' for Active; 'I' for Inactive)
REMARK    1  A    between atoms: N_1  and  C_2
REMARK    2  A    between atoms: C_2  and  C_3
REMARK    3  A    between atoms: C_2  and  C_5
REMARK    4  A    between atoms: C_3  and  S_4
REMARK    5  A    between atoms: N_7  and  C_8
REMARK    6  A    between atoms: C_12  and  O_13
REMARK    7  A    between atoms: O_13  and  C_14
REMARK    8  A    between atoms: C_18  and  C_19
REMARK    9  A    between atoms: C_19  and  O_21
REMARK                            x       y       z     vdW  Elec       q    Type
REMARK                         _______ _______ _______ _____ _____    ______ ____
ROOT
ATOM      1  C   UNL     1       4.473   4.725  18.125  0.00  0.00    +0.000 A 
ATOM      2  C   UNL     1       3.861   5.959  17.874  0.00  0.00    +0.000 A 
ATOM      3  C   UNL     1       4.424   6.864  16.975  0.00  0.00    +0.000 A 
ATOM      4  C   UNL     1       5.578   6.521  16.278  0.00  0.00    +0.000 A 
ATOM      5  C   UNL     1       6.188   5.289  16.513  0.00  0.00    +0.000 A 
ATOM      6  C   UNL     1       5.685   4.434  17.501  0.00  0.00    +0.000 A 
ENDROOT
BRANCH   1   9
ATOM      7  C   UNL     1       3.176   3.984  20.113  0.00  0.00    +0.000 C 
ATOM      8  O   UNL     1       2.892   5.092  20.562  0.00  0.00    +0.000 OA
ATOM      9  N   UNL     1       3.892   3.741  18.949  0.00  0.00    +0.000 N 
ATOM     10  H   UNL     1       3.886   2.776  18.638  0.00  0.00    +0.000 HD
BRANCH   7  11
ATOM     11  C   UNL     1       2.655   2.697  20.781  0.00  0.00    +0.000 C 
BRANCH  11  12
ATOM     12  N   UNL     1       1.803   3.037  21.950  0.00  0.00    +0.000 NA
ATOM     13  H   UNL     1       1.104   2.292  22.039  0.00  0.00    +0.000 HD
ATOM     14  H   UNL     1       1.252   3.867  21.717  0.00  0.00    +0.000 HD
ENDBRANCH  11  12
BRANCH  11  15
ATOM     15  C   UNL     1       1.937   1.853  19.713  0.00  0.00    +0.000 C 
BRANCH  15  16
ATOM     16  S   UNL     1       0.591   2.770  18.893  0.00  0.00    +0.000 S 
ATOM     17  H   UNL     1       0.019   3.231  20.017  0.00  0.00    +0.000 HD
ENDBRANCH  15  16
ENDBRANCH  11  15
ENDBRANCH   7  11
ENDBRANCH   1   9
BRANCH   5  18
ATOM     18  O   UNL     1       7.290   5.015  15.732  0.00  0.00    +0.000 OA
BRANCH  18  19
ATOM     19  C   UNL     1       7.138   4.803  14.379  0.00  0.00    +0.000 A 
ATOM     20  C   UNL     1       7.979   5.555  13.557  0.00  0.00    +0.000 A 
ATOM     21  C   UNL     1       7.965   5.363  12.176  0.00  0.00    +0.000 A 
ATOM     22  C   UNL     1       7.108   4.415  11.615  0.00  0.00    +0.000 A 
ATOM     23  C   UNL     1       6.222   3.697  12.428  0.00  0.00    +0.000 A 
ATOM     24  C   UNL     1       6.212   3.920  13.810  0.00  0.00    +0.000 A 
BRANCH  23  25
ATOM     25  C   UNL     1       5.404   2.629  11.795  0.00  0.00    +0.000 C 
ATOM     26  O   UNL     1       4.260   2.821  11.419  0.00  0.00    +0.000 OA
BRANCH  25  27
ATOM     27  O   UNL     1       6.027   1.441  11.663  0.00  0.00    +0.000 OA
ATOM     28  H   UNL     1       6.162   1.131  10.749  0.00  0.00    +0.000 HD
ENDBRANCH  25  27
ENDBRANCH  23  25
ENDBRANCH  18  19
ENDBRANCH   5  18
TORSDOF 9
ENDMDL
MODEL 8
REMARK VINA RESULT:      -6.9      2.348      3.647
REMARK  Name = 
REMARK  9 active torsions:
REMARK  status: ('A' for Active; 'I' for Inactive)
REMARK    1  A    between atoms: N_1  and  C_2
REMARK    2  A    between atoms: C_2  and  C_3
REMARK    3  A    between atoms: C_2  and  C_5
REMARK    4  A    between atoms: C_3  and  S_4
REMARK    5  A    between atoms: N_7  and  C_8
REMARK    6  A    between atoms: C_12  and  O_13
REMARK    7  A    between atoms: O_13  and  C_14
REMARK    8  A    between atoms: C_18  and  C_19
REMARK    9  A    between atoms: C_19  and  O_21
REMARK                            x       y       z     vdW  Elec       q    Type
REMARK                         _______ _______ _______ _____ _____    ______ ____
ROOT
ATOM      1  C   UNL     1       1.076   9.050  19.693  0.00  0.00    +0.000 A 
ATOM      2  C   UNL     1       1.322   9.470  18.381  0.00  0.00    +0.000 A 
ATOM      3  C   UNL     1       2.212   8.774  17.564  0.00  0.00    +0.000 A 
ATOM      4  C   UNL     1       2.825   7.618  18.036  0.00  0.00    +0.000 A 
ATOM      5  C   UNL     1       2.578   7.185  19.338  0.00  0.00    +0.000 A 
ATOM      6  C   UNL     1       1.775   7.952  20.192  0.00  0.00    +0.000 A 
ENDROOT
BRANCH   1   9
ATOM      7  C   UNL     1       0.323  10.796  21.296  0.00  0.00    +0.000 C 
ATOM      8  O   UNL     1       1.353  11.465  21.326  0.00  0.00    +0.000 OA
ATOM      9  N   UNL     1       0.116   9.662  20.521  0.00  0.00    +0.000 N 
ATOM     10  H   UNL     1      -0.844   9.338  20.490  0.00  0.00    +0.000 HD
BRANCH   7  11
ATOM     11  C   UNL     1      -0.930  11.229  22.080  0.00  0.00    +0.000 C 
BRANCH  11  12
ATOM     12  N   UNL     1      -0.774  10.891  23.519  0.00  0.00    +0.000 NA
ATOM     13  H   UNL     1      -1.696  10.598  23.861  0.00  0.00    +0.000 HD
ATOM     14  H   UNL     1      -0.582  11.754  24.034  0.00  0.00    +0.000 HD
ENDBRANCH  11  12
BRANCH  11  15
ATOM     15  C   UNL     1      -1.173  12.726  21.816  0.00  0.00    +0.000 C 
BRANCH  15  16
ATOM     16  S   UNL     1      -2.055  13.019  20.247  0.00  0.00    +0.000 S 
ATOM     17  H   UNL     1      -3.232  13.354  20.797  0.00  0.00    +0.000 HD
ENDBRANCH  15  16
ENDBRANCH  11  15
ENDBRANCH   7  11
ENDBRANCH   1   9
BRANCH   5  18
ATOM     18  O   UNL     1       3.184   6.000  19.694  0.00  0.00    +0.000 OA
BRANCH  18  19
ATOM     19  C   UNL     1       3.876   5.272  18.750  0.00  0.00    +0.000 A 
ATOM     20  C   UNL     1       3.115   4.356  18.022  0.00  0.00    +0.000 A 
ATOM     21  C   UNL     1       3.697   3.624  16.989  0.00  0.00    +0.000 A 
ATOM     22  C   UNL     1       5.045   3.810  16.679  0.00  0.00    +0.000 A 
ATOM     23  C   UNL     1       5.829   4.687  17.440  0.00  0.00    +0.000 A 
ATOM     24  C   UNL     1       5.250   5.391  18.503  0.00  0.00    +0.000 A 
BRANCH  23  25
ATOM     25  C   UNL     1       7.230   4.924  17.007  0.00  0.00    +0.000 C 
ATOM     26  O   UNL     1       8.149   4.197  17.345  0.00  0.00    +0.000 OA
BRANCH  25  27
ATOM     27  O   UNL     1       7.403   5.996  16.209  0.00  0.00    +0.000 OA
ATOM     28  H   UNL     1       6.622   6.565  16.085  0.00  0.00    +0.000 HD
ENDBRANCH  25  27
ENDBRANCH  23  25
ENDBRANCH  18  19
ENDBRANCH   5  18
TORSDOF 9
ENDMDL
MODEL 9
REMARK VINA RESULT:      -6.9      3.254      6.218
REMARK  Name = 
REMARK  9 active torsions:
REMARK  status: ('A' for Active; 'I' for Inactive)
REMARK    1  A    between atoms: N_1  and  C_2
REMARK    2  A    between atoms: C_2  and  C_3
REMARK    3  A    between atoms: C_2  and  C_5
REMARK    4  A    between atoms: C_3  and  S_4
REMARK    5  A    between atoms: N_7  and  C_8
REMARK    6  A    between atoms: C_12  and  O_13
REMARK    7  A    between atoms: O_13  and  C_14
REMARK    8  A    between atoms: C_18  and  C_19
REMARK    9  A    between atoms: C_19  and  O_21
REMARK                            x       y       z     vdW  Elec       q    Type
REMARK                         _______ _______ _______ _____ _____    ______ ____
ROOT
ATOM      1  C   UNL     1       3.902   3.479  18.648  0.00  0.00    +0.000 A 
ATOM      2  C   UNL     1       2.961   2.512  18.274  0.00  0.00    +0.000 A 
ATOM      3  C   UNL     1       1.695   2.487  18.857  0.00  0.00    +0.000 A 
ATOM      4  C   UNL     1       1.339   3.463  19.782  0.00  0.00    +0.000 A 
ATOM      5  C   UNL     1       2.265   4.437  20.152  0.00  0.00    +0.000 A 
ATOM      6  C   UNL     1       3.573   4.388  19.652  0.00  0.00    +0.000 A 
ENDROOT
BRANCH   1   9
ATOM      7  C   UNL     1       5.437   4.424  16.935  0.00  0.00    +0.000 C 
ATOM      8  O   UNL     1       4.651   5.205  16.404  0.00  0.00    +0.000 OA
ATOM      9  N   UNL     1       5.156   3.604  18.020  0.00  0.00    +0.000 N 
ATOM     10  H   UNL     1       5.965   3.155  18.434  0.00  0.00    +0.000 HD
BRANCH   7  11
ATOM     11  C   UNL     1       6.909   4.350  16.487  0.00  0.00    +0.000 C 
BRANCH  11  12
ATOM     12  N   UNL     1       7.168   5.347  15.416  0.00  0.00    +0.000 NA
ATOM     13  H   UNL     1       6.462   6.085  15.515  0.00  0.00    +0.000 HD
ATOM     14  H   UNL     1       6.949   4.916  14.514  0.00  0.00    +0.000 HD
ENDBRANCH  11  12
BRANCH  11  15
ATOM     15  C   UNL     1       7.803   4.524  17.727  0.00  0.00    +0.000 C 
BRANCH  15  16
ATOM     16  S   UNL     1       7.554   6.136  18.542  0.00  0.00    +0.000 S 
ATOM     17  H   UNL     1       6.486   5.772  19.269  0.00  0.00    +0.000 HD
ENDBRANCH  15  16
ENDBRANCH  11  15
ENDBRANCH   7  11
ENDBRANCH   1   9
BRANCH   5  18
ATOM     18  O   UNL     1       1.801   5.394  21.028  0.00  0.00    +0.000 OA
BRANCH  18  19
ATOM     19  C   UNL     1       1.568   6.678  20.582  0.00  0.00    +0.000 A 
ATOM     20  C   UNL     1       0.931   7.522  21.493  0.00  0.00    +0.000 A 
ATOM     21  C   UNL     1       0.717   8.862  21.176  0.00  0.00    +0.000 A 
ATOM     22  C   UNL     1       1.143   9.361  19.944  0.00  0.00    +0.000 A 
ATOM     23  C   UNL     1       1.732   8.508  19.003  0.00  0.00    +0.000 A 
ATOM     24  C   UNL     1       1.910   7.154  19.310  0.00  0.00    +0.000 A 
BRANCH  23  25
ATOM     25  C   UNL     1       2.258   9.109  17.750  0.00  0.00    +0.000 C 
ATOM     26  O   UNL     1       2.992   8.498  16.992  0.00  0.00    +0.000 OA
BRANCH  25  27
ATOM     27  O   UNL     1       1.856  10.374  17.515  0.00  0.00    +0.000 OA
ATOM     28  H   UNL     1       1.679  10.918  18.304  0.00  0.00    +0.000 HD
ENDBRANCH  25  27
ENDBRANCH  23  25
ENDBRANCH  18  19
ENDBRANCH   5  18
TORSDOF 9
ENDMDL
