MODEL 1
REMARK VINA RESULT:      -8.5      0.000      0.000
REMARK  Name = 
REMARK  8 active torsions:
REMARK  status: ('A' for Active; 'I' for Inactive)
REMARK    1  A    between atoms: O5*_1  and  C5*_2
REMARK    2  A    between atoms: C5*_2  and  C4*_3
REMARK    3  A    between atoms: C1*_5  and  N_6
REMARK    4  A    between atoms: N_11  and  C_12
REMARK    5  A    between atoms: C_12  and  C_13
REMARK    6  A    between atoms: C_13  and  C_14
REMARK    7  A    between atoms: C2*_24  and  O2*_25
REMARK    8  A    between atoms: C3*_26  and  O3*_27
REMARK                            x       y       z     vdW  Elec       q    Type
REMARK                         _______ _______ _______ _____ _____    ______ ____
ROOT
ATOM      1  N   UNL     1       4.731   4.298  18.575  0.00  0.00    +0.000 N 
ATOM      2  C   UNL     1       5.598   4.264  19.637  0.00  0.00    +0.000 A 
ATOM      3  N   UNL     1       6.590   5.113  19.492  0.00  0.00    +0.000 NA
ATOM      4  C   UNL     1       6.342   5.748  18.293  0.00  0.00    +0.000 A 
ATOM      5  C   UNL     1       6.957   6.838  17.650  0.00  0.00    +0.000 A 
ATOM      6  N   UNL     1       7.992   7.539  18.249  0.00  0.00    +0.000 N 
ATOM      7  N   UNL     1       6.431   7.259  16.469  0.00  0.00    +0.000 NA
ATOM      8  C   UNL     1       5.354   6.620  15.972  0.00  0.00    +0.000 A 
ATOM      9  N   UNL     1       4.659   5.606  16.521  0.00  0.00    +0.000 NA
ATOM     10  C   UNL     1       5.203   5.225  17.689  0.00  0.00    +0.000 A 
ATOM     11  H   UNL     1       8.785   6.960  18.497  0.00  0.00    +0.000 HD
ENDROOT
BRANCH   1  14
ATOM     12  C4* UNL     1       1.579   3.495  19.825  0.00  0.00    +0.000 C 
ATOM     13  O4* UNL     1       2.410   4.338  18.997  0.00  0.00    +0.000 OA
ATOM     14  C1* UNL     1       3.501   3.541  18.489  0.00  0.00    +0.000 C 
ATOM     15  C2* UNL     1       3.501   2.206  19.237  0.00  0.00    +0.000 C 
ATOM     16  C3* UNL     1       2.024   2.055  19.566  0.00  0.00    +0.000 C 
BRANCH  15  17
ATOM     17  O2* UNL     1       3.963   1.125  18.423  0.00  0.00    +0.000 OA
ATOM     18  H2* UNL     1       3.789   0.308  18.941  0.00  0.00    +0.000 HD
ENDBRANCH  15  17
BRANCH  16  19
ATOM     19  O3* UNL     1       1.388   1.499  18.393  0.00  0.00    +0.000 OA
ATOM     20  H3* UNL     1       0.607   2.039  18.171  0.00  0.00    +0.000 HD
ENDBRANCH  16  19
BRANCH  12  21
ATOM     21  C5* UNL     1       1.700   3.920  21.290  0.00  0.00    +0.000 C 
BRANCH  21  22
ATOM     22  O5* UNL     1       2.334   5.190  21.376  0.00  0.00    +0.000 OA
ATOM     23  H5* UNL     1       2.856   5.303  20.561  0.00  0.00    +0.000 HD
ENDBRANCH  21  22
ENDBRANCH  12  21
ENDBRANCH   1  14
BRANCH   6  24
ATOM     24  C   UNL     1       8.229   8.917  17.850  0.00  0.00    +0.000 C 
BRANCH  24  25
ATOM     25  C   UNL     1       8.998   9.652  18.957  0.00  0.00    +0.000 C 
BRANCH  25  26
ATOM     26  C   UNL     1       9.573  10.960  18.494  0.00  0.00    +0.000 A 
ATOM     27  C   UNL     1      10.944  11.194  18.576  0.00  0.00    +0.000 A 
ATOM     28  C   UNL     1      11.450  12.392  18.084  0.00  0.00    +0.000 A 
ATOM     29  C   UNL     1      10.580  13.317  17.522  0.00  0.00    +0.000 A 
ATOM     30  C   UNL     1       9.232  13.006  17.479  0.00  0.00    +0.000 A 
ATOM     31  N   UNL     1       8.712  11.855  17.953  0.00  0.00    +0.000 NA
ENDBRANCH  25  26
ENDBRANCH  24  25
ENDBRANCH   6  24
TORSDOF 8
ENDMDL
MODEL 2
REMARK VINA RESULT:      -8.4      0.768      1.075
REMARK  Name = 
REMARK  8 active torsions:
REMARK  status: ('A' for Active; 'I' for Inactive)
REMARK    1  A    between atoms: O5*_1  and  C5*_2
REMARK    2  A    between atoms: C5*_2  and  C4*_3
REMARK    3  A    between atoms: C1*_5  and  N_6
REMARK    4  A    between atoms: N_11  and  C_12
REMARK    5  A    between atoms: C_12  and  C_13
REMARK    6  A    between atoms: C_13  and  C_14
REMARK    7  A    between atoms: C2*_24  and  O2*_25
REMARK    8  A    between atoms: C3*_26  and  O3*_27
REMARK                            x       y       z     vdW  Elec       q    Type
REMARK                         _______ _______ _______ _____ _____    ______ ____
ROOT
ATOM      1  N   UNL     1       4.680   4.293  18.612  0.00  0.00    +0.000 N 
ATOM      2  C   UNL     1       5.573   4.236  19.651  0.00  0.00    +0.000 A 
ATOM      3  N   UNL     1       6.571   5.076  19.490  0.00  0.00    +0.000 NA
ATOM      4  C   UNL     1       6.301   5.727  18.304  0.00  0.00    +0.000 A 
ATOM      5  C   UNL     1       6.911   6.816  17.657  0.00  0.00    +0.000 A 
ATOM      6  N   UNL     1       7.970   7.499  18.237  0.00  0.00    +0.000 N 
ATOM      7  N   UNL     1       6.360   7.255  16.494  0.00  0.00    +0.000 NA
ATOM      8  C   UNL     1       5.264   6.634  16.019  0.00  0.00    +0.000 A 
ATOM      9  N   UNL     1       4.571   5.623  16.575  0.00  0.00    +0.000 NA
ATOM     10  C   UNL     1       5.140   5.223  17.725  0.00  0.00    +0.000 A 
ATOM     11  H   UNL     1       8.763   6.907  18.458  0.00  0.00    +0.000 HD
ENDROOT
BRANCH   1  14
ATOM     12  C4* UNL     1       1.634   3.368  20.030  0.00  0.00    +0.000 C 
ATOM     13  O4* UNL     1       2.402   4.291  19.228  0.00  0.00    +0.000 OA
ATOM     14  C1* UNL     1       3.439   3.551  18.550  0.00  0.00    +0.000 C 
ATOM     15  C2* UNL     1       3.487   2.144  19.152  0.00  0.00    +0.000 C 
ATOM     16  C3* UNL     1       2.040   1.962  19.585  0.00  0.00    +0.000 C 
BRANCH  15  17
ATOM     17  O2* UNL     1       3.869   1.154  18.194  0.00  0.00    +0.000 OA
ATOM     18  H2* UNL     1       3.068   0.604  18.046  0.00  0.00    +0.000 HD
ENDBRANCH  15  17
BRANCH  16  19
ATOM     19  O3* UNL     1       1.305   1.533  18.417  0.00  0.00    +0.000 OA
ATOM     20  H3* UNL     1       0.840   2.302  18.037  0.00  0.00    +0.000 HD
ENDBRANCH  16  19
BRANCH  12  21
ATOM     21  C5* UNL     1       1.879   3.636  21.515  0.00  0.00    +0.000 C 
BRANCH  21  22
ATOM     22  O5* UNL     1       2.523   2.516  22.110  0.00  0.00    +0.000 OA
ATOM     23  H5* UNL     1       1.944   1.746  21.969  0.00  0.00    +0.000 HD
ENDBRANCH  21  22
ENDBRANCH  12  21
ENDBRANCH   1  14
BRANCH   6  24
ATOM     24  C   UNL     1       8.213   8.877  17.845  0.00  0.00    +0.000 C 
BRANCH  24  25
ATOM     25  C   UNL     1       8.942   9.616  18.977  0.00  0.00    +0.000 C 
BRANCH  25  26
ATOM     26  C   UNL     1       9.511  10.934  18.538  0.00  0.00    +0.000 A 
ATOM     27  C   UNL     1       8.718  11.848  17.849  0.00  0.00    +0.000 A 
ATOM     28  C   UNL     1       9.259  13.084  17.509  0.00  0.00    +0.000 A 
ATOM     29  C   UNL     1      10.568  13.374  17.869  0.00  0.00    +0.000 A 
ATOM     30  C   UNL     1      11.288  12.409  18.552  0.00  0.00    +0.000 A 
ATOM     31  N   UNL     1      10.792  11.201  18.891  0.00  0.00    +0.000 NA
ENDBRANCH  25  26
ENDBRANCH  24  25
ENDBRANCH   6  24
TORSDOF 8
ENDMDL
MODEL 3
REMARK VINA RESULT:      -7.8      0.941      1.009
REMARK  Name = 
REMARK  8 active torsions:
REMARK  status: ('A' for Active; 'I' for Inactive)
REMARK    1  A    between atoms: O5*_1  and  C5*_2
REMARK    2  A    between atoms: C5*_2  and  C4*_3
REMARK    3  A    between atoms: C1*_5  and  N_6
REMARK    4  A    between atoms: N_11  and  C_12
REMARK    5  A    between atoms: C_12  and  C_13
REMARK    6  A    between atoms: C_13  and  C_14
REMARK    7  A    between atoms: C2*_24  and  O2*_25
REMARK    8  A    between atoms: C3*_26  and  O3*_27
REMARK                            x       y       z     vdW  Elec       q    Type
REMARK                         _______ _______ _______ _____ _____    ______ ____
ROOT
ATOM      1  N   UNL     1       4.596   4.387  18.392  0.00  0.00    +0.000 N 
ATOM      2  C   UNL     1       4.969   4.795  19.647  0.00  0.00    +0.000 A 
ATOM      3  N   UNL     1       6.021   5.581  19.619  0.00  0.00    +0.000 NA
ATOM      4  C   UNL     1       6.331   5.712  18.281  0.00  0.00    +0.000 A 
ATOM      5  C   UNL     1       7.260   6.515  17.595  0.00  0.00    +0.000 A 
ATOM      6  N   UNL     1       8.045   7.443  18.263  0.00  0.00    +0.000 N 
ATOM      7  N   UNL     1       7.286   6.439  16.238  0.00  0.00    +0.000 NA
ATOM      8  C   UNL     1       6.430   5.606  15.617  0.00  0.00    +0.000 A 
ATOM      9  N   UNL     1       5.472   4.834  16.164  0.00  0.00    +0.000 NA
ATOM     10  C   UNL     1       5.472   4.942  17.503  0.00  0.00    +0.000 A 
ATOM     11  H   UNL     1       8.612   7.039  18.999  0.00  0.00    +0.000 HD
ENDROOT
BRANCH   1  14
ATOM     12  C4* UNL     1       1.282   3.525  19.036  0.00  0.00    +0.000 C 
ATOM     13  O4* UNL     1       2.237   4.366  18.354  0.00  0.00    +0.000 OA
ATOM     14  C1* UNL     1       3.426   3.589  18.098  0.00  0.00    +0.000 C 
ATOM     15  C2* UNL     1       3.314   2.279  18.882  0.00  0.00    +0.000 C 
ATOM     16  C3* UNL     1       1.804   2.092  18.923  0.00  0.00    +0.000 C 
BRANCH  15  17
ATOM     17  O2* UNL     1       3.952   1.187  18.214  0.00  0.00    +0.000 OA
ATOM     18  H2* UNL     1       3.397   0.996  17.427  0.00  0.00    +0.000 HD
ENDBRANCH  15  17
BRANCH  16  19
ATOM     19  O3* UNL     1       1.425   1.478  17.671  0.00  0.00    +0.000 OA
ATOM     20  H3* UNL     1       0.784   0.765  17.851  0.00  0.00    +0.000 HD
ENDBRANCH  16  19
BRANCH  12  21
ATOM     21  C5* UNL     1       1.103   4.000  20.479  0.00  0.00    +0.000 C 
BRANCH  21  22
ATOM     22  O5* UNL     1       0.841   2.888  21.327  0.00  0.00    +0.000 OA
ATOM     23  H5* UNL     1      -0.124   2.753  21.329  0.00  0.00    +0.000 HD
ENDBRANCH  21  22
ENDBRANCH  12  21
ENDBRANCH   1  14
BRANCH   6  24
ATOM     24  C   UNL     1       8.563   8.583  17.526  0.00  0.00    +0.000 C 
BRANCH  24  25
ATOM     25  C   UNL     1       7.959   9.879  18.087  0.00  0.00    +0.000 C 
BRANCH  25  26
ATOM     26  C   UNL     1       8.996  10.926  18.375  0.00  0.00    +0.000 A 
ATOM     27  C   UNL     1      10.023  10.668  19.281  0.00  0.00    +0.000 A 
ATOM     28  C   UNL     1      11.000  11.637  19.480  0.00  0.00    +0.000 A 
ATOM     29  C   UNL     1      10.929  12.829  18.771  0.00  0.00    +0.000 A 
ATOM     30  C   UNL     1       9.876  13.006  17.891  0.00  0.00    +0.000 A 
ATOM     31  N   UNL     1       8.911  12.086  17.681  0.00  0.00    +0.000 NA
ENDBRANCH  25  26
ENDBRANCH  24  25
ENDBRANCH   6  24
TORSDOF 8
ENDMDL
MODEL 4
REMARK VINA RESULT:      -7.8      5.194      7.482
REMARK  Name = 
REMARK  8 active torsions:
REMARK  status: ('A' for Active; 'I' for Inactive)
REMARK    1  A    between atoms: O5*_1  and  C5*_2
REMARK    2  A    between atoms: C5*_2  and  C4*_3
REMARK    3  A    between atoms: C1*_5  and  N_6
REMARK    4  A    between atoms: N_11  and  C_12
REMARK    5  A    between atoms: C_12  and  C_13
REMARK    6  A    between atoms: C_13  and  C_14
REMARK    7  A    between atoms: C2*_24  and  O2*_25
REMARK    8  A    between atoms: C3*_26  and  O3*_27
REMARK                            x       y       z     vdW  Elec       q    Type
REMARK                         _______ _______ _______ _____ _____    ______ ____
ROOT
ATOM      1  N   UNL     1       0.974   9.305  19.291  0.00  0.00    +0.000 N 
ATOM      2  C   UNL     1       1.438   9.634  18.044  0.00  0.00    +0.000 A 
ATOM      3  N   UNL     1       2.270   8.732  17.573  0.00  0.00    +0.000 NA
ATOM      4  C   UNL     1       2.328   7.759  18.548  0.00  0.00    +0.000 A 
ATOM      5  C   UNL     1       2.933   6.489  18.588  0.00  0.00    +0.000 A 
ATOM      6  N   UNL     1       3.585   5.965  17.482  0.00  0.00    +0.000 N 
ATOM      7  N   UNL     1       2.762   5.739  19.709  0.00  0.00    +0.000 NA
ATOM      8  C   UNL     1       2.027   6.239  20.721  0.00  0.00    +0.000 A 
ATOM      9  N   UNL     1       1.366   7.410  20.772  0.00  0.00    +0.000 NA
ATOM     10  C   UNL     1       1.552   8.119  19.645  0.00  0.00    +0.000 A 
ATOM     11  H   UNL     1       4.337   6.551  17.139  0.00  0.00    +0.000 HD
ENDROOT
BRANCH   1  14
ATOM     12  C4* UNL     1      -1.219  12.003  19.522  0.00  0.00    +0.000 C 
ATOM     13  O4* UNL     1      -0.959  10.645  19.103  0.00  0.00    +0.000 OA
ATOM     14  C1* UNL     1      -0.019  10.057  20.027  0.00  0.00    +0.000 C 
ATOM     15  C2* UNL     1       0.534  11.175  20.916  0.00  0.00    +0.000 C 
ATOM     16  C3* UNL     1      -0.639  12.144  20.930  0.00  0.00    +0.000 C 
BRANCH  15  17
ATOM     17  O2* UNL     1       0.844  10.719  22.235  0.00  0.00    +0.000 OA
ATOM     18  H2* UNL     1       0.171  10.035  22.446  0.00  0.00    +0.000 HD
ENDBRANCH  15  17
BRANCH  16  19
ATOM     19  O3* UNL     1      -1.559  11.674  21.941  0.00  0.00    +0.000 OA
ATOM     20  H3* UNL     1      -1.674  12.372  22.611  0.00  0.00    +0.000 HD
ENDBRANCH  16  19
BRANCH  12  21
ATOM     21  C5* UNL     1      -0.624  12.985  18.512  0.00  0.00    +0.000 C 
BRANCH  21  22
ATOM     22  O5* UNL     1      -1.118  12.700  17.209  0.00  0.00    +0.000 OA
ATOM     23  H5* UNL     1      -0.666  11.894  16.902  0.00  0.00    +0.000 HD
ENDBRANCH  21  22
ENDBRANCH  12  21
ENDBRANCH   1  14
BRANCH   6  24
ATOM     24  C   UNL     1       3.712   4.522  17.362  0.00  0.00    +0.000 C 
BRANCH  24  25
ATOM     25  C   UNL     1       5.132   4.163  16.903  0.00  0.00    +0.000 C 
BRANCH  25  26
ATOM     26  C   UNL     1       6.181   5.048  17.512  0.00  0.00    +0.000 A 
ATOM     27  C   UNL     1       6.742   6.086  16.772  0.00  0.00    +0.000 A 
ATOM     28  C   UNL     1       7.667   6.923  17.387  0.00  0.00    +0.000 A 
ATOM     29  C   UNL     1       8.001   6.707  18.717  0.00  0.00    +0.000 A 
ATOM     30  C   UNL     1       7.397   5.653  19.380  0.00  0.00    +0.000 A 
ATOM     31  N   UNL     1       6.501   4.821  18.809  0.00  0.00    +0.000 NA
ENDBRANCH  25  26
ENDBRANCH  24  25
ENDBRANCH   6  24
TORSDOF 8
ENDMDL
MODEL 5
REMARK VINA RESULT:      -7.7      1.593      2.209
REMARK  Name = 
REMARK  8 active torsions:
REMARK  status: ('A' for Active; 'I' for Inactive)
REMARK    1  A    between atoms: O5*_1  and  C5*_2
REMARK    2  A    between atoms: C5*_2  and  C4*_3
REMARK    3  A    between atoms: C1*_5  and  N_6
REMARK    4  A    between atoms: N_11  and  C_12
REMARK    5  A    between atoms: C_12  and  C_13
REMARK    6  A    between atoms: C_13  and  C_14
REMARK    7  A    between atoms: C2*_24  and  O2*_25
REMARK    8  A    between atoms: C3*_26  and  O3*_27
REMARK                            x       y       z     vdW  Elec       q    Type
REMARK                         _______ _______ _______ _____ _____    ______ ____
ROOT
ATOM      1  N   UNL     1       4.886   4.846  17.746  0.00  0.00    +0.000 N 
ATOM      2  C   UNL     1       4.203   5.853  17.113  0.00  0.00    +0.000 A 
ATOM      3  N   UNL     1       4.840   7.000  17.184  0.00  0.00    +0.000 NA
ATOM      4  C   UNL     1       6.002   6.720  17.871  0.00  0.00    +0.000 A 
ATOM      5  C   UNL     1       7.147   7.487  18.154  0.00  0.00    +0.000 A 
ATOM      6  N   UNL     1       7.292   8.776  17.662  0.00  0.00    +0.000 N 
ATOM      7  N   UNL     1       8.163   6.888  18.831  0.00  0.00    +0.000 NA
ATOM      8  C   UNL     1       8.029   5.599  19.196  0.00  0.00    +0.000 A 
ATOM      9  N   UNL     1       7.008   4.760  18.938  0.00  0.00    +0.000 NA
ATOM     10  C   UNL     1       6.030   5.385  18.261  0.00  0.00    +0.000 A 
ATOM     11  H   UNL     1       6.542   9.401  17.932  0.00  0.00    +0.000 HD
ENDROOT
BRANCH   1  14
ATOM     12  C4* UNL     1       2.380   2.426  17.658  0.00  0.00    +0.000 C 
ATOM     13  O4* UNL     1       3.294   3.293  16.954  0.00  0.00    +0.000 OA
ATOM     14  C1* UNL     1       4.479   3.457  17.762  0.00  0.00    +0.000 C 
ATOM     15  C2* UNL     1       4.190   2.876  19.149  0.00  0.00    +0.000 C 
ATOM     16  C3* UNL     1       3.171   1.800  18.808  0.00  0.00    +0.000 C 
BRANCH  15  17
ATOM     17  O2* UNL     1       5.355   2.311  19.757  0.00  0.00    +0.000 OA
ATOM     18  H2* UNL     1       6.088   2.932  19.554  0.00  0.00    +0.000 HD
ENDBRANCH  15  17
BRANCH  16  19
ATOM     19  O3* UNL     1       3.916   0.638  18.379  0.00  0.00    +0.000 OA
ATOM     20  H3* UNL     1       3.906  -0.025  19.095  0.00  0.00    +0.000 HD
ENDBRANCH  16  19
BRANCH  12  21
ATOM     21  C5* UNL     1       1.155   3.219  18.117  0.00  0.00    +0.000 C 
BRANCH  21  22
ATOM     22  O5* UNL     1       1.019   4.398  17.333  0.00  0.00    +0.000 OA
ATOM     23  H5* UNL     1       0.264   4.895  17.695  0.00  0.00    +0.000 HD
ENDBRANCH  21  22
ENDBRANCH  12  21
ENDBRANCH   1  14
BRANCH   6  24
ATOM     24  C   UNL     1       8.632   9.318  17.501  0.00  0.00    +0.000 C 
BRANCH  24  25
ATOM     25  C   UNL     1       9.046  10.060  18.780  0.00  0.00    +0.000 C 
BRANCH  25  26
ATOM     26  C   UNL     1       9.911  11.256  18.503  0.00  0.00    +0.000 A 
ATOM     27  C   UNL     1      11.186  11.345  19.056  0.00  0.00    +0.000 A 
ATOM     28  C   UNL     1      11.983  12.438  18.731  0.00  0.00    +0.000 A 
ATOM     29  C   UNL     1      11.490  13.404  17.864  0.00  0.00    +0.000 A 
ATOM     30  C   UNL     1      10.211  13.240  17.359  0.00  0.00    +0.000 A 
ATOM     31  N   UNL     1       9.414  12.193  17.660  0.00  0.00    +0.000 NA
ENDBRANCH  25  26
ENDBRANCH  24  25
ENDBRANCH   6  24
TORSDOF 8
ENDMDL
MODEL 6
REMARK VINA RESULT:      -7.7      4.196      6.611
REMARK  Name = 
REMARK  8 active torsions:
REMARK  status: ('A' for Active; 'I' for Inactive)
REMARK    1  A    between atoms: O5*_1  and  C5*_2
REMARK    2  A    between atoms: C5*_2  and  C4*_3
REMARK    3  A    between atoms: C1*_5  and  N_6
REMARK    4  A    between atoms: N_11  and  C_12
REMARK    5  A    between atoms: C_12  and  C_13
REMARK    6  A    between atoms: C_13  and  C_14
REMARK    7  A    between atoms: C2*_24  and  O2*_25
REMARK    8  A    between atoms: C3*_26  and  O3*_27
REMARK                            x       y       z     vdW  Elec       q    Type
REMARK                         _______ _______ _______ _____ _____    ______ ____
ROOT
ATOM      1  N   UNL     1       4.073   4.545  18.445  0.00  0.00    +0.000 N 
ATOM      2  C   UNL     1       3.312   4.934  17.373  0.00  0.00    +0.000 A 
ATOM      3  N   UNL     1       4.052   5.301  16.351  0.00  0.00    +0.000 NA
ATOM      4  C   UNL     1       5.353   5.117  16.769  0.00  0.00    +0.000 A 
ATOM      5  C   UNL     1       6.588   5.204  16.101  0.00  0.00    +0.000 A 
ATOM      6  N   UNL     1       6.655   5.465  14.740  0.00  0.00    +0.000 N 
ATOM      7  N   UNL     1       7.714   4.911  16.804  0.00  0.00    +0.000 NA
ATOM      8  C   UNL     1       7.598   4.553  18.097  0.00  0.00    +0.000 A 
ATOM      9  N   UNL     1       6.475   4.389  18.820  0.00  0.00    +0.000 NA
ATOM     10  C   UNL     1       5.384   4.679  18.089  0.00  0.00    +0.000 A 
ATOM     11  H   UNL     1       6.202   6.331  14.470  0.00  0.00    +0.000 HD
ENDROOT
BRANCH   1  14
ATOM     12  C4* UNL     1       2.032   2.278  20.130  0.00  0.00    +0.000 C 
ATOM     13  O4* UNL     1       3.306   2.593  19.527  0.00  0.00    +0.000 OA
ATOM     14  C1* UNL     1       3.544   4.009  19.681  0.00  0.00    +0.000 C 
ATOM     15  C2* UNL     1       2.247   4.656  20.173  0.00  0.00    +0.000 C 
ATOM     16  C3* UNL     1       1.621   3.505  20.946  0.00  0.00    +0.000 C 
BRANCH  15  17
ATOM     17  O2* UNL     1       2.488   5.780  21.024  0.00  0.00    +0.000 OA
ATOM     18  H2* UNL     1       2.145   5.522  21.908  0.00  0.00    +0.000 HD
ENDBRANCH  15  17
BRANCH  16  19
ATOM     19  O3* UNL     1       2.223   3.506  22.259  0.00  0.00    +0.000 OA
ATOM     20  H3* UNL     1       2.121   4.393  22.653  0.00  0.00    +0.000 HD
ENDBRANCH  16  19
BRANCH  12  21
ATOM     21  C5* UNL     1       1.021   1.894  19.049  0.00  0.00    +0.000 C 
BRANCH  21  22
ATOM     22  O5* UNL     1       1.677   1.777  17.792  0.00  0.00    +0.000 OA
ATOM     23  H5* UNL     1       0.999   1.906  17.104  0.00  0.00    +0.000 HD
ENDBRANCH  21  22
ENDBRANCH  12  21
ENDBRANCH   1  14
BRANCH   6  24
ATOM     24  C   UNL     1       7.827   5.027  14.000  0.00  0.00    +0.000 C 
BRANCH  24  25
ATOM     25  C   UNL     1       7.530   5.064  12.493  0.00  0.00    +0.000 C 
BRANCH  25  26
ATOM     26  C   UNL     1       6.894   3.798  11.996  0.00  0.00    +0.000 A 
ATOM     27  C   UNL     1       7.681   2.774  11.473  0.00  0.00    +0.000 A 
ATOM     28  C   UNL     1       7.065   1.591  11.076  0.00  0.00    +0.000 A 
ATOM     29  C   UNL     1       5.690   1.461  11.217  0.00  0.00    +0.000 A 
ATOM     30  C   UNL     1       4.982   2.527  11.746  0.00  0.00    +0.000 A 
ATOM     31  N   UNL     1       5.551   3.687  12.134  0.00  0.00    +0.000 NA
ENDBRANCH  25  26
ENDBRANCH  24  25
ENDBRANCH   6  24
TORSDOF 8
ENDMDL
MODEL 7
REMARK VINA RESULT:      -7.6      1.638      2.375
REMARK  Name = 
REMARK  8 active torsions:
REMARK  status: ('A' for Active; 'I' for Inactive)
REMARK    1  A    between atoms: O5*_1  and  C5*_2
REMARK    2  A    between atoms: C5*_2  and  C4*_3
REMARK    3  A    between atoms: C1*_5  and  N_6
REMARK    4  A    between atoms: N_11  and  C_12
REMARK    5  A    between atoms: C_12  and  C_13
REMARK    6  A    between atoms: C_13  and  C_14
REMARK    7  A    between atoms: C2*_24  and  O2*_25
REMARK    8  A    between atoms: C3*_26  and  O3*_27
REMARK                            x       y       z     vdW  Elec       q    Type
REMARK                         _______ _______ _______ _____ _____    ______ ____
ROOT
ATOM      1  N   UNL     1       4.785   4.859  17.813  0.00  0.00    +0.000 N 
ATOM      2  C   UNL     1       4.105   5.886  17.210  0.00  0.00    +0.000 A 
ATOM      3  N   UNL     1       4.765   7.020  17.275  0.00  0.00    +0.000 NA
ATOM      4  C   UNL     1       5.941   6.711  17.927  0.00  0.00    +0.000 A 
ATOM      5  C   UNL     1       7.107   7.452  18.186  0.00  0.00    +0.000 A 
ATOM      6  N   UNL     1       7.264   8.744  17.704  0.00  0.00    +0.000 N 
ATOM      7  N   UNL     1       8.129   6.827  18.828  0.00  0.00    +0.000 NA
ATOM      8  C   UNL     1       7.981   5.536  19.183  0.00  0.00    +0.000 A 
ATOM      9  N   UNL     1       6.938   4.720  18.944  0.00  0.00    +0.000 NA
ATOM     10  C   UNL     1       5.953   5.371  18.302  0.00  0.00    +0.000 A 
ATOM     11  H   UNL     1       6.533   9.379  18.002  0.00  0.00    +0.000 HD
ENDROOT
BRANCH   1  14
ATOM     12  C4* UNL     1       2.231   2.489  17.802  0.00  0.00    +0.000 C 
ATOM     13  O4* UNL     1       3.129   3.351  17.070  0.00  0.00    +0.000 OA
ATOM     14  C1* UNL     1       4.353   3.478  17.825  0.00  0.00    +0.000 C 
ATOM     15  C2* UNL     1       4.116   2.879  19.214  0.00  0.00    +0.000 C 
ATOM     16  C3* UNL     1       3.061   1.828  18.903  0.00  0.00    +0.000 C 
BRANCH  15  17
ATOM     17  O2* UNL     1       5.296   2.282  19.758  0.00  0.00    +0.000 OA
ATOM     18  H2* UNL     1       5.979   2.988  19.751  0.00  0.00    +0.000 HD
ENDBRANCH  15  17
BRANCH  16  19
ATOM     19  O3* UNL     1       3.763   0.660  18.421  0.00  0.00    +0.000 OA
ATOM     20  H3* UNL     1       3.248  -0.135  18.655  0.00  0.00    +0.000 HD
ENDBRANCH  16  19
BRANCH  12  21
ATOM     21  C5* UNL     1       1.044   3.297  18.329  0.00  0.00    +0.000 C 
BRANCH  21  22
ATOM     22  O5* UNL     1       0.546   2.704  19.522  0.00  0.00    +0.000 OA
ATOM     23  H5* UNL     1      -0.111   2.036  19.255  0.00  0.00    +0.000 HD
ENDBRANCH  21  22
ENDBRANCH  12  21
ENDBRANCH   1  14
BRANCH   6  24
ATOM     24  C   UNL     1       8.608   9.262  17.513  0.00  0.00    +0.000 C 
BRANCH  24  25
ATOM     25  C   UNL     1       8.608  10.785  17.706  0.00  0.00    +0.000 C 
BRANCH  25  26
ATOM     26  C   UNL     1       9.806  11.274  18.467  0.00  0.00    +0.000 A 
ATOM     27  C   UNL     1       9.786  11.318  19.859  0.00  0.00    +0.000 A 
ATOM     28  C   UNL     1      10.933  11.720  20.534  0.00  0.00    +0.000 A 
ATOM     29  C   UNL     1      12.066  12.060  19.807  0.00  0.00    +0.000 A 
ATOM     30  C   UNL     1      12.002  11.989  18.426  0.00  0.00    +0.000 A 
ATOM     31  N   UNL     1      10.902  11.608  17.744  0.00  0.00    +0.000 NA
ENDBRANCH  25  26
ENDBRANCH  24  25
ENDBRANCH   6  24
TORSDOF 8
ENDMDL
MODEL 8
REMARK VINA RESULT:      -7.5      1.525      2.269
REMARK  Name = 
REMARK  8 active torsions:
REMARK  status: ('A' for Active; 'I' for Inactive)
REMARK    1  A    between atoms: O5*_1  and  C5*_2
REMARK    2  A    between atoms: C5*_2  and  C4*_3
REMARK    3  A    between atoms: C1*_5  and  N_6
REMARK    4  A    between atoms: N_11  and  C_12
REMARK    5  A    between atoms: C_12  and  C_13
REMARK    6  A    between atoms: C_13  and  C_14
REMARK    7  A    between atoms: C2*_24  and  O2*_25
REMARK    8  A    between atoms: C3*_26  and  O3*_27
REMARK                            x       y       z     vdW  Elec       q    Type
REMARK                         _______ _______ _______ _____ _____    ______ ____
ROOT
ATOM      1  N   UNL     1       4.761   4.792  17.752  0.00  0.00    +0.000 N 
ATOM      2  C   UNL     1       4.090   5.796  17.104  0.00  0.00    +0.000 A 
ATOM      3  N   UNL     1       4.745   6.934  17.145  0.00  0.00    +0.000 NA
ATOM      4  C   UNL     1       5.909   6.650  17.829  0.00  0.00    +0.000 A 
ATOM      5  C   UNL     1       7.068   7.404  18.087  0.00  0.00    +0.000 A 
ATOM      6  N   UNL     1       7.230   8.680  17.567  0.00  0.00    +0.000 N 
ATOM      7  N   UNL     1       8.079   6.803  18.768  0.00  0.00    +0.000 NA
ATOM      8  C   UNL     1       7.928   5.525  19.162  0.00  0.00    +0.000 A 
ATOM      9  N   UNL     1       6.892   4.697  18.929  0.00  0.00    +0.000 NA
ATOM     10  C   UNL     1       5.918   5.323  18.247  0.00  0.00    +0.000 A 
ATOM     11  H   UNL     1       6.492   9.322  17.830  0.00  0.00    +0.000 HD
ENDROOT
BRANCH   1  14
ATOM     12  C4* UNL     1       2.213   2.416  17.825  0.00  0.00    +0.000 C 
ATOM     13  O4* UNL     1       3.101   3.263  17.064  0.00  0.00    +0.000 OA
ATOM     14  C1* UNL     1       4.333   3.411  17.801  0.00  0.00    +0.000 C 
ATOM     15  C2* UNL     1       4.114   2.843  19.206  0.00  0.00    +0.000 C 
ATOM     16  C3* UNL     1       3.059   1.782  18.931  0.00  0.00    +0.000 C 
BRANCH  15  17
ATOM     17  O2* UNL     1       5.303   2.261  19.749  0.00  0.00    +0.000 OA
ATOM     18  H2* UNL     1       5.579   1.572  19.106  0.00  0.00    +0.000 HD
ENDBRANCH  15  17
BRANCH  16  19
ATOM     19  O3* UNL     1       3.758   0.605  18.468  0.00  0.00    +0.000 OA
ATOM     20  H3* UNL     1       3.112  -0.114  18.335  0.00  0.00    +0.000 HD
ENDBRANCH  16  19
BRANCH  12  21
ATOM     21  C5* UNL     1       1.031   3.232  18.349  0.00  0.00    +0.000 C 
BRANCH  21  22
ATOM     22  O5* UNL     1       0.610   2.724  19.609  0.00  0.00    +0.000 OA
ATOM     23  H5* UNL     1       1.280   2.076  19.892  0.00  0.00    +0.000 HD
ENDBRANCH  21  22
ENDBRANCH  12  21
ENDBRANCH   1  14
BRANCH   6  24
ATOM     24  C   UNL     1       8.576   9.197  17.385  0.00  0.00    +0.000 C 
BRANCH  24  25
ATOM     25  C   UNL     1       9.022   9.937  18.654  0.00  0.00    +0.000 C 
BRANCH  25  26
ATOM     26  C   UNL     1       9.731  11.227  18.354  0.00  0.00    +0.000 A 
ATOM     27  C   UNL     1       9.043  12.288  17.770  0.00  0.00    +0.000 A 
ATOM     28  C   UNL     1       9.714  13.488  17.561  0.00  0.00    +0.000 A 
ATOM     29  C   UNL     1      11.045  13.598  17.943  0.00  0.00    +0.000 A 
ATOM     30  C   UNL     1      11.654  12.495  18.517  0.00  0.00    +0.000 A 
ATOM     31  N   UNL     1      11.030  11.317  18.728  0.00  0.00    +0.000 NA
ENDBRANCH  25  26
ENDBRANCH  24  25
ENDBRANCH   6  24
TORSDOF 8
ENDMDL
MODEL 9
REMARK VINA RESULT:      -7.4      5.140      7.253
REMARK  Name = 
REMARK  8 active torsions:
REMARK  status: ('A' for Active; 'I' for Inactive)
REMARK    1  A    between atoms: O5*_1  and  C5*_2
REMARK    2  A    between atoms: C5*_2  and  C4*_3
REMARK    3  A    between atoms: C1*_5  and  N_6
REMARK    4  A    between atoms: N_11  and  C_12
REMARK    5  A    between atoms: C_12  and  C_13
REMARK    6  A    between atoms: C_13  and  C_14
REMARK    7  A    between atoms: C2*_24  and  O2*_25
REMARK    8  A    between atoms: C3*_26  and  O3*_27
REMARK                            x       y       z     vdW  Elec       q    Type
REMARK                         _______ _______ _______ _____ _____    ______ ____
ROOT
ATOM      1  N   UNL     1       1.102   9.244  19.175  0.00  0.00    +0.000 N 
ATOM      2  C   UNL     1       1.561   9.652  17.949  0.00  0.00    +0.000 A 
ATOM      3  N   UNL     1       2.431   8.808  17.442  0.00  0.00    +0.000 NA
ATOM      4  C   UNL     1       2.522   7.791  18.369  0.00  0.00    +0.000 A 
ATOM      5  C   UNL     1       3.176   6.547  18.354  0.00  0.00    +0.000 A 
ATOM      6  N   UNL     1       3.857   6.103  17.229  0.00  0.00    +0.000 N 
ATOM      7  N   UNL     1       3.028   5.736  19.435  0.00  0.00    +0.000 NA
ATOM      8  C   UNL     1       2.267   6.157  20.463  0.00  0.00    +0.000 A 
ATOM      9  N   UNL     1       1.559   7.297  20.565  0.00  0.00    +0.000 NA
ATOM     10  C   UNL     1       1.724   8.067  19.476  0.00  0.00    +0.000 A 
ATOM     11  H   UNL     1       4.587   6.735  16.922  0.00  0.00    +0.000 HD
ENDROOT
BRANCH   1  14
ATOM     12  C4* UNL     1      -1.408  11.651  19.402  0.00  0.00    +0.000 C 
ATOM     13  O4* UNL     1      -1.001  10.309  19.057  0.00  0.00    +0.000 OA
ATOM     14  C1* UNL     1       0.074   9.920  19.938  0.00  0.00    +0.000 C 
ATOM     15  C2* UNL     1       0.537  11.164  20.699  0.00  0.00    +0.000 C 
ATOM     16  C3* UNL     1      -0.750  11.974  20.745  0.00  0.00    +0.000 C 
BRANCH  15  17
ATOM     17  O2* UNL     1       1.000  10.857  22.017  0.00  0.00    +0.000 OA
ATOM     18  H2* UNL     1       1.544  10.044  21.924  0.00  0.00    +0.000 HD
ENDBRANCH  15  17
BRANCH  16  19
ATOM     19  O3* UNL     1      -1.522  11.472  21.858  0.00  0.00    +0.000 OA
ATOM     20  H3* UNL     1      -1.927  12.226  22.327  0.00  0.00    +0.000 HD
ENDBRANCH  16  19
BRANCH  12  21
ATOM     21  C5* UNL     1      -1.024  12.619  18.282  0.00  0.00    +0.000 C 
BRANCH  21  22
ATOM     22  O5* UNL     1      -0.988  13.950  18.783  0.00  0.00    +0.000 OA
ATOM     23  H5* UNL     1      -0.186  14.026  19.331  0.00  0.00    +0.000 HD
ENDBRANCH  21  22
ENDBRANCH  12  21
ENDBRANCH   1  14
BRANCH   6  24
ATOM     24  C   UNL     1       4.042   4.674  17.041  0.00  0.00    +0.000 C 
BRANCH  24  25
ATOM     25  C   UNL     1       5.527   4.373  16.790  0.00  0.00    +0.000 C 
BRANCH  25  26
ATOM     26  C   UNL     1       6.439   5.383  17.425  0.00  0.00    +0.000 A 
ATOM     27  C   UNL     1       7.037   5.116  18.654  0.00  0.00    +0.000 A 
ATOM     28  C   UNL     1       7.923   6.048  19.185  0.00  0.00    +0.000 A 
ATOM     29  C   UNL     1       8.191   7.211  18.476  0.00  0.00    +0.000 A 
ATOM     30  C   UNL     1       7.554   7.399  17.261  0.00  0.00    +0.000 A 
ATOM     31  N   UNL     1       6.686   6.516  16.724  0.00  0.00    +0.000 NA
ENDBRANCH  25  26
ENDBRANCH  24  25
ENDBRANCH   6  24
TORSDOF 8
ENDMDL
