MODEL 1
REMARK VINA RESULT:      -8.8      0.000      0.000
REMARK  Name = 
REMARK  6 active torsions:
REMARK  status: ('A' for Active; 'I' for Inactive)
REMARK    1  A    between atoms: C_1  and  C_2
REMARK    2  A    between atoms: C_2  and  C_3
REMARK    3  A    between atoms: N_5  and  S_6
REMARK    4  A    between atoms: S_6  and  C_9
REMARK    5  A    between atoms: C_19  and  C_21
REMARK    6  A    between atoms: C_21  and  C_22
REMARK                            x       y       z     vdW  Elec       q    Type
REMARK                         _______ _______ _______ _____ _____    ______ ____
ROOT
ATOM      1  C   UNL     1       8.174   4.456  17.218  0.00  0.00    +0.000 C 
ATOM      2  C   UNL     1       7.177   5.402  17.876  0.00  0.00    +0.000 C 
ATOM      3  C   UNL     1       7.845   6.766  18.230  0.00  0.00    +0.000 C 
ATOM      4  C   UNL     1       6.686   7.463  17.519  0.00  0.00    +0.000 C 
ATOM      5  N   UNL     1       6.426   6.184  16.881  0.00  0.00    +0.000 N 
ATOM      6  C   UNL     1       5.604   5.944  15.818  0.00  0.00    +0.000 C 
ATOM      7  O   UNL     1       5.103   6.889  15.199  0.00  0.00    +0.000 OA
ENDROOT
BRANCH   2   8
ATOM      8  C   UNL     1       6.279   4.709  18.992  0.00  0.00    +0.000 C 
ATOM      9  O   UNL     1       6.313   4.987  20.185  0.00  0.00    +0.000 OA
ATOM     10  N   UNL     1       5.428   3.707  18.487  0.00  0.00    +0.000 N 
ATOM     11  H   UNL     1       5.359   3.507  17.494  0.00  0.00    +0.000 HD
BRANCH  10  12
ATOM     12  S   UNL     1       4.202   2.973  19.349  0.00  0.00    +0.000 S 
ATOM     13  O   UNL     1       3.440   2.111  18.465  0.00  0.00    +0.000 OA
ATOM     14  O   UNL     1       4.820   2.412  20.527  0.00  0.00    +0.000 OA
BRANCH  12  15
ATOM     15  C   UNL     1       3.170   4.323  19.856  0.00  0.00    +0.000 A 
ATOM     16  C   UNL     1       3.348   5.573  19.243  0.00  0.00    +0.000 A 
ATOM     17  C   UNL     1       2.479   6.628  19.531  0.00  0.00    +0.000 A 
ATOM     18  C   UNL     1       1.422   6.438  20.419  0.00  0.00    +0.000 A 
ATOM     19  C   UNL     1       1.248   5.198  21.037  0.00  0.00    +0.000 A 
ATOM     20  C   UNL     1       2.124   4.138  20.767  0.00  0.00    +0.000 A 
ATOM     21 CL   UNL     1       1.855   2.675  21.646  0.00  0.00    +0.000 Cl
ENDBRANCH  12  15
ENDBRANCH  10  12
ENDBRANCH   2   8
BRANCH   6  22
ATOM     22  C   UNL     1       5.319   4.510  15.399  0.00  0.00    +0.000 C 
BRANCH  22  23
ATOM     23  C   UNL     1       5.740   4.193  13.979  0.00  0.00    +0.000 A 
ATOM     24  C   UNL     1       4.902   3.475  13.113  0.00  0.00    +0.000 A 
ATOM     25  C   UNL     1       5.318   3.182  11.814  0.00  0.00    +0.000 A 
ATOM     26  F   UNL     1       4.504   2.500  10.998  0.00  0.00    +0.000 F 
ATOM     27  C   UNL     1       6.564   3.586  11.348  0.00  0.00    +0.000 A 
ATOM     28  C   UNL     1       7.414   4.282  12.203  0.00  0.00    +0.000 A 
ATOM     29  C   UNL     1       7.001   4.569  13.504  0.00  0.00    +0.000 A 
ATOM     30  F   UNL     1       7.859   5.211  14.308  0.00  0.00    +0.000 F 
ENDBRANCH  22  23
ENDBRANCH   6  22
TORSDOF 5
ENDMDL
MODEL 2
REMARK VINA RESULT:      -8.8      1.122      1.312
REMARK  Name = 
REMARK  6 active torsions:
REMARK  status: ('A' for Active; 'I' for Inactive)
REMARK    1  A    between atoms: C_1  and  C_2
REMARK    2  A    between atoms: C_2  and  C_3
REMARK    3  A    between atoms: N_5  and  S_6
REMARK    4  A    between atoms: S_6  and  C_9
REMARK    5  A    between atoms: C_19  and  C_21
REMARK    6  A    between atoms: C_21  and  C_22
REMARK                            x       y       z     vdW  Elec       q    Type
REMARK                         _______ _______ _______ _____ _____    ______ ____
ROOT
ATOM      1  C   UNL     1       7.840   4.325  17.462  0.00  0.00    +0.000 C 
ATOM      2  C   UNL     1       6.846   5.344  18.007  0.00  0.00    +0.000 C 
ATOM      3  C   UNL     1       7.562   6.672  18.402  0.00  0.00    +0.000 C 
ATOM      4  C   UNL     1       6.522   7.423  17.571  0.00  0.00    +0.000 C 
ATOM      5  N   UNL     1       6.244   6.148  16.931  0.00  0.00    +0.000 N 
ATOM      6  C   UNL     1       5.514   5.937  15.798  0.00  0.00    +0.000 C 
ATOM      7  O   UNL     1       5.134   6.897  15.119  0.00  0.00    +0.000 OA
ENDROOT
BRANCH   2   8
ATOM      8  C   UNL     1       5.804   4.731  19.041  0.00  0.00    +0.000 C 
ATOM      9  O   UNL     1       5.230   5.373  19.913  0.00  0.00    +0.000 OA
ATOM     10  N   UNL     1       5.600   3.347  18.882  0.00  0.00    +0.000 N 
ATOM     11  H   UNL     1       6.034   2.820  18.129  0.00  0.00    +0.000 HD
BRANCH  10  12
ATOM     12  S   UNL     1       4.403   2.465  19.637  0.00  0.00    +0.000 S 
ATOM     13  O   UNL     1       4.032   1.339  18.801  0.00  0.00    +0.000 OA
ATOM     14  O   UNL     1       4.869   2.226  20.983  0.00  0.00    +0.000 OA
BRANCH  12  15
ATOM     15  C   UNL     1       3.032   3.589  19.719  0.00  0.00    +0.000 A 
ATOM     16  C   UNL     1       2.696   4.149  20.962  0.00  0.00    +0.000 A 
ATOM     17  C   UNL     1       1.700   5.125  21.046  0.00  0.00    +0.000 A 
ATOM     18  C   UNL     1       1.047   5.556  19.894  0.00  0.00    +0.000 A 
ATOM     19  C   UNL     1       1.374   4.994  18.658  0.00  0.00    +0.000 A 
ATOM     20  C   UNL     1       2.360   4.003  18.565  0.00  0.00    +0.000 A 
ATOM     21 CL   UNL     1       2.626   3.328  16.996  0.00  0.00    +0.000 Cl
ENDBRANCH  12  15
ENDBRANCH  10  12
ENDBRANCH   2   8
BRANCH   6  22
ATOM     22  C   UNL     1       5.180   4.514  15.376  0.00  0.00    +0.000 C 
BRANCH  22  23
ATOM     23  C   UNL     1       5.669   4.159  13.987  0.00  0.00    +0.000 A 
ATOM     24  C   UNL     1       4.871   3.421  13.100  0.00  0.00    +0.000 A 
ATOM     25  C   UNL     1       5.348   3.093  11.831  0.00  0.00    +0.000 A 
ATOM     26  F   UNL     1       4.572   2.393  10.994  0.00  0.00    +0.000 F 
ATOM     27  C   UNL     1       6.617   3.480  11.416  0.00  0.00    +0.000 A 
ATOM     28  C   UNL     1       7.428   4.195  12.293  0.00  0.00    +0.000 A 
ATOM     29  C   UNL     1       6.953   4.518  13.564  0.00  0.00    +0.000 A 
ATOM     30  F   UNL     1       7.774   5.177  14.393  0.00  0.00    +0.000 F 
ENDBRANCH  22  23
ENDBRANCH   6  22
TORSDOF 5
ENDMDL
MODEL 3
REMARK VINA RESULT:      -8.7      3.167      5.359
REMARK  Name = 
REMARK  6 active torsions:
REMARK  status: ('A' for Active; 'I' for Inactive)
REMARK    1  A    between atoms: C_1  and  C_2
REMARK    2  A    between atoms: C_2  and  C_3
REMARK    3  A    between atoms: N_5  and  S_6
REMARK    4  A    between atoms: S_6  and  C_9
REMARK    5  A    between atoms: C_19  and  C_21
REMARK    6  A    between atoms: C_21  and  C_22
REMARK                            x       y       z     vdW  Elec       q    Type
REMARK                         _______ _______ _______ _____ _____    ______ ____
ROOT
ATOM      1  C   UNL     1       5.215   4.367  15.850  0.00  0.00    +0.000 C 
ATOM      2  C   UNL     1       5.950   4.850  17.094  0.00  0.00    +0.000 C 
ATOM      3  C   UNL     1       7.462   5.089  16.796  0.00  0.00    +0.000 C 
ATOM      4  C   UNL     1       7.318   6.473  17.427  0.00  0.00    +0.000 C 
ATOM      5  N   UNL     1       5.886   6.313  17.233  0.00  0.00    +0.000 N 
ATOM      6  C   UNL     1       4.927   7.278  17.341  0.00  0.00    +0.000 C 
ATOM      7  O   UNL     1       5.253   8.461  17.482  0.00  0.00    +0.000 OA
ENDROOT
BRANCH   2   8
ATOM      8  C   UNL     1       5.576   4.039  18.411  0.00  0.00    +0.000 C 
ATOM      9  O   UNL     1       5.718   4.464  19.552  0.00  0.00    +0.000 OA
ATOM     10  N   UNL     1       5.070   2.751  18.155  0.00  0.00    +0.000 N 
ATOM     11  H   UNL     1       4.903   2.414  17.212  0.00  0.00    +0.000 HD
BRANCH  10  12
ATOM     12  S   UNL     1       4.366   1.758  19.296  0.00  0.00    +0.000 S 
ATOM     13  O   UNL     1       3.994   0.500  18.677  0.00  0.00    +0.000 OA
ATOM     14  O   UNL     1       5.258   1.754  20.431  0.00  0.00    +0.000 OA
BRANCH  12  15
ATOM     15  C   UNL     1       2.887   2.622  19.759  0.00  0.00    +0.000 A 
ATOM     16  C   UNL     1       2.613   2.802  21.124  0.00  0.00    +0.000 A 
ATOM     17  C   UNL     1       1.522   3.576  21.526  0.00  0.00    +0.000 A 
ATOM     18  C   UNL     1       0.710   4.186  20.572  0.00  0.00    +0.000 A 
ATOM     19  C   UNL     1       0.976   4.001  19.214  0.00  0.00    +0.000 A 
ATOM     20  C   UNL     1       2.058   3.213  18.800  0.00  0.00    +0.000 A 
ATOM     21 CL   UNL     1       2.243   2.995  17.096  0.00  0.00    +0.000 Cl
ENDBRANCH  12  15
ENDBRANCH  10  12
ENDBRANCH   2   8
BRANCH   6  22
ATOM     22  C   UNL     1       3.459   6.885  17.278  0.00  0.00    +0.000 C 
BRANCH  22  23
ATOM     23  C   UNL     1       2.577   7.662  18.234  0.00  0.00    +0.000 A 
ATOM     24  C   UNL     1       1.876   8.803  17.816  0.00  0.00    +0.000 A 
ATOM     25  C   UNL     1       1.082   9.511  18.718  0.00  0.00    +0.000 A 
ATOM     26  F   UNL     1       0.415  10.595  18.301  0.00  0.00    +0.000 F 
ATOM     27  C   UNL     1       0.969   9.113  20.044  0.00  0.00    +0.000 A 
ATOM     28  C   UNL     1       1.675   7.994  20.479  0.00  0.00    +0.000 A 
ATOM     29  C   UNL     1       2.474   7.290  19.579  0.00  0.00    +0.000 A 
ATOM     30  F   UNL     1       3.165   6.239  20.040  0.00  0.00    +0.000 F 
ENDBRANCH  22  23
ENDBRANCH   6  22
TORSDOF 5
ENDMDL
MODEL 4
REMARK VINA RESULT:      -8.7      3.743      7.548
REMARK  Name = 
REMARK  6 active torsions:
REMARK  status: ('A' for Active; 'I' for Inactive)
REMARK    1  A    between atoms: C_1  and  C_2
REMARK    2  A    between atoms: C_2  and  C_3
REMARK    3  A    between atoms: N_5  and  S_6
REMARK    4  A    between atoms: S_6  and  C_9
REMARK    5  A    between atoms: C_19  and  C_21
REMARK    6  A    between atoms: C_21  and  C_22
REMARK                            x       y       z     vdW  Elec       q    Type
REMARK                         _______ _______ _______ _____ _____    ______ ____
ROOT
ATOM      1  C   UNL     1       4.609   2.611  20.175  0.00  0.00    +0.000 C 
ATOM      2  C   UNL     1       4.314   3.046  18.744  0.00  0.00    +0.000 C 
ATOM      3  C   UNL     1       4.025   1.815  17.831  0.00  0.00    +0.000 C 
ATOM      4  C   UNL     1       2.752   2.520  17.365  0.00  0.00    +0.000 C 
ATOM      5  N   UNL     1       2.888   3.353  18.549  0.00  0.00    +0.000 N 
ATOM      6  C   UNL     1       1.955   4.200  19.073  0.00  0.00    +0.000 C 
ATOM      7  O   UNL     1       0.805   4.208  18.622  0.00  0.00    +0.000 OA
ENDROOT
BRANCH   2   8
ATOM      8  C   UNL     1       5.314   4.154  18.194  0.00  0.00    +0.000 C 
ATOM      9  O   UNL     1       5.847   5.014  18.886  0.00  0.00    +0.000 OA
ATOM     10  N   UNL     1       5.532   4.078  16.805  0.00  0.00    +0.000 N 
ATOM     11  H   UNL     1       5.133   3.337  16.236  0.00  0.00    +0.000 HD
BRANCH  10  12
ATOM     12  S   UNL     1       6.701   4.930  15.974  0.00  0.00    +0.000 S 
ATOM     13  O   UNL     1       6.382   6.344  16.007  0.00  0.00    +0.000 OA
ATOM     14  O   UNL     1       7.971   4.476  16.491  0.00  0.00    +0.000 OA
BRANCH  12  15
ATOM     15  C   UNL     1       6.545   4.350  14.305  0.00  0.00    +0.000 A 
ATOM     16  C   UNL     1       5.482   3.489  13.988  0.00  0.00    +0.000 A 
ATOM     17  C   UNL     1       5.259   3.106  12.664  0.00  0.00    +0.000 A 
ATOM     18  C   UNL     1       6.082   3.589  11.650  0.00  0.00    +0.000 A 
ATOM     19  C   UNL     1       7.145   4.438  11.963  0.00  0.00    +0.000 A 
ATOM     20  C   UNL     1       7.388   4.816  13.290  0.00  0.00    +0.000 A 
ATOM     21 CL   UNL     1       8.775   5.809  13.565  0.00  0.00    +0.000 Cl
ENDBRANCH  12  15
ENDBRANCH  10  12
ENDBRANCH   2   8
BRANCH   6  22
ATOM     22  C   UNL     1       2.342   5.126  20.216  0.00  0.00    +0.000 C 
BRANCH  22  23
ATOM     23  C   UNL     1       2.044   6.587  19.946  0.00  0.00    +0.000 A 
ATOM     24  C   UNL     1       1.345   7.372  20.875  0.00  0.00    +0.000 A 
ATOM     25  C   UNL     1       1.069   8.711  20.598  0.00  0.00    +0.000 A 
ATOM     26  F   UNL     1       0.406   9.448  21.497  0.00  0.00    +0.000 F 
ATOM     27  C   UNL     1       1.472   9.297  19.404  0.00  0.00    +0.000 A 
ATOM     28  C   UNL     1       2.149   8.525  18.464  0.00  0.00    +0.000 A 
ATOM     29  C   UNL     1       2.419   7.184  18.737  0.00  0.00    +0.000 A 
ATOM     30  F   UNL     1       3.042   6.463  17.796  0.00  0.00    +0.000 F 
ENDBRANCH  22  23
ENDBRANCH   6  22
TORSDOF 5
ENDMDL
MODEL 5
REMARK VINA RESULT:      -8.6      1.255      1.278
REMARK  Name = 
REMARK  6 active torsions:
REMARK  status: ('A' for Active; 'I' for Inactive)
REMARK    1  A    between atoms: C_1  and  C_2
REMARK    2  A    between atoms: C_2  and  C_3
REMARK    3  A    between atoms: N_5  and  S_6
REMARK    4  A    between atoms: S_6  and  C_9
REMARK    5  A    between atoms: C_19  and  C_21
REMARK    6  A    between atoms: C_21  and  C_22
REMARK                            x       y       z     vdW  Elec       q    Type
REMARK                         _______ _______ _______ _____ _____    ______ ____
ROOT
ATOM      1  C   UNL     1       7.852   4.374  17.510  0.00  0.00    +0.000 C 
ATOM      2  C   UNL     1       6.819   5.350  18.060  0.00  0.00    +0.000 C 
ATOM      3  C   UNL     1       7.483   6.698  18.475  0.00  0.00    +0.000 C 
ATOM      4  C   UNL     1       6.421   7.420  17.647  0.00  0.00    +0.000 C 
ATOM      5  N   UNL     1       6.194   6.144  16.991  0.00  0.00    +0.000 N 
ATOM      6  C   UNL     1       5.477   5.919  15.851  0.00  0.00    +0.000 C 
ATOM      7  O   UNL     1       5.066   6.871  15.181  0.00  0.00    +0.000 OA
ENDROOT
BRANCH   2   8
ATOM      8  C   UNL     1       5.795   4.686  19.082  0.00  0.00    +0.000 C 
ATOM      9  O   UNL     1       5.111   5.311  19.885  0.00  0.00    +0.000 OA
ATOM     10  N   UNL     1       5.747   3.282  19.000  0.00  0.00    +0.000 N 
ATOM     11  H   UNL     1       6.274   2.764  18.302  0.00  0.00    +0.000 HD
BRANCH  10  12
ATOM     12  S   UNL     1       4.612   2.319  19.753  0.00  0.00    +0.000 S 
ATOM     13  O   UNL     1       4.704   0.968  19.234  0.00  0.00    +0.000 OA
ATOM     14  O   UNL     1       4.770   2.547  21.170  0.00  0.00    +0.000 OA
BRANCH  12  15
ATOM     15  C   UNL     1       3.060   3.017  19.251  0.00  0.00    +0.000 A 
ATOM     16  C   UNL     1       2.920   3.462  17.927  0.00  0.00    +0.000 A 
ATOM     17  C   UNL     1       1.681   3.909  17.463  0.00  0.00    +0.000 A 
ATOM     18  C   UNL     1       0.575   3.901  18.310  0.00  0.00    +0.000 A 
ATOM     19  C   UNL     1       0.714   3.467  19.630  0.00  0.00    +0.000 A 
ATOM     20  C   UNL     1       1.956   3.032  20.110  0.00  0.00    +0.000 A 
ATOM     21 CL   UNL     1       2.024   2.590  21.779  0.00  0.00    +0.000 Cl
ENDBRANCH  12  15
ENDBRANCH  10  12
ENDBRANCH   2   8
BRANCH   6  22
ATOM     22  C   UNL     1       5.198   4.490  15.411  0.00  0.00    +0.000 C 
BRANCH  22  23
ATOM     23  C   UNL     1       5.702   4.170  14.019  0.00  0.00    +0.000 A 
ATOM     24  C   UNL     1       4.927   3.428  13.115  0.00  0.00    +0.000 A 
ATOM     25  C   UNL     1       5.419   3.133  11.844  0.00  0.00    +0.000 A 
ATOM     26  F   UNL     1       4.664   2.428  10.991  0.00  0.00    +0.000 F 
ATOM     27  C   UNL     1       6.680   3.559  11.442  0.00  0.00    +0.000 A 
ATOM     28  C   UNL     1       7.468   4.279  12.336  0.00  0.00    +0.000 A 
ATOM     29  C   UNL     1       6.980   4.568  13.609  0.00  0.00    +0.000 A 
ATOM     30  F   UNL     1       7.780   5.233  14.453  0.00  0.00    +0.000 F 
ENDBRANCH  22  23
ENDBRANCH   6  22
TORSDOF 5
ENDMDL
MODEL 6
REMARK VINA RESULT:      -8.3      3.802      7.478
REMARK  Name = 
REMARK  6 active torsions:
REMARK  status: ('A' for Active; 'I' for Inactive)
REMARK    1  A    between atoms: C_1  and  C_2
REMARK    2  A    between atoms: C_2  and  C_3
REMARK    3  A    between atoms: N_5  and  S_6
REMARK    4  A    between atoms: S_6  and  C_9
REMARK    5  A    between atoms: C_19  and  C_21
REMARK    6  A    between atoms: C_21  and  C_22
REMARK                            x       y       z     vdW  Elec       q    Type
REMARK                         _______ _______ _______ _____ _____    ______ ____
ROOT
ATOM      1  C   UNL     1       4.358   2.788  20.256  0.00  0.00    +0.000 C 
ATOM      2  C   UNL     1       4.320   3.147  18.775  0.00  0.00    +0.000 C 
ATOM      3  C   UNL     1       3.953   1.907  17.905  0.00  0.00    +0.000 C 
ATOM      4  C   UNL     1       2.878   2.759  17.230  0.00  0.00    +0.000 C 
ATOM      5  N   UNL     1       2.998   3.652  18.370  0.00  0.00    +0.000 N 
ATOM      6  C   UNL     1       2.157   4.671  18.711  0.00  0.00    +0.000 C 
ATOM      7  O   UNL     1       1.088   4.819  18.108  0.00  0.00    +0.000 OA
ENDROOT
BRANCH   2   8
ATOM      8  C   UNL     1       5.547   4.043  18.303  0.00  0.00    +0.000 C 
ATOM      9  O   UNL     1       6.364   4.557  19.059  0.00  0.00    +0.000 OA
ATOM     10  N   UNL     1       5.613   4.218  16.908  0.00  0.00    +0.000 N 
ATOM     11  H   UNL     1       4.970   3.754  16.274  0.00  0.00    +0.000 HD
BRANCH  10  12
ATOM     12  S   UNL     1       6.903   4.890  16.090  0.00  0.00    +0.000 S 
ATOM     13  O   UNL     1       6.805   6.336  16.139  0.00  0.00    +0.000 OA
ATOM     14  O   UNL     1       8.086   4.242  16.606  0.00  0.00    +0.000 OA
BRANCH  12  15
ATOM     15  C   UNL     1       6.668   4.360  14.414  0.00  0.00    +0.000 A 
ATOM     16  C   UNL     1       5.598   3.498  14.125  0.00  0.00    +0.000 A 
ATOM     17  C   UNL     1       5.312   3.153  12.802  0.00  0.00    +0.000 A 
ATOM     18  C   UNL     1       6.079   3.675  11.763  0.00  0.00    +0.000 A 
ATOM     19  C   UNL     1       7.149   4.525  12.049  0.00  0.00    +0.000 A 
ATOM     20  C   UNL     1       7.455   4.864  13.373  0.00  0.00    +0.000 A 
ATOM     21 CL   UNL     1       8.846   5.863  13.609  0.00  0.00    +0.000 Cl
ENDBRANCH  12  15
ENDBRANCH  10  12
ENDBRANCH   2   8
BRANCH   6  22
ATOM     22  C   UNL     1       2.541   5.615  19.840  0.00  0.00    +0.000 C 
BRANCH  22  23
ATOM     23  C   UNL     1       2.084   7.043  19.624  0.00  0.00    +0.000 A 
ATOM     24  C   UNL     1       2.330   7.713  18.417  0.00  0.00    +0.000 A 
ATOM     25  C   UNL     1       1.913   9.033  18.247  0.00  0.00    +0.000 A 
ATOM     26  F   UNL     1       2.151   9.656  17.086  0.00  0.00    +0.000 F 
ATOM     27  C   UNL     1       1.252   9.716  19.261  0.00  0.00    +0.000 A 
ATOM     28  C   UNL     1       1.019   9.070  20.472  0.00  0.00    +0.000 A 
ATOM     29  C   UNL     1       1.442   7.753  20.645  0.00  0.00    +0.000 A 
ATOM     30  F   UNL     1       1.230   7.175  21.835  0.00  0.00    +0.000 F 
ENDBRANCH  22  23
ENDBRANCH   6  22
TORSDOF 5
ENDMDL
MODEL 7
REMARK VINA RESULT:      -8.3      3.828      6.088
REMARK  Name = 
REMARK  6 active torsions:
REMARK  status: ('A' for Active; 'I' for Inactive)
REMARK    1  A    between atoms: C_1  and  C_2
REMARK    2  A    between atoms: C_2  and  C_3
REMARK    3  A    between atoms: N_5  and  S_6
REMARK    4  A    between atoms: S_6  and  C_9
REMARK    5  A    between atoms: C_19  and  C_21
REMARK    6  A    between atoms: C_21  and  C_22
REMARK                            x       y       z     vdW  Elec       q    Type
REMARK                         _______ _______ _______ _____ _____    ______ ____
ROOT
ATOM      1  C   UNL     1       1.460   4.148  17.675  0.00  0.00    +0.000 C 
ATOM      2  C   UNL     1       2.024   4.531  19.039  0.00  0.00    +0.000 C 
ATOM      3  C   UNL     1       1.172   3.917  20.191  0.00  0.00    +0.000 C 
ATOM      4  C   UNL     1       2.467   3.377  20.796  0.00  0.00    +0.000 C 
ATOM      5  N   UNL     1       3.060   3.587  19.486  0.00  0.00    +0.000 N 
ATOM      6  C   UNL     1       4.264   3.121  19.042  0.00  0.00    +0.000 C 
ATOM      7  O   UNL     1       4.906   2.317  19.725  0.00  0.00    +0.000 OA
ENDROOT
BRANCH   2   8
ATOM      8  C   UNL     1       2.427   6.065  19.155  0.00  0.00    +0.000 C 
ATOM      9  O   UNL     1       3.431   6.479  19.723  0.00  0.00    +0.000 OA
ATOM     10  N   UNL     1       1.503   6.938  18.550  0.00  0.00    +0.000 N 
ATOM     11  H   UNL     1       0.697   6.598  18.034  0.00  0.00    +0.000 HD
BRANCH  10  12
ATOM     12  S   UNL     1       1.757   8.566  18.287  0.00  0.00    +0.000 S 
ATOM     13  O   UNL     1       3.183   8.832  18.250  0.00  0.00    +0.000 OA
ATOM     14  O   UNL     1       0.939   8.922  17.152  0.00  0.00    +0.000 OA
BRANCH  12  15
ATOM     15  C   UNL     1       1.072   9.342  19.728  0.00  0.00    +0.000 A 
ATOM     16  C   UNL     1       0.671   8.532  20.802  0.00  0.00    +0.000 A 
ATOM     17  C   UNL     1       0.237   9.112  21.996  0.00  0.00    +0.000 A 
ATOM     18  C   UNL     1       0.212  10.499  22.129  0.00  0.00    +0.000 A 
ATOM     19  C   UNL     1       0.602  11.306  21.059  0.00  0.00    +0.000 A 
ATOM     20  C   UNL     1       1.024  10.735  19.852  0.00  0.00    +0.000 A 
ATOM     21 CL   UNL     1       1.410  11.833  18.574  0.00  0.00    +0.000 Cl
ENDBRANCH  12  15
ENDBRANCH  10  12
ENDBRANCH   2   8
BRANCH   6  22
ATOM     22  C   UNL     1       4.800   3.592  17.699  0.00  0.00    +0.000 C 
BRANCH  22  23
ATOM     23  C   UNL     1       5.747   4.771  17.800  0.00  0.00    +0.000 A 
ATOM     24  C   UNL     1       6.836   4.758  18.683  0.00  0.00    +0.000 A 
ATOM     25  C   UNL     1       7.685   5.861  18.770  0.00  0.00    +0.000 A 
ATOM     26  F   UNL     1       8.724   5.831  19.614  0.00  0.00    +0.000 F 
ATOM     27  C   UNL     1       7.475   6.995  17.993  0.00  0.00    +0.000 A 
ATOM     28  C   UNL     1       6.386   7.030  17.125  0.00  0.00    +0.000 A 
ATOM     29  C   UNL     1       5.533   5.929  17.044  0.00  0.00    +0.000 A 
ATOM     30  F   UNL     1       4.477   6.012  16.224  0.00  0.00    +0.000 F 
ENDBRANCH  22  23
ENDBRANCH   6  22
TORSDOF 5
ENDMDL
MODEL 8
REMARK VINA RESULT:      -8.2      3.189      5.372
REMARK  Name = 
REMARK  6 active torsions:
REMARK  status: ('A' for Active; 'I' for Inactive)
REMARK    1  A    between atoms: C_1  and  C_2
REMARK    2  A    between atoms: C_2  and  C_3
REMARK    3  A    between atoms: N_5  and  S_6
REMARK    4  A    between atoms: S_6  and  C_9
REMARK    5  A    between atoms: C_19  and  C_21
REMARK    6  A    between atoms: C_21  and  C_22
REMARK                            x       y       z     vdW  Elec       q    Type
REMARK                         _______ _______ _______ _____ _____    ______ ____
ROOT
ATOM      1  C   UNL     1       5.274   4.194  16.170  0.00  0.00    +0.000 C 
ATOM      2  C   UNL     1       5.941   4.736  17.428  0.00  0.00    +0.000 C 
ATOM      3  C   UNL     1       7.485   4.850  17.241  0.00  0.00    +0.000 C 
ATOM      4  C   UNL     1       7.390   6.291  17.741  0.00  0.00    +0.000 C 
ATOM      5  N   UNL     1       5.971   6.207  17.441  0.00  0.00    +0.000 N 
ATOM      6  C   UNL     1       5.077   7.237  17.387  0.00  0.00    +0.000 C 
ATOM      7  O   UNL     1       5.474   8.405  17.458  0.00  0.00    +0.000 OA
ENDROOT
BRANCH   2   8
ATOM      8  C   UNL     1       5.408   4.070  18.772  0.00  0.00    +0.000 C 
ATOM      9  O   UNL     1       5.122   4.690  19.789  0.00  0.00    +0.000 OA
ATOM     10  N   UNL     1       5.304   2.667  18.703  0.00  0.00    +0.000 N 
ATOM     11  H   UNL     1       5.491   2.154  17.846  0.00  0.00    +0.000 HD
BRANCH  10  12
ATOM     12  S   UNL     1       4.555   1.708  19.843  0.00  0.00    +0.000 S 
ATOM     13  O   UNL     1       4.398   0.366  19.317  0.00  0.00    +0.000 OA
ATOM     14  O   UNL     1       5.282   1.908  21.075  0.00  0.00    +0.000 OA
BRANCH  12  15
ATOM     15  C   UNL     1       2.948   2.438  20.025  0.00  0.00    +0.000 A 
ATOM     16  C   UNL     1       2.537   2.848  21.304  0.00  0.00    +0.000 A 
ATOM     17  C   UNL     1       1.330   3.531  21.468  0.00  0.00    +0.000 A 
ATOM     18  C   UNL     1       0.536   3.822  20.360  0.00  0.00    +0.000 A 
ATOM     19  C   UNL     1       0.939   3.408  19.090  0.00  0.00    +0.000 A 
ATOM     20  C   UNL     1       2.140   2.707  18.916  0.00  0.00    +0.000 A 
ATOM     21 CL   UNL     1       2.498   2.181  17.309  0.00  0.00    +0.000 Cl
ENDBRANCH  12  15
ENDBRANCH  10  12
ENDBRANCH   2   8
BRANCH   6  22
ATOM     22  C   UNL     1       3.594   6.935  17.233  0.00  0.00    +0.000 C 
BRANCH  22  23
ATOM     23  C   UNL     1       2.731   7.543  18.320  0.00  0.00    +0.000 A 
ATOM     24  C   UNL     1       2.486   6.863  19.523  0.00  0.00    +0.000 A 
ATOM     25  C   UNL     1       1.676   7.436  20.502  0.00  0.00    +0.000 A 
ATOM     26  F   UNL     1       1.457   6.777  21.647  0.00  0.00    +0.000 F 
ATOM     27  C   UNL     1       1.092   8.684  20.315  0.00  0.00    +0.000 A 
ATOM     28  C   UNL     1       1.310   9.361  19.118  0.00  0.00    +0.000 A 
ATOM     29  C   UNL     1       2.114   8.785  18.135  0.00  0.00    +0.000 A 
ATOM     30  F   UNL     1       2.273   9.450  16.984  0.00  0.00    +0.000 F 
ENDBRANCH  22  23
ENDBRANCH   6  22
TORSDOF 5
ENDMDL
MODEL 9
REMARK VINA RESULT:      -8.2      3.889      7.749
REMARK  Name = 
REMARK  6 active torsions:
REMARK  status: ('A' for Active; 'I' for Inactive)
REMARK    1  A    between atoms: C_1  and  C_2
REMARK    2  A    between atoms: C_2  and  C_3
REMARK    3  A    between atoms: N_5  and  S_6
REMARK    4  A    between atoms: S_6  and  C_9
REMARK    5  A    between atoms: C_19  and  C_21
REMARK    6  A    between atoms: C_21  and  C_22
REMARK                            x       y       z     vdW  Elec       q    Type
REMARK                         _______ _______ _______ _____ _____    ______ ____
ROOT
ATOM      1  C   UNL     1       5.000   3.551  19.471  0.00  0.00    +0.000 C 
ATOM      2  C   UNL     1       3.974   3.659  18.349  0.00  0.00    +0.000 C 
ATOM      3  C   UNL     1       3.517   2.248  17.869  0.00  0.00    +0.000 C 
ATOM      4  C   UNL     1       2.070   2.714  18.035  0.00  0.00    +0.000 C 
ATOM      5  N   UNL     1       2.604   3.776  18.872  0.00  0.00    +0.000 N 
ATOM      6  C   UNL     1       1.901   4.613  19.690  0.00  0.00    +0.000 C 
ATOM      7  O   UNL     1       0.699   4.414  19.891  0.00  0.00    +0.000 OA
ENDROOT
BRANCH   2   8
ATOM      8  C   UNL     1       4.355   4.730  17.236  0.00  0.00    +0.000 C 
ATOM      9  O   UNL     1       3.687   5.722  16.968  0.00  0.00    +0.000 OA
ATOM     10  N   UNL     1       5.548   4.431  16.550  0.00  0.00    +0.000 N 
ATOM     11  H   UNL     1       6.131   3.638  16.802  0.00  0.00    +0.000 HD
BRANCH  10  12
ATOM     12  S   UNL     1       6.337   5.469  15.510  0.00  0.00    +0.000 S 
ATOM     13  O   UNL     1       5.530   6.657  15.309  0.00  0.00    +0.000 OA
ATOM     14  O   UNL     1       7.681   5.602  16.021  0.00  0.00    +0.000 OA
BRANCH  12  15
ATOM     15  C   UNL     1       6.414   4.567  13.984  0.00  0.00    +0.000 A 
ATOM     16  C   UNL     1       5.413   3.621  13.711  0.00  0.00    +0.000 A 
ATOM     17  C   UNL     1       5.373   2.977  12.472  0.00  0.00    +0.000 A 
ATOM     18  C   UNL     1       6.320   3.283  11.497  0.00  0.00    +0.000 A 
ATOM     19  C   UNL     1       7.321   4.217  11.770  0.00  0.00    +0.000 A 
ATOM     20  C   UNL     1       7.380   4.857  13.015  0.00  0.00    +0.000 A 
ATOM     21 CL   UNL     1       8.706   5.936  13.263  0.00  0.00    +0.000 Cl
ENDBRANCH  12  15
ENDBRANCH  10  12
ENDBRANCH   2   8
BRANCH   6  22
ATOM     22  C   UNL     1       2.611   5.782  20.354  0.00  0.00    +0.000 C 
BRANCH  22  23
ATOM     23  C   UNL     1       2.092   7.138  19.920  0.00  0.00    +0.000 A 
ATOM     24  C   UNL     1       2.347   7.640  18.635  0.00  0.00    +0.000 A 
ATOM     25  C   UNL     1       1.871   8.897  18.264  0.00  0.00    +0.000 A 
ATOM     26  F   UNL     1       2.119   9.360  17.032  0.00  0.00    +0.000 F 
ATOM     27  C   UNL     1       1.140   9.681  19.149  0.00  0.00    +0.000 A 
ATOM     28  C   UNL     1       0.896   9.204  20.434  0.00  0.00    +0.000 A 
ATOM     29  C   UNL     1       1.378   7.950  20.808  0.00  0.00    +0.000 A 
ATOM     30  F   UNL     1       1.153   7.539  22.063  0.00  0.00    +0.000 F 
ENDBRANCH  22  23
ENDBRANCH   6  22
TORSDOF 5
ENDMDL
