MODEL 1
REMARK VINA RESULT:      -6.8      0.000      0.000
REMARK  Name = 
REMARK  9 active torsions:
REMARK  status: ('A' for Active; 'I' for Inactive)
REMARK    1  A    between atoms: C_1  and  C_2
REMARK    2  A    between atoms: N_4  and  C_5
REMARK    3  A    between atoms: C_8  and  O_9
REMARK    4  A    between atoms: O_9  and  C_10
REMARK    5  A    between atoms: C_10  and  C_11
REMARK    6  A    between atoms: C_11  and  O_12
REMARK    7  A    between atoms: C_11  and  C_13
REMARK    8  A    between atoms: C_13  and  N_14
REMARK    9  A    between atoms: C_15  and  C_17
REMARK                            x       y       z     vdW  Elec       q    Type
REMARK                         _______ _______ _______ _____ _____    ______ ____
ROOT
ATOM      1  C   UNL     1       2.303   4.859  19.606  0.00  0.00    +0.000 C 
ENDROOT
BRANCH   1   2
ATOM      2  O   UNL     1       3.140   5.947  19.177  0.00  0.00    +0.000 OA
BRANCH   2   6
ATOM      3  C   UNL     1       1.087   9.610  19.069  0.00  0.00    +0.000 A 
ATOM      4  C   UNL     1       1.733   9.140  17.930  0.00  0.00    +0.000 A 
ATOM      5  C   UNL     1       2.425   7.935  17.944  0.00  0.00    +0.000 A 
ATOM      6  C   UNL     1       2.486   7.155  19.097  0.00  0.00    +0.000 A 
ATOM      7  C   UNL     1       1.850   7.619  20.252  0.00  0.00    +0.000 A 
ATOM      8  C   UNL     1       1.160   8.848  20.241  0.00  0.00    +0.000 A 
BRANCH   3  12
ATOM      9  C   UNL     1      -1.383  12.428  18.628  0.00  0.00    +0.000 C 
ATOM     10  C   UNL     1      -0.951  10.988  18.681  0.00  0.00    +0.000 C 
ATOM     11  O   UNL     1      -1.744  10.100  18.384  0.00  0.00    +0.000 OA
ATOM     12  N   UNL     1       0.373  10.831  19.069  0.00  0.00    +0.000 N 
ATOM     13  H   UNL     1       0.852  11.641  19.443  0.00  0.00    +0.000 HD
ENDBRANCH   3  12
ENDBRANCH   2   6
ENDBRANCH   1   2
BRANCH   1  14
ATOM     14  C   UNL     1       2.295   3.720  18.589  0.00  0.00    +0.000 C 
BRANCH  14  15
ATOM     15  O   UNL     1       1.739   4.153  17.341  0.00  0.00    +0.000 OA
ATOM     16  H   UNL     1       1.314   3.374  16.935  0.00  0.00    +0.000 HD
ENDBRANCH  14  15
BRANCH  14  17
ATOM     17  C   UNL     1       3.702   3.157  18.361  0.00  0.00    +0.000 C 
BRANCH  17  18
ATOM     18  N   UNL     1       4.421   4.011  17.434  0.00  0.00    +0.000 N 
ATOM     19  C   UNL     1       5.707   4.497  17.596  0.00  0.00    +0.000 C 
ATOM     20  N   UNL     1       6.449   4.116  18.596  0.00  0.00    +0.000 NA
ATOM     21  H   UNL     1       3.816   4.521  16.784  0.00  0.00    +0.000 HD
ATOM     22  H   UNL     1       5.945   3.450  19.182  0.00  0.00    +0.000 HD
BRANCH  19  23
ATOM     23  C   UNL     1       6.297   5.536  16.562  0.00  0.00    +0.000 C 
ATOM     24 CL   UNL     1       7.105   4.668  15.220  0.00  0.00    +0.000 Cl
ATOM     25 CL   UNL     1       4.954   6.504  15.908  0.00  0.00    +0.000 Cl
ATOM     26 CL   UNL     1       7.487   6.558  17.400  0.00  0.00    +0.000 Cl
ENDBRANCH  19  23
ENDBRANCH  17  18
ENDBRANCH  14  17
ENDBRANCH   1  14
TORSDOF 8
ENDMDL
MODEL 2
REMARK VINA RESULT:      -6.7      0.736      1.263
REMARK  Name = 
REMARK  9 active torsions:
REMARK  status: ('A' for Active; 'I' for Inactive)
REMARK    1  A    between atoms: C_1  and  C_2
REMARK    2  A    between atoms: N_4  and  C_5
REMARK    3  A    between atoms: C_8  and  O_9
REMARK    4  A    between atoms: O_9  and  C_10
REMARK    5  A    between atoms: C_10  and  C_11
REMARK    6  A    between atoms: C_11  and  O_12
REMARK    7  A    between atoms: C_11  and  C_13
REMARK    8  A    between atoms: C_13  and  N_14
REMARK    9  A    between atoms: C_15  and  C_17
REMARK                            x       y       z     vdW  Elec       q    Type
REMARK                         _______ _______ _______ _____ _____    ______ ____
ROOT
ATOM      1  C   UNL     1       1.834   4.247  19.330  0.00  0.00    +0.000 C 
ENDROOT
BRANCH   1   2
ATOM      2  O   UNL     1       2.785   5.253  19.725  0.00  0.00    +0.000 OA
BRANCH   2   6
ATOM      3  C   UNL     1       1.427   9.185  19.150  0.00  0.00    +0.000 A 
ATOM      4  C   UNL     1       2.038   8.499  18.105  0.00  0.00    +0.000 A 
ATOM      5  C   UNL     1       2.502   7.200  18.274  0.00  0.00    +0.000 A 
ATOM      6  C   UNL     1       2.362   6.541  19.493  0.00  0.00    +0.000 A 
ATOM      7  C   UNL     1       1.760   7.221  20.555  0.00  0.00    +0.000 A 
ATOM      8  C   UNL     1       1.302   8.544  20.387  0.00  0.00    +0.000 A 
BRANCH   3  12
ATOM      9  C   UNL     1      -0.572  12.318  18.498  0.00  0.00    +0.000 C 
ATOM     10  C   UNL     1      -0.386  10.856  18.804  0.00  0.00    +0.000 C 
ATOM     11  O   UNL     1      -1.361  10.113  18.852  0.00  0.00    +0.000 OA
ATOM     12  N   UNL     1       0.944  10.505  18.992  0.00  0.00    +0.000 N 
ATOM     13  H   UNL     1       1.619  11.254  19.088  0.00  0.00    +0.000 HD
ENDBRANCH   3  12
ENDBRANCH   2   6
ENDBRANCH   1   2
BRANCH   1  14
ATOM     14  C   UNL     1       2.497   3.130  18.528  0.00  0.00    +0.000 C 
BRANCH  14  15
ATOM     15  O   UNL     1       2.371   3.368  17.121  0.00  0.00    +0.000 OA
ATOM     16  H   UNL     1       2.316   2.495  16.689  0.00  0.00    +0.000 HD
ENDBRANCH  14  15
BRANCH  14  17
ATOM     17  C   UNL     1       3.975   2.971  18.896  0.00  0.00    +0.000 C 
BRANCH  17  18
ATOM     18  N   UNL     1       4.792   3.707  17.949  0.00  0.00    +0.000 N 
ATOM     19  C   UNL     1       5.691   4.716  18.252  0.00  0.00    +0.000 C 
ATOM     20  N   UNL     1       5.965   5.024  19.487  0.00  0.00    +0.000 NA
ATOM     21  H   UNL     1       4.442   3.677  16.987  0.00  0.00    +0.000 HD
ATOM     22  H   UNL     1       5.439   4.431  20.129  0.00  0.00    +0.000 HD
BRANCH  19  23
ATOM     23  C   UNL     1       6.399   5.520  17.091  0.00  0.00    +0.000 C 
ATOM     24 CL   UNL     1       5.172   6.377  16.107  0.00  0.00    +0.000 Cl
ATOM     25 CL   UNL     1       7.500   6.713  17.821  0.00  0.00    +0.000 Cl
ATOM     26 CL   UNL     1       7.280   4.370  16.058  0.00  0.00    +0.000 Cl
ENDBRANCH  19  23
ENDBRANCH  17  18
ENDBRANCH  14  17
ENDBRANCH   1  14
TORSDOF 8
ENDMDL
MODEL 3
REMARK VINA RESULT:      -6.7      0.558      1.582
REMARK  Name = 
REMARK  9 active torsions:
REMARK  status: ('A' for Active; 'I' for Inactive)
REMARK    1  A    between atoms: C_1  and  C_2
REMARK    2  A    between atoms: N_4  and  C_5
REMARK    3  A    between atoms: C_8  and  O_9
REMARK    4  A    between atoms: O_9  and  C_10
REMARK    5  A    between atoms: C_10  and  C_11
REMARK    6  A    between atoms: C_11  and  O_12
REMARK    7  A    between atoms: C_11  and  C_13
REMARK    8  A    between atoms: C_13  and  N_14
REMARK    9  A    between atoms: C_15  and  C_17
REMARK                            x       y       z     vdW  Elec       q    Type
REMARK                         _______ _______ _______ _____ _____    ______ ____
ROOT
ATOM      1  C   UNL     1       2.405   5.099  17.969  0.00  0.00    +0.000 C 
ENDROOT
BRANCH   1   2
ATOM      2  O   UNL     1       2.943   5.949  18.998  0.00  0.00    +0.000 OA
BRANCH   2   6
ATOM      3  C   UNL     1       1.166   9.755  19.067  0.00  0.00    +0.000 A 
ATOM      4  C   UNL     1       1.201   8.981  20.223  0.00  0.00    +0.000 A 
ATOM      5  C   UNL     1       1.777   7.716  20.222  0.00  0.00    +0.000 A 
ATOM      6  C   UNL     1       2.345   7.187  19.066  0.00  0.00    +0.000 A 
ATOM      7  C   UNL     1       2.308   7.948  17.895  0.00  0.00    +0.000 A 
ATOM      8  C   UNL     1       1.712   9.225  17.893  0.00  0.00    +0.000 A 
BRANCH   3  12
ATOM      9  C   UNL     1      -0.975  12.823  18.583  0.00  0.00    +0.000 C 
ATOM     10  C   UNL     1      -0.703  11.344  18.646  0.00  0.00    +0.000 C 
ATOM     11  O   UNL     1      -1.584  10.546  18.340  0.00  0.00    +0.000 OA
ATOM     12  N   UNL     1       0.590  11.046  19.054  0.00  0.00    +0.000 N 
ATOM     13  H   UNL     1       1.149  11.800  19.433  0.00  0.00    +0.000 HD
ENDBRANCH   3  12
ENDBRANCH   2   6
ENDBRANCH   1   2
BRANCH   1  14
ATOM     14  C   UNL     1       2.456   3.627  18.372  0.00  0.00    +0.000 C 
BRANCH  14  15
ATOM     15  O   UNL     1       1.244   2.956  18.007  0.00  0.00    +0.000 OA
ATOM     16  H   UNL     1       1.502   2.111  17.590  0.00  0.00    +0.000 HD
ENDBRANCH  14  15
BRANCH  14  17
ATOM     17  C   UNL     1       3.654   2.910  17.742  0.00  0.00    +0.000 C 
BRANCH  17  18
ATOM     18  N   UNL     1       4.439   3.862  16.976  0.00  0.00    +0.000 N 
ATOM     19  C   UNL     1       5.652   4.415  17.351  0.00  0.00    +0.000 C 
ATOM     20  N   UNL     1       6.267   4.019  18.429  0.00  0.00    +0.000 NA
ATOM     21  H   UNL     1       3.900   4.372  16.270  0.00  0.00    +0.000 HD
ATOM     22  H   UNL     1       5.731   3.289  18.899  0.00  0.00    +0.000 HD
BRANCH  19  23
ATOM     23  C   UNL     1       6.311   5.548  16.470  0.00  0.00    +0.000 C 
ATOM     24 CL   UNL     1       7.477   6.485  17.455  0.00  0.00    +0.000 Cl
ATOM     25 CL   UNL     1       7.175   4.780  15.116  0.00  0.00    +0.000 Cl
ATOM     26 CL   UNL     1       5.028   6.635  15.889  0.00  0.00    +0.000 Cl
ENDBRANCH  19  23
ENDBRANCH  17  18
ENDBRANCH  14  17
ENDBRANCH   1  14
TORSDOF 8
ENDMDL
MODEL 4
REMARK VINA RESULT:      -6.6      0.898      1.793
REMARK  Name = 
REMARK  9 active torsions:
REMARK  status: ('A' for Active; 'I' for Inactive)
REMARK    1  A    between atoms: C_1  and  C_2
REMARK    2  A    between atoms: N_4  and  C_5
REMARK    3  A    between atoms: C_8  and  O_9
REMARK    4  A    between atoms: O_9  and  C_10
REMARK    5  A    between atoms: C_10  and  C_11
REMARK    6  A    between atoms: C_11  and  O_12
REMARK    7  A    between atoms: C_11  and  C_13
REMARK    8  A    between atoms: C_13  and  N_14
REMARK    9  A    between atoms: C_15  and  C_17
REMARK                            x       y       z     vdW  Elec       q    Type
REMARK                         _______ _______ _______ _____ _____    ______ ____
ROOT
ATOM      1  C   UNL     1       2.071   3.695  19.366  0.00  0.00    +0.000 C 
ENDROOT
BRANCH   1   2
ATOM      2  O   UNL     1       3.057   4.704  19.650  0.00  0.00    +0.000 OA
BRANCH   2   6
ATOM      3  C   UNL     1       1.591   8.638  19.555  0.00  0.00    +0.000 A 
ATOM      4  C   UNL     1       1.426   7.861  20.697  0.00  0.00    +0.000 A 
ATOM      5  C   UNL     1       1.896   6.554  20.749  0.00  0.00    +0.000 A 
ATOM      6  C   UNL     1       2.555   5.985  19.662  0.00  0.00    +0.000 A 
ATOM      7  C   UNL     1       2.718   6.750  18.504  0.00  0.00    +0.000 A 
ATOM      8  C   UNL     1       2.229   8.071  18.447  0.00  0.00    +0.000 A 
BRANCH   3  12
ATOM      9  C   UNL     1      -0.019  11.933  18.668  0.00  0.00    +0.000 C 
ATOM     10  C   UNL     1       0.145  10.438  18.622  0.00  0.00    +0.000 C 
ATOM     11  O   UNL     1      -0.545   9.770  17.858  0.00  0.00    +0.000 OA
ATOM     12  N   UNL     1       1.124   9.972  19.489  0.00  0.00    +0.000 N 
ATOM     13  H   UNL     1       1.491  10.619  20.176  0.00  0.00    +0.000 HD
ENDBRANCH   3  12
ENDBRANCH   2   6
ENDBRANCH   1   2
BRANCH   1  14
ATOM     14  C   UNL     1       2.419   2.905  18.106  0.00  0.00    +0.000 C 
BRANCH  14  15
ATOM     15  O   UNL     1       2.101   3.657  16.929  0.00  0.00    +0.000 OA
ATOM     16  H   UNL     1       2.693   4.433  16.919  0.00  0.00    +0.000 HD
ENDBRANCH  14  15
BRANCH  14  17
ATOM     17  C   UNL     1       3.898   2.506  18.082  0.00  0.00    +0.000 C 
BRANCH  17  18
ATOM     18  N   UNL     1       4.637   3.435  17.246  0.00  0.00    +0.000 N 
ATOM     19  C   UNL     1       5.647   4.286  17.660  0.00  0.00    +0.000 C 
ATOM     20  N   UNL     1       6.110   4.237  18.877  0.00  0.00    +0.000 NA
ATOM     21  H   UNL     1       4.159   3.680  16.374  0.00  0.00    +0.000 HD
ATOM     22  H   UNL     1       5.629   3.516  19.414  0.00  0.00    +0.000 HD
BRANCH  19  23
ATOM     23  C   UNL     1       6.254   5.341  16.655  0.00  0.00    +0.000 C 
ATOM     24 CL   UNL     1       7.436   6.384  17.506  0.00  0.00    +0.000 Cl
ATOM     25 CL   UNL     1       7.084   4.463  15.348  0.00  0.00    +0.000 Cl
ATOM     26 CL   UNL     1       4.933   6.350  16.022  0.00  0.00    +0.000 Cl
ENDBRANCH  19  23
ENDBRANCH  17  18
ENDBRANCH  14  17
ENDBRANCH   1  14
TORSDOF 8
ENDMDL
MODEL 5
REMARK VINA RESULT:      -6.6      1.330      1.711
REMARK  Name = 
REMARK  9 active torsions:
REMARK  status: ('A' for Active; 'I' for Inactive)
REMARK    1  A    between atoms: C_1  and  C_2
REMARK    2  A    between atoms: N_4  and  C_5
REMARK    3  A    between atoms: C_8  and  O_9
REMARK    4  A    between atoms: O_9  and  C_10
REMARK    5  A    between atoms: C_10  and  C_11
REMARK    6  A    between atoms: C_11  and  O_12
REMARK    7  A    between atoms: C_11  and  C_13
REMARK    8  A    between atoms: C_13  and  N_14
REMARK    9  A    between atoms: C_15  and  C_17
REMARK                            x       y       z     vdW  Elec       q    Type
REMARK                         _______ _______ _______ _____ _____    ______ ____
ROOT
ATOM      1  C   UNL     1       2.257   5.001  18.109  0.00  0.00    +0.000 C 
ENDROOT
BRANCH   1   2
ATOM      2  O   UNL     1       2.908   5.934  18.990  0.00  0.00    +0.000 OA
BRANCH   2   6
ATOM      3  C   UNL     1       1.196   9.769  19.047  0.00  0.00    +0.000 A 
ATOM      4  C   UNL     1       1.746   9.269  17.871  0.00  0.00    +0.000 A 
ATOM      5  C   UNL     1       2.324   8.006  17.830  0.00  0.00    +0.000 A 
ATOM      6  C   UNL     1       2.364   7.197  18.964  0.00  0.00    +0.000 A 
ATOM      7  C   UNL     1       1.826   7.691  20.155  0.00  0.00    +0.000 A 
ATOM      8  C   UNL     1       1.251   8.977  20.200  0.00  0.00    +0.000 A 
BRANCH   3  12
ATOM      9  C   UNL     1       0.397  13.455  19.158  0.00  0.00    +0.000 C 
ATOM     10  C   UNL     1       1.248  12.251  18.857  0.00  0.00    +0.000 C 
ATOM     11  O   UNL     1       2.396  12.400  18.450  0.00  0.00    +0.000 OA
ATOM     12  N   UNL     1       0.598  11.049  19.103  0.00  0.00    +0.000 N 
ATOM     13  H   UNL     1      -0.399  11.081  19.276  0.00  0.00    +0.000 HD
ENDBRANCH   3  12
ENDBRANCH   2   6
ENDBRANCH   1   2
BRANCH   1  14
ATOM     14  C   UNL     1       2.543   3.555  18.508  0.00  0.00    +0.000 C 
BRANCH  14  15
ATOM     15  O   UNL     1       1.787   2.644  17.701  0.00  0.00    +0.000 OA
ATOM     16  H   UNL     1       1.829   1.774  18.142  0.00  0.00    +0.000 HD
ENDBRANCH  14  15
BRANCH  14  17
ATOM     17  C   UNL     1       4.035   3.226  18.402  0.00  0.00    +0.000 C 
BRANCH  17  18
ATOM     18  N   UNL     1       4.662   4.119  17.444  0.00  0.00    +0.000 N 
ATOM     19  C   UNL     1       5.945   4.634  17.520  0.00  0.00    +0.000 C 
ATOM     20  N   UNL     1       6.770   4.249  18.451  0.00  0.00    +0.000 NA
ATOM     21  H   UNL     1       3.997   4.627  16.854  0.00  0.00    +0.000 HD
ATOM     22  H   UNL     1       6.328   3.557  19.057  0.00  0.00    +0.000 HD
BRANCH  19  23
ATOM     23  C   UNL     1       6.429   5.709  16.470  0.00  0.00    +0.000 C 
ATOM     24 CL   UNL     1       5.024   6.629  15.846  0.00  0.00    +0.000 Cl
ATOM     25 CL   UNL     1       7.546   6.830  17.285  0.00  0.00    +0.000 Cl
ATOM     26 CL   UNL     1       7.225   4.868  15.119  0.00  0.00    +0.000 Cl
ENDBRANCH  19  23
ENDBRANCH  17  18
ENDBRANCH  14  17
ENDBRANCH   1  14
TORSDOF 8
ENDMDL
MODEL 6
REMARK VINA RESULT:      -6.5      1.890      2.300
REMARK  Name = 
REMARK  9 active torsions:
REMARK  status: ('A' for Active; 'I' for Inactive)
REMARK    1  A    between atoms: C_1  and  C_2
REMARK    2  A    between atoms: N_4  and  C_5
REMARK    3  A    between atoms: C_8  and  O_9
REMARK    4  A    between atoms: O_9  and  C_10
REMARK    5  A    between atoms: C_10  and  C_11
REMARK    6  A    between atoms: C_11  and  O_12
REMARK    7  A    between atoms: C_11  and  C_13
REMARK    8  A    between atoms: C_13  and  N_14
REMARK    9  A    between atoms: C_15  and  C_17
REMARK                            x       y       z     vdW  Elec       q    Type
REMARK                         _______ _______ _______ _____ _____    ______ ____
ROOT
ATOM      1  C   UNL     1       2.306   5.440  18.250  0.00  0.00    +0.000 C 
ENDROOT
BRANCH   1   2
ATOM      2  O   UNL     1       3.012   6.601  18.722  0.00  0.00    +0.000 OA
BRANCH   2   6
ATOM      3  C   UNL     1       0.511   9.406  20.599  0.00  0.00    +0.000 A 
ATOM      4  C   UNL     1       0.942   9.620  19.293  0.00  0.00    +0.000 A 
ATOM      5  C   UNL     1       1.775   8.710  18.655  0.00  0.00    +0.000 A 
ATOM      6  C   UNL     1       2.199   7.550  19.299  0.00  0.00    +0.000 A 
ATOM      7  C   UNL     1       1.784   7.327  20.615  0.00  0.00    +0.000 A 
ATOM      8  C   UNL     1       0.949   8.257  21.267  0.00  0.00    +0.000 A 
BRANCH   3  12
ATOM      9  C   UNL     1      -1.556  11.400  23.046  0.00  0.00    +0.000 C 
ATOM     10  C   UNL     1      -0.443  10.473  22.636  0.00  0.00    +0.000 C 
ATOM     11  O   UNL     1       0.251   9.935  23.493  0.00  0.00    +0.000 OA
ATOM     12  N   UNL     1      -0.342  10.320  21.260  0.00  0.00    +0.000 N 
ATOM     13  H   UNL     1      -0.873  10.954  20.676  0.00  0.00    +0.000 HD
ENDBRANCH   3  12
ENDBRANCH   2   6
ENDBRANCH   1   2
BRANCH   1  14
ATOM     14  C   UNL     1       2.759   4.173  18.972  0.00  0.00    +0.000 C 
BRANCH  14  15
ATOM     15  O   UNL     1       1.632   3.407  19.413  0.00  0.00    +0.000 OA
ATOM     16  H   UNL     1       1.090   3.996  19.973  0.00  0.00    +0.000 HD
ENDBRANCH  14  15
BRANCH  14  17
ATOM     17  C   UNL     1       3.659   3.308  18.084  0.00  0.00    +0.000 C 
BRANCH  17  18
ATOM     18  N   UNL     1       4.421   4.161  17.190  0.00  0.00    +0.000 N 
ATOM     19  C   UNL     1       5.727   4.583  17.374  0.00  0.00    +0.000 C 
ATOM     20  N   UNL     1       6.445   4.134  18.364  0.00  0.00    +0.000 NA
ATOM     21  H   UNL     1       3.843   4.719  16.555  0.00  0.00    +0.000 HD
ATOM     22  H   UNL     1       5.909   3.472  18.924  0.00  0.00    +0.000 HD
BRANCH  19  23
ATOM     23  C   UNL     1       6.368   5.629  16.380  0.00  0.00    +0.000 C 
ATOM     24 CL   UNL     1       7.491   6.706  17.267  0.00  0.00    +0.000 Cl
ATOM     25 CL   UNL     1       7.275   4.739  15.133  0.00  0.00    +0.000 Cl
ATOM     26 CL   UNL     1       5.064   6.605  15.663  0.00  0.00    +0.000 Cl
ENDBRANCH  19  23
ENDBRANCH  17  18
ENDBRANCH  14  17
ENDBRANCH   1  14
TORSDOF 8
ENDMDL
MODEL 7
REMARK VINA RESULT:      -6.5      1.370      1.563
REMARK  Name = 
REMARK  9 active torsions:
REMARK  status: ('A' for Active; 'I' for Inactive)
REMARK    1  A    between atoms: C_1  and  C_2
REMARK    2  A    between atoms: N_4  and  C_5
REMARK    3  A    between atoms: C_8  and  O_9
REMARK    4  A    between atoms: O_9  and  C_10
REMARK    5  A    between atoms: C_10  and  C_11
REMARK    6  A    between atoms: C_11  and  O_12
REMARK    7  A    between atoms: C_11  and  C_13
REMARK    8  A    between atoms: C_13  and  N_14
REMARK    9  A    between atoms: C_15  and  C_17
REMARK                            x       y       z     vdW  Elec       q    Type
REMARK                         _______ _______ _______ _____ _____    ______ ____
ROOT
ATOM      1  C   UNL     1       1.870   3.875  18.870  0.00  0.00    +0.000 C 
ENDROOT
BRANCH   1   2
ATOM      2  O   UNL     1       2.627   4.766  19.708  0.00  0.00    +0.000 OA
BRANCH   2   6
ATOM      3  C   UNL     1       1.645   8.827  19.272  0.00  0.00    +0.000 A 
ATOM      4  C   UNL     1       2.176   8.119  18.198  0.00  0.00    +0.000 A 
ATOM      5  C   UNL     1       2.515   6.777  18.321  0.00  0.00    +0.000 A 
ATOM      6  C   UNL     1       2.326   6.096  19.521  0.00  0.00    +0.000 A 
ATOM      7  C   UNL     1       1.804   6.797  20.612  0.00  0.00    +0.000 A 
ATOM      8  C   UNL     1       1.473   8.161  20.491  0.00  0.00    +0.000 A 
BRANCH   3  12
ATOM      9  C   UNL     1      -0.030  12.155  18.680  0.00  0.00    +0.000 C 
ATOM     10  C   UNL     1       0.009  10.669  18.912  0.00  0.00    +0.000 C 
ATOM     11  O   UNL     1      -1.027  10.014  18.856  0.00  0.00    +0.000 OA
ATOM     12  N   UNL     1       1.289  10.191  19.161  0.00  0.00    +0.000 N 
ATOM     13  H   UNL     1       2.018  10.870  19.342  0.00  0.00    +0.000 HD
ENDBRANCH   3  12
ENDBRANCH   2   6
ENDBRANCH   1   2
BRANCH   1  14
ATOM     14  C   UNL     1       2.367   2.436  18.984  0.00  0.00    +0.000 C 
BRANCH  14  15
ATOM     15  O   UNL     1       1.334   1.509  18.626  0.00  0.00    +0.000 OA
ATOM     16  H   UNL     1       0.502   1.851  19.006  0.00  0.00    +0.000 HD
ENDBRANCH  14  15
BRANCH  14  17
ATOM     17  C   UNL     1       3.604   2.195  18.114  0.00  0.00    +0.000 C 
BRANCH  17  18
ATOM     18  N   UNL     1       4.561   3.266  18.326  0.00  0.00    +0.000 N 
ATOM     19  C   UNL     1       5.047   4.134  17.364  0.00  0.00    +0.000 C 
ATOM     20  N   UNL     1       4.575   4.125  16.150  0.00  0.00    +0.000 NA
ATOM     21  H   UNL     1       5.126   3.155  19.174  0.00  0.00    +0.000 HD
ATOM     22  H   UNL     1       3.845   3.420  16.056  0.00  0.00    +0.000 HD
BRANCH  19  23
ATOM     23  C   UNL     1       6.196   5.155  17.728  0.00  0.00    +0.000 C 
ATOM     24 CL   UNL     1       7.790   4.454  17.306  0.00  0.00    +0.000 Cl
ATOM     25 CL   UNL     1       5.945   6.645  16.787  0.00  0.00    +0.000 Cl
ATOM     26 CL   UNL     1       6.141   5.474  19.477  0.00  0.00    +0.000 Cl
ENDBRANCH  19  23
ENDBRANCH  17  18
ENDBRANCH  14  17
ENDBRANCH   1  14
TORSDOF 8
ENDMDL
MODEL 8
REMARK VINA RESULT:      -6.4      1.493      1.971
REMARK  Name = 
REMARK  9 active torsions:
REMARK  status: ('A' for Active; 'I' for Inactive)
REMARK    1  A    between atoms: C_1  and  C_2
REMARK    2  A    between atoms: N_4  and  C_5
REMARK    3  A    between atoms: C_8  and  O_9
REMARK    4  A    between atoms: O_9  and  C_10
REMARK    5  A    between atoms: C_10  and  C_11
REMARK    6  A    between atoms: C_11  and  O_12
REMARK    7  A    between atoms: C_11  and  C_13
REMARK    8  A    between atoms: C_13  and  N_14
REMARK    9  A    between atoms: C_15  and  C_17
REMARK                            x       y       z     vdW  Elec       q    Type
REMARK                         _______ _______ _______ _____ _____    ______ ____
ROOT
ATOM      1  C   UNL     1       1.938   3.530  19.154  0.00  0.00    +0.000 C 
ENDROOT
BRANCH   1   2
ATOM      2  O   UNL     1       2.891   4.463  19.695  0.00  0.00    +0.000 OA
BRANCH   2   6
ATOM      3  C   UNL     1       1.533   8.438  19.695  0.00  0.00    +0.000 A 
ATOM      4  C   UNL     1       2.271   7.953  18.619  0.00  0.00    +0.000 A 
ATOM      5  C   UNL     1       2.737   6.645  18.601  0.00  0.00    +0.000 A 
ATOM      6  C   UNL     1       2.472   5.773  19.655  0.00  0.00    +0.000 A 
ATOM      7  C   UNL     1       1.741   6.249  20.747  0.00  0.00    +0.000 A 
ATOM      8  C   UNL     1       1.280   7.580  20.771  0.00  0.00    +0.000 A 
BRANCH   3  12
ATOM      9  C   UNL     1       0.201  11.848  20.607  0.00  0.00    +0.000 C 
ATOM     10  C   UNL     1       0.900  10.541  20.868  0.00  0.00    +0.000 C 
ATOM     11  O   UNL     1       1.262  10.257  22.005  0.00  0.00    +0.000 OA
ATOM     12  N   UNL     1       1.046   9.765  19.725  0.00  0.00    +0.000 N 
ATOM     13  H   UNL     1       0.849  10.201  18.833  0.00  0.00    +0.000 HD
ENDBRANCH   3  12
ENDBRANCH   2   6
ENDBRANCH   1   2
BRANCH   1  14
ATOM     14  C   UNL     1       2.496   2.797  17.937  0.00  0.00    +0.000 C 
BRANCH  14  15
ATOM     15  O   UNL     1       2.204   3.515  16.732  0.00  0.00    +0.000 OA
ATOM     16  H   UNL     1       2.588   3.001  15.996  0.00  0.00    +0.000 HD
ENDBRANCH  14  15
BRANCH  14  17
ATOM     17  C   UNL     1       4.007   2.576  18.055  0.00  0.00    +0.000 C 
BRANCH  17  18
ATOM     18  N   UNL     1       4.703   3.516  17.196  0.00  0.00    +0.000 N 
ATOM     19  C   UNL     1       5.763   4.329  17.559  0.00  0.00    +0.000 C 
ATOM     20  N   UNL     1       6.315   4.229  18.735  0.00  0.00    +0.000 NA
ATOM     21  H   UNL     1       4.166   3.801  16.372  0.00  0.00    +0.000 HD
ATOM     22  H   UNL     1       5.859   3.501  19.284  0.00  0.00    +0.000 HD
BRANCH  19  23
ATOM     23  C   UNL     1       6.318   5.405  16.545  0.00  0.00    +0.000 C 
ATOM     24 CL   UNL     1       4.970   6.399  15.911  0.00  0.00    +0.000 Cl
ATOM     25 CL   UNL     1       7.464   6.457  17.410  0.00  0.00    +0.000 Cl
ATOM     26 CL   UNL     1       7.108   4.558  15.194  0.00  0.00    +0.000 Cl
ENDBRANCH  19  23
ENDBRANCH  17  18
ENDBRANCH  14  17
ENDBRANCH   1  14
TORSDOF 8
ENDMDL
MODEL 9
REMARK VINA RESULT:      -6.4      0.823      1.344
REMARK  Name = 
REMARK  9 active torsions:
REMARK  status: ('A' for Active; 'I' for Inactive)
REMARK    1  A    between atoms: C_1  and  C_2
REMARK    2  A    between atoms: N_4  and  C_5
REMARK    3  A    between atoms: C_8  and  O_9
REMARK    4  A    between atoms: O_9  and  C_10
REMARK    5  A    between atoms: C_10  and  C_11
REMARK    6  A    between atoms: C_11  and  O_12
REMARK    7  A    between atoms: C_11  and  C_13
REMARK    8  A    between atoms: C_13  and  N_14
REMARK    9  A    between atoms: C_15  and  C_17
REMARK                            x       y       z     vdW  Elec       q    Type
REMARK                         _______ _______ _______ _____ _____    ______ ____
ROOT
ATOM      1  C   UNL     1       2.691   5.212  20.038  0.00  0.00    +0.000 C 
ENDROOT
BRANCH   1   2
ATOM      2  O   UNL     1       2.999   6.101  18.949  0.00  0.00    +0.000 OA
BRANCH   2   6
ATOM      3  C   UNL     1       0.985   9.770  19.309  0.00  0.00    +0.000 A 
ATOM      4  C   UNL     1       1.553   9.403  18.093  0.00  0.00    +0.000 A 
ATOM      5  C   UNL     1       2.230   8.198  17.952  0.00  0.00    +0.000 A 
ATOM      6  C   UNL     1       2.354   7.315  19.022  0.00  0.00    +0.000 A 
ATOM      7  C   UNL     1       1.798   7.674  20.253  0.00  0.00    +0.000 A 
ATOM      8  C   UNL     1       1.123   8.903  20.399  0.00  0.00    +0.000 A 
BRANCH   3  12
ATOM      9  C   UNL     1      -1.431  12.666  19.206  0.00  0.00    +0.000 C 
ATOM     10  C   UNL     1      -1.019  11.226  19.058  0.00  0.00    +0.000 C 
ATOM     11  O   UNL     1      -1.811  10.407  18.601  0.00  0.00    +0.000 OA
ATOM     12  N   UNL     1       0.286  10.989  19.467  0.00  0.00    +0.000 N 
ATOM     13  H   UNL     1       0.761  11.725  19.976  0.00  0.00    +0.000 HD
ENDBRANCH   3  12
ENDBRANCH   2   6
ENDBRANCH   1   2
BRANCH   1  14
ATOM     14  C   UNL     1       2.780   3.749  19.613  0.00  0.00    +0.000 C 
BRANCH  14  15
ATOM     15  O   UNL     1       2.209   3.560  18.313  0.00  0.00    +0.000 OA
ATOM     16  H   UNL     1       1.652   2.759  18.362  0.00  0.00    +0.000 HD
ENDBRANCH  14  15
BRANCH  14  17
ATOM     17  C   UNL     1       4.228   3.246  19.621  0.00  0.00    +0.000 C 
BRANCH  17  18
ATOM     18  N   UNL     1       5.090   4.244  19.014  0.00  0.00    +0.000 N 
ATOM     19  C   UNL     1       5.510   4.272  17.696  0.00  0.00    +0.000 C 
ATOM     20  N   UNL     1       5.051   3.419  16.825  0.00  0.00    +0.000 NA
ATOM     21  H   UNL     1       5.656   4.769  19.688  0.00  0.00    +0.000 HD
ATOM     22  H   UNL     1       4.382   2.786  17.263  0.00  0.00    +0.000 HD
BRANCH  19  23
ATOM     23  C   UNL     1       6.567   5.347  17.225  0.00  0.00    +0.000 C 
ATOM     24 CL   UNL     1       7.832   5.549  18.477  0.00  0.00    +0.000 Cl
ATOM     25 CL   UNL     1       7.323   4.773  15.719  0.00  0.00    +0.000 Cl
ATOM     26 CL   UNL     1       5.731   6.898  16.981  0.00  0.00    +0.000 Cl
ENDBRANCH  19  23
ENDBRANCH  17  18
ENDBRANCH  14  17
ENDBRANCH   1  14
TORSDOF 8
ENDMDL
