MODEL 1
REMARK VINA RESULT:      -8.3      0.000      0.000
REMARK  Name = 
REMARK  8 active torsions:
REMARK  status: ('A' for Active; 'I' for Inactive)
REMARK    1  A    between atoms: C_1  and  C_2
REMARK    2  A    between atoms: C_7  and  C_8
REMARK    3  A    between atoms: C_14  and  C_15
REMARK    4  A    between atoms: C_15  and  C_16
REMARK    5  A    between atoms: N_18  and  C_19
REMARK    6  A    between atoms: C_19  and  C_20
REMARK    7  A    between atoms: C_20  and  C_21
REMARK    8  A    between atoms: C_28  and  C_29
REMARK                            x       y       z     vdW  Elec       q    Type
REMARK                         _______ _______ _______ _____ _____    ______ ____
ROOT
ATOM      1  C   UNL     1      -0.601  10.822  19.581  0.00  0.00    +0.000 C 
ATOM      2  C   UNL     1       0.480   9.981  19.001  0.00  0.00    +0.000 A 
ATOM      3  C   UNL     1       1.153  10.222  17.819  0.00  0.00    +0.000 A 
ATOM      4  O   UNL     1       2.069   9.257  17.580  0.00  0.00    +0.000 OA
ATOM      5  C   UNL     1       2.019   8.355  18.608  0.00  0.00    +0.000 A 
ATOM      6  C   UNL     1       1.040   8.771  19.531  0.00  0.00    +0.000 A 
ATOM      7  C   UNL     1       0.811   7.990  20.692  0.00  0.00    +0.000 A 
ATOM      8  C   UNL     1      -0.190   8.282  21.780  0.00  0.00    +0.000 C 
ATOM      9  C   UNL     1       1.591   6.831  20.846  0.00  0.00    +0.000 A 
ATOM     10  C   UNL     1       2.545   6.462  19.900  0.00  0.00    +0.000 A 
ATOM     11  O   UNL     1       3.257   5.287  20.181  0.00  0.00    +0.000 OA
ATOM     12  C   UNL     1       4.258   4.826  19.347  0.00  0.00    +0.000 A 
ATOM     13  O   UNL     1       4.911   3.829  19.644  0.00  0.00    +0.000 OA
ATOM     14  C   UNL     1       4.527   5.585  18.093  0.00  0.00    +0.000 A 
ATOM     15  C   UNL     1       3.847   6.727  17.802  0.00  0.00    +0.000 A 
ATOM     16  C   UNL     1       4.111   7.551  16.571  0.00  0.00    +0.000 C 
ATOM     17  C   UNL     1       2.805   7.193  18.745  0.00  0.00    +0.000 A 
ENDROOT
BRANCH  14  18
ATOM     18  C   UNL     1       5.688   5.001  17.303  0.00  0.00    +0.000 C 
BRANCH  18  19
ATOM     19  C   UNL     1       6.909   5.915  17.192  0.00  0.00    +0.000 C 
ATOM     20  O   UNL     1       7.553   5.968  16.143  0.00  0.00    +0.000 OA
ATOM     21  N   UNL     1       7.227   6.714  18.278  0.00  0.00    +0.000 N 
ATOM     22  H   UNL     1       6.680   6.666  19.134  0.00  0.00    +0.000 HD
BRANCH  21  23
ATOM     23  C   UNL     1       8.295   7.698  18.111  0.00  0.00    +0.000 C 
BRANCH  23  24
ATOM     24  C   UNL     1       7.880   9.125  17.735  0.00  0.00    +0.000 C 
BRANCH  24  25
ATOM     25  C   UNL     1       8.816  10.147  18.356  0.00  0.00    +0.000 A 
ATOM     26  C   UNL     1       9.347  11.188  17.577  0.00  0.00    +0.000 A 
ATOM     27  C   UNL     1      10.229  12.120  18.124  0.00  0.00    +0.000 A 
ATOM     28  C   UNL     1      10.604  12.019  19.462  0.00  0.00    +0.000 A 
ATOM     29 CL   UNL     1      11.684  13.169  20.139  0.00  0.00    +0.000 Cl
ATOM     30  C   UNL     1      10.102  10.984  20.255  0.00  0.00    +0.000 A 
ATOM     31  C   UNL     1       9.216  10.052  19.701  0.00  0.00    +0.000 A 
ENDBRANCH  24  25
ENDBRANCH  23  24
ENDBRANCH  21  23
ENDBRANCH  18  19
ENDBRANCH  14  18
TORSDOF 5
ENDMDL
MODEL 2
REMARK VINA RESULT:      -8.2      3.983      5.908
REMARK  Name = 
REMARK  8 active torsions:
REMARK  status: ('A' for Active; 'I' for Inactive)
REMARK    1  A    between atoms: C_1  and  C_2
REMARK    2  A    between atoms: C_7  and  C_8
REMARK    3  A    between atoms: C_14  and  C_15
REMARK    4  A    between atoms: C_15  and  C_16
REMARK    5  A    between atoms: N_18  and  C_19
REMARK    6  A    between atoms: C_19  and  C_20
REMARK    7  A    between atoms: C_20  and  C_21
REMARK    8  A    between atoms: C_28  and  C_29
REMARK                            x       y       z     vdW  Elec       q    Type
REMARK                         _______ _______ _______ _____ _____    ______ ____
ROOT
ATOM      1  C   UNL     1      -1.484  12.118  22.881  0.00  0.00    +0.000 C 
ATOM      2  C   UNL     1      -0.746  10.952  22.324  0.00  0.00    +0.000 A 
ATOM      3  C   UNL     1      -0.566   9.732  22.944  0.00  0.00    +0.000 A 
ATOM      4  O   UNL     1       0.160   8.898  22.166  0.00  0.00    +0.000 OA
ATOM      5  C   UNL     1       0.472   9.556  21.008  0.00  0.00    +0.000 A 
ATOM      6  C   UNL     1      -0.083  10.850  21.057  0.00  0.00    +0.000 A 
ATOM      7  C   UNL     1       0.106  11.723  19.955  0.00  0.00    +0.000 A 
ATOM      8  C   UNL     1      -0.412  13.132  19.834  0.00  0.00    +0.000 C 
ATOM      9  C   UNL     1       0.849  11.228  18.869  0.00  0.00    +0.000 A 
ATOM     10  C   UNL     1       1.380   9.940  18.873  0.00  0.00    +0.000 A 
ATOM     11  O   UNL     1       2.093   9.573  17.723  0.00  0.00    +0.000 OA
ATOM     12  C   UNL     1       2.640   8.311  17.578  0.00  0.00    +0.000 A 
ATOM     13  O   UNL     1       3.207   7.991  16.537  0.00  0.00    +0.000 OA
ATOM     14  C   UNL     1       2.503   7.356  18.713  0.00  0.00    +0.000 A 
ATOM     15  C   UNL     1       1.816   7.694  19.838  0.00  0.00    +0.000 A 
ATOM     16  C   UNL     1       1.613   6.751  20.994  0.00  0.00    +0.000 C 
ATOM     17  C   UNL     1       1.224   9.048  19.929  0.00  0.00    +0.000 A 
ENDROOT
BRANCH  14  18
ATOM     18  C   UNL     1       3.098   5.993  18.396  0.00  0.00    +0.000 C 
BRANCH  18  19
ATOM     19  C   UNL     1       4.568   5.831  18.784  0.00  0.00    +0.000 C 
ATOM     20  O   UNL     1       4.880   5.197  19.793  0.00  0.00    +0.000 OA
ATOM     21  N   UNL     1       5.528   6.365  17.938  0.00  0.00    +0.000 N 
ATOM     22  H   UNL     1       5.256   6.876  17.104  0.00  0.00    +0.000 HD
BRANCH  21  23
ATOM     23  C   UNL     1       6.930   6.071  18.228  0.00  0.00    +0.000 C 
BRANCH  23  24
ATOM     24  C   UNL     1       7.513   4.784  17.635  0.00  0.00    +0.000 C 
BRANCH  24  25
ATOM     25  C   UNL     1       6.937   4.509  16.257  0.00  0.00    +0.000 A 
ATOM     26  C   UNL     1       5.823   3.667  16.109  0.00  0.00    +0.000 A 
ATOM     27  C   UNL     1       5.297   3.382  14.849  0.00  0.00    +0.000 A 
ATOM     28  C   UNL     1       5.886   3.929  13.711  0.00  0.00    +0.000 A 
ATOM     29 CL   UNL     1       5.235   3.585  12.159  0.00  0.00    +0.000 Cl
ATOM     30  C   UNL     1       7.005   4.758  13.829  0.00  0.00    +0.000 A 
ATOM     31  C   UNL     1       7.527   5.042  15.097  0.00  0.00    +0.000 A 
ENDBRANCH  24  25
ENDBRANCH  23  24
ENDBRANCH  21  23
ENDBRANCH  18  19
ENDBRANCH  14  18
TORSDOF 5
ENDMDL
MODEL 3
REMARK VINA RESULT:      -8.0      3.796      4.779
REMARK  Name = 
REMARK  8 active torsions:
REMARK  status: ('A' for Active; 'I' for Inactive)
REMARK    1  A    between atoms: C_1  and  C_2
REMARK    2  A    between atoms: C_7  and  C_8
REMARK    3  A    between atoms: C_14  and  C_15
REMARK    4  A    between atoms: C_15  and  C_16
REMARK    5  A    between atoms: N_18  and  C_19
REMARK    6  A    between atoms: C_19  and  C_20
REMARK    7  A    between atoms: C_20  and  C_21
REMARK    8  A    between atoms: C_28  and  C_29
REMARK                            x       y       z     vdW  Elec       q    Type
REMARK                         _______ _______ _______ _____ _____    ______ ____
ROOT
ATOM      1  C   UNL     1       0.141  12.987  20.420  0.00  0.00    +0.000 C 
ATOM      2  C   UNL     1       0.716  11.714  19.911  0.00  0.00    +0.000 A 
ATOM      3  C   UNL     1       1.391  11.545  18.718  0.00  0.00    +0.000 A 
ATOM      4  O   UNL     1       1.774  10.258  18.558  0.00  0.00    +0.000 OA
ATOM      5  C   UNL     1       1.356   9.548  19.651  0.00  0.00    +0.000 A 
ATOM      6  C   UNL     1       0.693  10.422  20.534  0.00  0.00    +0.000 A 
ATOM      7  C   UNL     1       0.174   9.909  21.750  0.00  0.00    +0.000 A 
ATOM      8  C   UNL     1      -0.560  10.692  22.808  0.00  0.00    +0.000 C 
ATOM      9  C   UNL     1       0.359   8.538  21.995  0.00  0.00    +0.000 A 
ATOM     10  C   UNL     1       1.020   7.716  21.085  0.00  0.00    +0.000 A 
ATOM     11  O   UNL     1       1.142   6.370  21.459  0.00  0.00    +0.000 OA
ATOM     12  C   UNL     1       1.808   5.452  20.667  0.00  0.00    +0.000 A 
ATOM     13  O   UNL     1       1.956   4.292  21.042  0.00  0.00    +0.000 OA
ATOM     14  C   UNL     1       2.351   5.921  19.361  0.00  0.00    +0.000 A 
ATOM     15  C   UNL     1       2.242   7.223  18.980  0.00  0.00    +0.000 A 
ATOM     16  C   UNL     1       2.810   7.754  17.692  0.00  0.00    +0.000 C 
ATOM     17  C   UNL     1       1.545   8.170  19.879  0.00  0.00    +0.000 A 
ENDROOT
BRANCH  14  18
ATOM     18  C   UNL     1       3.106   4.827  18.624  0.00  0.00    +0.000 C 
BRANCH  18  19
ATOM     19  C   UNL     1       4.573   4.677  19.030  0.00  0.00    +0.000 C 
ATOM     20  O   UNL     1       5.098   3.563  19.063  0.00  0.00    +0.000 OA
ATOM     21  N   UNL     1       5.296   5.827  19.298  0.00  0.00    +0.000 N 
ATOM     22  H   UNL     1       4.851   6.740  19.257  0.00  0.00    +0.000 HD
BRANCH  21  23
ATOM     23  C   UNL     1       6.733   5.690  19.530  0.00  0.00    +0.000 C 
BRANCH  23  24
ATOM     24  C   UNL     1       7.664   5.997  18.353  0.00  0.00    +0.000 C 
BRANCH  24  25
ATOM     25  C   UNL     1       7.045   5.556  17.038  0.00  0.00    +0.000 A 
ATOM     26  C   UNL     1       6.123   6.383  16.375  0.00  0.00    +0.000 A 
ATOM     27  C   UNL     1       5.524   5.983  15.181  0.00  0.00    +0.000 A 
ATOM     28  C   UNL     1       5.830   4.739  14.634  0.00  0.00    +0.000 A 
ATOM     29 CL   UNL     1       5.099   4.248  13.160  0.00  0.00    +0.000 Cl
ATOM     30  C   UNL     1       6.732   3.890  15.280  0.00  0.00    +0.000 A 
ATOM     31  C   UNL     1       7.332   4.298  16.478  0.00  0.00    +0.000 A 
ENDBRANCH  24  25
ENDBRANCH  23  24
ENDBRANCH  21  23
ENDBRANCH  18  19
ENDBRANCH  14  18
TORSDOF 5
ENDMDL
MODEL 4
REMARK VINA RESULT:      -7.8      5.497      9.644
REMARK  Name = 
REMARK  8 active torsions:
REMARK  status: ('A' for Active; 'I' for Inactive)
REMARK    1  A    between atoms: C_1  and  C_2
REMARK    2  A    between atoms: C_7  and  C_8
REMARK    3  A    between atoms: C_14  and  C_15
REMARK    4  A    between atoms: C_15  and  C_16
REMARK    5  A    between atoms: N_18  and  C_19
REMARK    6  A    between atoms: C_19  and  C_20
REMARK    7  A    between atoms: C_20  and  C_21
REMARK    8  A    between atoms: C_28  and  C_29
REMARK                            x       y       z     vdW  Elec       q    Type
REMARK                         _______ _______ _______ _____ _____    ______ ____
ROOT
ATOM      1  C   UNL     1       5.395   4.159  16.800  0.00  0.00    +0.000 C 
ATOM      2  C   UNL     1       4.614   5.372  17.161  0.00  0.00    +0.000 A 
ATOM      3  C   UNL     1       4.591   6.563  16.463  0.00  0.00    +0.000 A 
ATOM      4  O   UNL     1       3.784   7.463  17.068  0.00  0.00    +0.000 OA
ATOM      5  C   UNL     1       3.254   6.878  18.186  0.00  0.00    +0.000 A 
ATOM      6  C   UNL     1       3.739   5.559  18.283  0.00  0.00    +0.000 A 
ATOM      7  C   UNL     1       3.318   4.748  19.367  0.00  0.00    +0.000 A 
ATOM      8  C   UNL     1       3.733   3.323  19.629  0.00  0.00    +0.000 C 
ATOM      9  C   UNL     1       2.429   5.326  20.289  0.00  0.00    +0.000 A 
ATOM     10  C   UNL     1       1.981   6.638  20.148  0.00  0.00    +0.000 A 
ATOM     11  O   UNL     1       1.091   7.085  21.135  0.00  0.00    +0.000 OA
ATOM     12  C   UNL     1       0.540   8.353  21.097  0.00  0.00    +0.000 A 
ATOM     13  O   UNL     1      -0.285   8.702  21.937  0.00  0.00    +0.000 OA
ATOM     14  C   UNL     1       0.965   9.266  19.999  0.00  0.00    +0.000 A 
ATOM     15  C   UNL     1       1.828   8.851  19.032  0.00  0.00    +0.000 A 
ATOM     16  C   UNL     1       2.255   9.720  17.881  0.00  0.00    +0.000 C 
ATOM     17  C   UNL     1       2.366   7.473  19.105  0.00  0.00    +0.000 A 
ENDROOT
BRANCH  14  18
ATOM     18  C   UNL     1       0.239  10.601  20.045  0.00  0.00    +0.000 C 
BRANCH  18  19
ATOM     19  C   UNL     1      -0.714  10.852  18.876  0.00  0.00    +0.000 C 
ATOM     20  O   UNL     1      -0.558  11.832  18.146  0.00  0.00    +0.000 OA
ATOM     21  N   UNL     1      -1.709   9.919  18.634  0.00  0.00    +0.000 N 
ATOM     22  H   UNL     1      -1.818   9.111  19.240  0.00  0.00    +0.000 HD
BRANCH  21  23
ATOM     23  C   UNL     1      -2.514  10.079  17.425  0.00  0.00    +0.000 C 
BRANCH  23  24
ATOM     24  C   UNL     1      -3.301  11.386  17.276  0.00  0.00    +0.000 C 
BRANCH  24  25
ATOM     25  C   UNL     1      -4.428  11.462  18.291  0.00  0.00    +0.000 A 
ATOM     26  C   UNL     1      -4.303  12.273  19.431  0.00  0.00    +0.000 A 
ATOM     27  C   UNL     1      -5.316  12.335  20.387  0.00  0.00    +0.000 A 
ATOM     28  C   UNL     1      -6.472  11.574  20.223  0.00  0.00    +0.000 A 
ATOM     29 CL   UNL     1      -7.724  11.654  21.396  0.00  0.00    +0.000 Cl
ATOM     30  C   UNL     1      -6.616  10.747  19.106  0.00  0.00    +0.000 A 
ATOM     31  C   UNL     1      -5.596  10.691  18.148  0.00  0.00    +0.000 A 
ENDBRANCH  24  25
ENDBRANCH  23  24
ENDBRANCH  21  23
ENDBRANCH  18  19
ENDBRANCH  14  18
TORSDOF 5
ENDMDL
MODEL 5
REMARK VINA RESULT:      -7.7      4.077      5.196
REMARK  Name = 
REMARK  8 active torsions:
REMARK  status: ('A' for Active; 'I' for Inactive)
REMARK    1  A    between atoms: C_1  and  C_2
REMARK    2  A    between atoms: C_7  and  C_8
REMARK    3  A    between atoms: C_14  and  C_15
REMARK    4  A    between atoms: C_15  and  C_16
REMARK    5  A    between atoms: N_18  and  C_19
REMARK    6  A    between atoms: C_19  and  C_20
REMARK    7  A    between atoms: C_20  and  C_21
REMARK    8  A    between atoms: C_28  and  C_29
REMARK                            x       y       z     vdW  Elec       q    Type
REMARK                         _______ _______ _______ _____ _____    ______ ____
ROOT
ATOM      1  C   UNL     1      -0.760  13.467  21.039  0.00  0.00    +0.000 C 
ATOM      2  C   UNL     1      -0.105  12.349  20.310  0.00  0.00    +0.000 A 
ATOM      3  C   UNL     1       0.392  12.399  19.023  0.00  0.00    +0.000 A 
ATOM      4  O   UNL     1       0.916  11.206  18.661  0.00  0.00    +0.000 OA
ATOM      5  C   UNL     1       0.774  10.340  19.711  0.00  0.00    +0.000 A 
ATOM      6  C   UNL     1       0.146  11.016  20.775  0.00  0.00    +0.000 A 
ATOM      7  C   UNL     1      -0.103  10.317  21.984  0.00  0.00    +0.000 A 
ATOM      8  C   UNL     1      -0.762  10.876  23.218  0.00  0.00    +0.000 C 
ATOM      9  C   UNL     1       0.303   8.973  22.039  0.00  0.00    +0.000 A 
ATOM     10  C   UNL     1       0.919   8.350  20.955  0.00  0.00    +0.000 A 
ATOM     11  O   UNL     1       1.278   7.009  21.148  0.00  0.00    +0.000 OA
ATOM     12  C   UNL     1       1.930   6.282  20.169  0.00  0.00    +0.000 A 
ATOM     13  O   UNL     1       2.291   5.128  20.382  0.00  0.00    +0.000 OA
ATOM     14  C   UNL     1       2.193   6.950  18.863  0.00  0.00    +0.000 A 
ATOM     15  C   UNL     1       1.852   8.251  18.656  0.00  0.00    +0.000 A 
ATOM     16  C   UNL     1       2.134   8.981  17.371  0.00  0.00    +0.000 C 
ATOM     17  C   UNL     1       1.182   8.992  19.749  0.00  0.00    +0.000 A 
ENDROOT
BRANCH  14  18
ATOM     18  C   UNL     1       2.966   6.057  17.904  0.00  0.00    +0.000 C 
BRANCH  18  19
ATOM     19  C   UNL     1       4.479   6.279  17.902  0.00  0.00    +0.000 C 
ATOM     20  O   UNL     1       4.971   7.204  17.253  0.00  0.00    +0.000 OA
ATOM     21  N   UNL     1       5.260   5.452  18.692  0.00  0.00    +0.000 N 
ATOM     22  H   UNL     1       4.838   4.700  19.230  0.00  0.00    +0.000 HD
BRANCH  21  23
ATOM     23  C   UNL     1       6.683   5.768  18.811  0.00  0.00    +0.000 C 
BRANCH  23  24
ATOM     24  C   UNL     1       7.663   4.882  18.034  0.00  0.00    +0.000 C 
BRANCH  24  25
ATOM     25  C   UNL     1       7.117   4.540  16.659  0.00  0.00    +0.000 A 
ATOM     26  C   UNL     1       7.619   5.184  15.516  0.00  0.00    +0.000 A 
ATOM     27  C   UNL     1       7.110   4.902  14.248  0.00  0.00    +0.000 A 
ATOM     28  C   UNL     1       6.081   3.974  14.104  0.00  0.00    +0.000 A 
ATOM     29 CL   UNL     1       5.459   3.620  12.543  0.00  0.00    +0.000 Cl
ATOM     30  C   UNL     1       5.553   3.330  15.226  0.00  0.00    +0.000 A 
ATOM     31  C   UNL     1       6.068   3.616  16.497  0.00  0.00    +0.000 A 
ENDBRANCH  24  25
ENDBRANCH  23  24
ENDBRANCH  21  23
ENDBRANCH  18  19
ENDBRANCH  14  18
TORSDOF 5
ENDMDL
MODEL 6
REMARK VINA RESULT:      -7.6      4.660      7.516
REMARK  Name = 
REMARK  8 active torsions:
REMARK  status: ('A' for Active; 'I' for Inactive)
REMARK    1  A    between atoms: C_1  and  C_2
REMARK    2  A    between atoms: C_7  and  C_8
REMARK    3  A    between atoms: C_14  and  C_15
REMARK    4  A    between atoms: C_15  and  C_16
REMARK    5  A    between atoms: N_18  and  C_19
REMARK    6  A    between atoms: C_19  and  C_20
REMARK    7  A    between atoms: C_20  and  C_21
REMARK    8  A    between atoms: C_28  and  C_29
REMARK                            x       y       z     vdW  Elec       q    Type
REMARK                         _______ _______ _______ _____ _____    ______ ____
ROOT
ATOM      1  C   UNL     1      -6.723  12.649  17.163  0.00  0.00    +0.000 C 
ATOM      2  C   UNL     1      -5.367  12.080  17.383  0.00  0.00    +0.000 A 
ATOM      3  C   UNL     1      -4.665  11.284  16.499  0.00  0.00    +0.000 A 
ATOM      4  O   UNL     1      -3.466  10.932  17.014  0.00  0.00    +0.000 OA
ATOM      5  C   UNL     1      -3.352  11.495  18.256  0.00  0.00    +0.000 A 
ATOM      6  C   UNL     1      -4.519  12.234  18.530  0.00  0.00    +0.000 A 
ATOM      7  C   UNL     1      -4.628  12.917  19.768  0.00  0.00    +0.000 A 
ATOM      8  C   UNL     1      -5.797  13.750  20.227  0.00  0.00    +0.000 C 
ATOM      9  C   UNL     1      -3.544  12.808  20.654  0.00  0.00    +0.000 A 
ATOM     10  C   UNL     1      -2.412  12.060  20.336  0.00  0.00    +0.000 A 
ATOM     11  O   UNL     1      -1.402  12.043  21.309  0.00  0.00    +0.000 OA
ATOM     12  C   UNL     1      -0.210  11.371  21.107  0.00  0.00    +0.000 A 
ATOM     13  O   UNL     1       0.686  11.420  21.946  0.00  0.00    +0.000 OA
ATOM     14  C   UNL     1      -0.044  10.607  19.839  0.00  0.00    +0.000 A 
ATOM     15  C   UNL     1      -1.013  10.612  18.883  0.00  0.00    +0.000 A 
ATOM     16  C   UNL     1      -0.877   9.891  17.569  0.00  0.00    +0.000 C 
ATOM     17  C   UNL     1      -2.258  11.371  19.137  0.00  0.00    +0.000 A 
ENDROOT
BRANCH  14  18
ATOM     18  C   UNL     1       1.331   9.969  19.725  0.00  0.00    +0.000 C 
BRANCH  18  19
ATOM     19  C   UNL     1       1.403   8.516  20.197  0.00  0.00    +0.000 C 
ATOM     20  O   UNL     1       0.674   8.122  21.109  0.00  0.00    +0.000 OA
ATOM     21  N   UNL     1       2.262   7.656  19.534  0.00  0.00    +0.000 N 
ATOM     22  H   UNL     1       2.850   7.994  18.777  0.00  0.00    +0.000 HD
BRANCH  21  23
ATOM     23  C   UNL     1       2.211   6.237  19.883  0.00  0.00    +0.000 C 
BRANCH  23  24
ATOM     24  C   UNL     1       2.015   5.240  18.736  0.00  0.00    +0.000 C 
BRANCH  24  25
ATOM     25  C   UNL     1       3.269   5.136  17.885  0.00  0.00    +0.000 A 
ATOM     26  C   UNL     1       3.676   3.894  17.372  0.00  0.00    +0.000 A 
ATOM     27  C   UNL     1       4.839   3.774  16.611  0.00  0.00    +0.000 A 
ATOM     28  C   UNL     1       5.621   4.899  16.357  0.00  0.00    +0.000 A 
ATOM     29 CL   UNL     1       7.049   4.755  15.414  0.00  0.00    +0.000 Cl
ATOM     30  C   UNL     1       5.247   6.144  16.868  0.00  0.00    +0.000 A 
ATOM     31  C   UNL     1       4.077   6.259  17.631  0.00  0.00    +0.000 A 
ENDBRANCH  24  25
ENDBRANCH  23  24
ENDBRANCH  21  23
ENDBRANCH  18  19
ENDBRANCH  14  18
TORSDOF 5
ENDMDL
MODEL 7
REMARK VINA RESULT:      -7.6      5.406      9.477
REMARK  Name = 
REMARK  8 active torsions:
REMARK  status: ('A' for Active; 'I' for Inactive)
REMARK    1  A    between atoms: C_1  and  C_2
REMARK    2  A    between atoms: C_7  and  C_8
REMARK    3  A    between atoms: C_14  and  C_15
REMARK    4  A    between atoms: C_15  and  C_16
REMARK    5  A    between atoms: N_18  and  C_19
REMARK    6  A    between atoms: C_19  and  C_20
REMARK    7  A    between atoms: C_20  and  C_21
REMARK    8  A    between atoms: C_28  and  C_29
REMARK                            x       y       z     vdW  Elec       q    Type
REMARK                         _______ _______ _______ _____ _____    ______ ____
ROOT
ATOM      1  C   UNL     1       3.369   3.670  19.104  0.00  0.00    +0.000 C 
ATOM      2  C   UNL     1       2.741   4.907  19.641  0.00  0.00    +0.000 A 
ATOM      3  C   UNL     1       2.044   5.017  20.827  0.00  0.00    +0.000 A 
ATOM      4  O   UNL     1       1.598   6.280  21.010  0.00  0.00    +0.000 OA
ATOM      5  C   UNL     1       1.997   7.034  19.940  0.00  0.00    +0.000 A 
ATOM      6  C   UNL     1       2.727   6.216  19.055  0.00  0.00    +0.000 A 
ATOM      7  C   UNL     1       3.252   6.784  17.866  0.00  0.00    +0.000 A 
ATOM      8  C   UNL     1       4.052   6.065  16.811  0.00  0.00    +0.000 C 
ATOM      9  C   UNL     1       3.004   8.150  17.648  0.00  0.00    +0.000 A 
ATOM     10  C   UNL     1       2.272   8.914  18.555  0.00  0.00    +0.000 A 
ATOM     11  O   UNL     1       2.106  10.265  18.217  0.00  0.00    +0.000 OA
ATOM     12  C   UNL     1       1.433  11.144  19.046  0.00  0.00    +0.000 A 
ATOM     13  O   UNL     1       1.353  12.336  18.760  0.00  0.00    +0.000 OA
ATOM     14  C   UNL     1       0.831  10.603  20.296  0.00  0.00    +0.000 A 
ATOM     15  C   UNL     1       0.981   9.295  20.641  0.00  0.00    +0.000 A 
ATOM     16  C   UNL     1       0.428   8.711  21.913  0.00  0.00    +0.000 C 
ATOM     17  C   UNL     1       1.735   8.403  19.733  0.00  0.00    +0.000 A 
ENDROOT
BRANCH  14  18
ATOM     18  C   UNL     1       0.175  11.688  21.137  0.00  0.00    +0.000 C 
BRANCH  18  19
ATOM     19  C   UNL     1      -1.335  11.825  20.938  0.00  0.00    +0.000 C 
ATOM     20  O   UNL     1      -2.107  11.608  21.873  0.00  0.00    +0.000 OA
ATOM     21  N   UNL     1      -1.794  12.256  19.704  0.00  0.00    +0.000 N 
ATOM     22  H   UNL     1      -1.143  12.441  18.946  0.00  0.00    +0.000 HD
BRANCH  21  23
ATOM     23  C   UNL     1      -3.222  12.538  19.568  0.00  0.00    +0.000 C 
BRANCH  23  24
ATOM     24  C   UNL     1      -4.124  11.383  19.120  0.00  0.00    +0.000 C 
BRANCH  24  25
ATOM     25  C   UNL     1      -3.784  10.943  17.706  0.00  0.00    +0.000 A 
ATOM     26  C   UNL     1      -2.768  10.000  17.483  0.00  0.00    +0.000 A 
ATOM     27  C   UNL     1      -2.424   9.604  16.190  0.00  0.00    +0.000 A 
ATOM     28  C   UNL     1      -3.088  10.155  15.096  0.00  0.00    +0.000 A 
ATOM     29 CL   UNL     1      -2.671   9.663  13.504  0.00  0.00    +0.000 Cl
ATOM     30  C   UNL     1      -4.092  11.106  15.290  0.00  0.00    +0.000 A 
ATOM     31  C   UNL     1      -4.434  11.499  16.590  0.00  0.00    +0.000 A 
ENDBRANCH  24  25
ENDBRANCH  23  24
ENDBRANCH  21  23
ENDBRANCH  18  19
ENDBRANCH  14  18
TORSDOF 5
ENDMDL
MODEL 8
REMARK VINA RESULT:      -7.5      5.729      9.551
REMARK  Name = 
REMARK  8 active torsions:
REMARK  status: ('A' for Active; 'I' for Inactive)
REMARK    1  A    between atoms: C_1  and  C_2
REMARK    2  A    between atoms: C_7  and  C_8
REMARK    3  A    between atoms: C_14  and  C_15
REMARK    4  A    between atoms: C_15  and  C_16
REMARK    5  A    between atoms: N_18  and  C_19
REMARK    6  A    between atoms: C_19  and  C_20
REMARK    7  A    between atoms: C_20  and  C_21
REMARK    8  A    between atoms: C_28  and  C_29
REMARK                            x       y       z     vdW  Elec       q    Type
REMARK                         _______ _______ _______ _____ _____    ______ ____
ROOT
ATOM      1  C   UNL     1       3.409   2.004  18.111  0.00  0.00    +0.000 C 
ATOM      2  C   UNL     1       3.164   3.470  18.079  0.00  0.00    +0.000 A 
ATOM      3  C   UNL     1       3.454   4.320  17.031  0.00  0.00    +0.000 A 
ATOM      4  O   UNL     1       3.113   5.593  17.333  0.00  0.00    +0.000 OA
ATOM      5  C   UNL     1       2.586   5.607  18.595  0.00  0.00    +0.000 A 
ATOM      6  C   UNL     1       2.589   4.293  19.103  0.00  0.00    +0.000 A 
ATOM      7  C   UNL     1       2.079   4.057  20.406  0.00  0.00    +0.000 A 
ATOM      8  C   UNL     1       2.005   2.725  21.106  0.00  0.00    +0.000 C 
ATOM      9  C   UNL     1       1.597   5.170  21.114  0.00  0.00    +0.000 A 
ATOM     10  C   UNL     1       1.620   6.451  20.566  0.00  0.00    +0.000 A 
ATOM     11  O   UNL     1       1.101   7.469  21.378  0.00  0.00    +0.000 OA
ATOM     12  C   UNL     1       1.028   8.780  20.944  0.00  0.00    +0.000 A 
ATOM     13  O   UNL     1       0.513   9.645  21.648  0.00  0.00    +0.000 OA
ATOM     14  C   UNL     1       1.575   9.101  19.596  0.00  0.00    +0.000 A 
ATOM     15  C   UNL     1       2.084   8.127  18.793  0.00  0.00    +0.000 A 
ATOM     16  C   UNL     1       2.609   8.393  17.408  0.00  0.00    +0.000 C 
ATOM     17  C   UNL     1       2.111   6.735  19.295  0.00  0.00    +0.000 A 
ENDROOT
BRANCH  14  18
ATOM     18  C   UNL     1       1.377  10.562  19.225  0.00  0.00    +0.000 C 
BRANCH  18  19
ATOM     19  C   UNL     1      -0.065  10.948  18.894  0.00  0.00    +0.000 C 
ATOM     20  O   UNL     1      -0.699  11.687  19.649  0.00  0.00    +0.000 OA
ATOM     21  N   UNL     1      -0.605  10.492  17.703  0.00  0.00    +0.000 N 
ATOM     22  H   UNL     1      -0.066   9.891  17.087  0.00  0.00    +0.000 HD
BRANCH  21  23
ATOM     23  C   UNL     1      -1.924  10.992  17.317  0.00  0.00    +0.000 C 
BRANCH  23  24
ATOM     24  C   UNL     1      -3.143  10.214  17.823  0.00  0.00    +0.000 C 
BRANCH  24  25
ATOM     25  C   UNL     1      -4.274  11.157  18.197  0.00  0.00    +0.000 A 
ATOM     26  C   UNL     1      -5.501  11.098  17.516  0.00  0.00    +0.000 A 
ATOM     27  C   UNL     1      -6.541  11.973  17.827  0.00  0.00    +0.000 A 
ATOM     28  C   UNL     1      -6.367  12.932  18.824  0.00  0.00    +0.000 A 
ATOM     29 CL   UNL     1      -7.649  14.006  19.214  0.00  0.00    +0.000 Cl
ATOM     30  C   UNL     1      -5.151  13.021  19.507  0.00  0.00    +0.000 A 
ATOM     31  C   UNL     1      -4.111  12.139  19.191  0.00  0.00    +0.000 A 
ENDBRANCH  24  25
ENDBRANCH  23  24
ENDBRANCH  21  23
ENDBRANCH  18  19
ENDBRANCH  14  18
TORSDOF 5
ENDMDL
MODEL 9
REMARK VINA RESULT:      -7.5      3.436      6.260
REMARK  Name = 
REMARK  8 active torsions:
REMARK  status: ('A' for Active; 'I' for Inactive)
REMARK    1  A    between atoms: C_1  and  C_2
REMARK    2  A    between atoms: C_7  and  C_8
REMARK    3  A    between atoms: C_14  and  C_15
REMARK    4  A    between atoms: C_15  and  C_16
REMARK    5  A    between atoms: N_18  and  C_19
REMARK    6  A    between atoms: C_19  and  C_20
REMARK    7  A    between atoms: C_20  and  C_21
REMARK    8  A    between atoms: C_28  and  C_29
REMARK                            x       y       z     vdW  Elec       q    Type
REMARK                         _______ _______ _______ _____ _____    ______ ____
ROOT
ATOM      1  C   UNL     1       3.953   2.531  20.034  0.00  0.00    +0.000 C 
ATOM      2  C   UNL     1       3.239   3.829  20.163  0.00  0.00    +0.000 A 
ATOM      3  C   UNL     1       2.366   4.180  21.172  0.00  0.00    +0.000 A 
ATOM      4  O   UNL     1       1.886   5.430  20.983  0.00  0.00    +0.000 OA
ATOM      5  C   UNL     1       2.439   5.931  19.836  0.00  0.00    +0.000 A 
ATOM      6  C   UNL     1       3.304   4.964  19.288  0.00  0.00    +0.000 A 
ATOM      7  C   UNL     1       4.002   5.263  18.090  0.00  0.00    +0.000 A 
ATOM      8  C   UNL     1       4.962   4.355  17.366  0.00  0.00    +0.000 C 
ATOM      9  C   UNL     1       3.779   6.528  17.521  0.00  0.00    +0.000 A 
ATOM     10  C   UNL     1       2.909   7.448  18.102  0.00  0.00    +0.000 A 
ATOM     11  O   UNL     1       2.785   8.675  17.433  0.00  0.00    +0.000 OA
ATOM     12  C   UNL     1       1.985   9.691  17.921  0.00  0.00    +0.000 A 
ATOM     13  O   UNL     1       1.939  10.779  17.352  0.00  0.00    +0.000 OA
ATOM     14  C   UNL     1       1.200   9.430  19.160  0.00  0.00    +0.000 A 
ATOM     15  C   UNL     1       1.307   8.246  19.823  0.00  0.00    +0.000 A 
ATOM     16  C   UNL     1       0.569   7.949  21.101  0.00  0.00    +0.000 C 
ATOM     17  C   UNL     1       2.200   7.202  19.274  0.00  0.00    +0.000 A 
ENDROOT
BRANCH  14  18
ATOM     18  C   UNL     1       0.413  10.649  19.614  0.00  0.00    +0.000 C 
BRANCH  18  19
ATOM     19  C   UNL     1       1.222  11.671  20.413  0.00  0.00    +0.000 C 
ATOM     20  O   UNL     1       1.519  11.448  21.587  0.00  0.00    +0.000 OA
ATOM     21  N   UNL     1       1.654  12.814  19.760  0.00  0.00    +0.000 N 
ATOM     22  H   UNL     1       1.410  12.979  18.788  0.00  0.00    +0.000 HD
BRANCH  21  23
ATOM     23  C   UNL     1       2.559  13.709  20.481  0.00  0.00    +0.000 C 
BRANCH  23  24
ATOM     24  C   UNL     1       2.990  14.994  19.765  0.00  0.00    +0.000 C 
BRANCH  24  25
ATOM     25  C   UNL     1       4.461  14.943  19.392  0.00  0.00    +0.000 A 
ATOM     26  C   UNL     1       4.849  14.669  18.070  0.00  0.00    +0.000 A 
ATOM     27  C   UNL     1       6.195  14.591  17.715  0.00  0.00    +0.000 A 
ATOM     28  C   UNL     1       7.180  14.777  18.683  0.00  0.00    +0.000 A 
ATOM     29 CL   UNL     1       8.839  14.689  18.247  0.00  0.00    +0.000 Cl
ATOM     30  C   UNL     1       6.822  15.036  20.009  0.00  0.00    +0.000 A 
ATOM     31  C   UNL     1       5.468  15.114  20.359  0.00  0.00    +0.000 A 
ENDBRANCH  24  25
ENDBRANCH  23  24
ENDBRANCH  21  23
ENDBRANCH  18  19
ENDBRANCH  14  18
TORSDOF 5
ENDMDL
