MODEL 1
REMARK VINA RESULT:      -8.0      0.000      0.000
REMARK  Name = 
REMARK  9 active torsions:
REMARK  status: ('A' for Active; 'I' for Inactive)
REMARK    1  A    between atoms: C_1  and  C_2
REMARK    2  A    between atoms: C_5  and  N_6
REMARK    3  A    between atoms: C_7  and  C_9
REMARK    4  A    between atoms: C_9  and  S_10
REMARK    5  A    between atoms: S_10  and  C_11
REMARK    6  A    between atoms: C_11  and  C_12
REMARK    7  A    between atoms: N_14  and  C_15
REMARK    8  A    between atoms: C_18  and  S_19
REMARK    9  A    between atoms: S_19  and  N_22
REMARK                            x       y       z     vdW  Elec       q    Type
REMARK                         _______ _______ _______ _____ _____    ______ ____
ROOT
ATOM      1  C   UNL     1       1.911   4.617  20.299  0.00  0.00    +0.000 C 
ATOM      2  O   UNL     1       0.678   4.616  20.340  0.00  0.00    +0.000 OA
ATOM      3  N   UNL     1       2.712   5.692  19.946  0.00  0.00    +0.000 N 
ATOM      4  H   UNL     1       3.703   5.514  19.832  0.00  0.00    +0.000 HD
ENDROOT
BRANCH   3   5
ATOM      5  C   UNL     1       2.282   7.016  19.685  0.00  0.00    +0.000 A 
ATOM      6  C   UNL     1       2.412   7.642  18.440  0.00  0.00    +0.000 A 
ATOM      7  C   UNL     1       1.933   8.945  18.229  0.00  0.00    +0.000 A 
ATOM      8  C   UNL     1       1.295   9.631  19.261  0.00  0.00    +0.000 A 
ATOM      9  C   UNL     1       1.204   9.040  20.525  0.00  0.00    +0.000 A 
ATOM     10  C   UNL     1       1.676   7.733  20.727  0.00  0.00    +0.000 A 
BRANCH   8  11
ATOM     11  S   UNL     1       0.806  11.340  19.042  0.00  0.00    +0.000 S 
ATOM     12  O   UNL     1       1.952  12.023  18.488  0.00  0.00    +0.000 OA
ATOM     13  O   UNL     1      -0.462  11.327  18.333  0.00  0.00    +0.000 OA
BRANCH  11  14
ATOM     14  N   UNL     1       0.529  11.989  20.571  0.00  0.00    +0.000 NA
ATOM     15  C   UNL     1      -0.779  11.821  21.242  0.00  0.00    +0.000 C 
ATOM     16  C   UNL     1      -1.670  13.038  20.980  0.00  0.00    +0.000 C 
ATOM     17  O   UNL     1      -1.030  14.273  21.337  0.00  0.00    +0.000 OA
ATOM     18  C   UNL     1       0.263  14.441  20.735  0.00  0.00    +0.000 C 
ATOM     19  C   UNL     1       1.180  13.248  21.000  0.00  0.00    +0.000 C 
ENDBRANCH  11  14
ENDBRANCH   8  11
ENDBRANCH   3   5
BRANCH   1  20
ATOM     20  C   UNL     1       2.674   3.353  20.668  0.00  0.00    +0.000 C 
BRANCH  20  21
ATOM     21  S   UNL     1       2.327   1.992  19.503  0.00  0.00    +0.000 S 
BRANCH  21  22
ATOM     22  C   UNL     1       3.893   1.975  18.540  0.00  0.00    +0.000 C 
BRANCH  22  24
ATOM     23  N   UNL     1       5.527   3.813  18.587  0.00  0.00    +0.000 N 
ATOM     24  C   UNL     1       4.315   3.371  18.080  0.00  0.00    +0.000 C 
ATOM     25  O   UNL     1       3.571   4.015  17.344  0.00  0.00    +0.000 OA
ATOM     26  H   UNL     1       6.084   3.106  19.055  0.00  0.00    +0.000 HD
BRANCH  23  31
ATOM     27  C   UNL     1       8.215   8.784  17.612  0.00  0.00    +0.000 C 
ATOM     28  C   UNL     1       7.498   7.490  17.864  0.00  0.00    +0.000 A 
ATOM     29  C   UNL     1       6.303   7.199  17.202  0.00  0.00    +0.000 A 
ATOM     30  C   UNL     1       5.636   5.992  17.433  0.00  0.00    +0.000 A 
ATOM     31  C   UNL     1       6.147   5.055  18.331  0.00  0.00    +0.000 A 
ATOM     32  C   UNL     1       7.332   5.355  19.014  0.00  0.00    +0.000 A 
ATOM     33  C   UNL     1       8.007   6.559  18.774  0.00  0.00    +0.000 A 
ENDBRANCH  23  31
ENDBRANCH  22  24
ENDBRANCH  21  22
ENDBRANCH  20  21
ENDBRANCH   1  20
TORSDOF 8
ENDMDL
MODEL 2
REMARK VINA RESULT:      -7.8      2.936      9.247
REMARK  Name = 
REMARK  9 active torsions:
REMARK  status: ('A' for Active; 'I' for Inactive)
REMARK    1  A    between atoms: C_1  and  C_2
REMARK    2  A    between atoms: C_5  and  N_6
REMARK    3  A    between atoms: C_7  and  C_9
REMARK    4  A    between atoms: C_9  and  S_10
REMARK    5  A    between atoms: S_10  and  C_11
REMARK    6  A    between atoms: C_11  and  C_12
REMARK    7  A    between atoms: N_14  and  C_15
REMARK    8  A    between atoms: C_18  and  S_19
REMARK    9  A    between atoms: S_19  and  N_22
REMARK                            x       y       z     vdW  Elec       q    Type
REMARK                         _______ _______ _______ _____ _____    ______ ____
ROOT
ATOM      1  C   UNL     1       0.281   9.851  20.991  0.00  0.00    +0.000 C 
ATOM      2  O   UNL     1      -0.736   9.562  20.358  0.00  0.00    +0.000 OA
ATOM      3  N   UNL     1       1.418   9.066  21.106  0.00  0.00    +0.000 N 
ATOM      4  H   UNL     1       2.127   9.370  21.762  0.00  0.00    +0.000 HD
ENDROOT
BRANCH   3   5
ATOM      5  C   UNL     1       1.676   7.848  20.429  0.00  0.00    +0.000 A 
ATOM      6  C   UNL     1       2.096   7.777  19.096  0.00  0.00    +0.000 A 
ATOM      7  C   UNL     1       2.372   6.542  18.487  0.00  0.00    +0.000 A 
ATOM      8  C   UNL     1       2.251   5.360  19.217  0.00  0.00    +0.000 A 
ATOM      9  C   UNL     1       1.781   5.411  20.533  0.00  0.00    +0.000 A 
ATOM     10  C   UNL     1       1.516   6.649  21.139  0.00  0.00    +0.000 A 
BRANCH   8  11
ATOM     11  S   UNL     1       2.466   3.776  18.411  0.00  0.00    +0.000 S 
ATOM     12  O   UNL     1       2.139   2.771  19.395  0.00  0.00    +0.000 OA
ATOM     13  O   UNL     1       1.743   3.843  17.153  0.00  0.00    +0.000 OA
BRANCH  11  14
ATOM     14  N   UNL     1       4.103   3.607  18.050  0.00  0.00    +0.000 NA
ATOM     15  C   UNL     1       5.136   3.826  19.086  0.00  0.00    +0.000 C 
ATOM     16  C   UNL     1       5.659   5.263  19.019  0.00  0.00    +0.000 C 
ATOM     17  O   UNL     1       6.121   5.618  17.706  0.00  0.00    +0.000 OA
ATOM     18  C   UNL     1       5.152   5.372  16.674  0.00  0.00    +0.000 C 
ATOM     19  C   UNL     1       4.630   3.936  16.706  0.00  0.00    +0.000 C 
ENDBRANCH  11  14
ENDBRANCH   8  11
ENDBRANCH   3   5
BRANCH   1  20
ATOM     20  C   UNL     1       0.355  11.183  21.725  0.00  0.00    +0.000 C 
BRANCH  20  21
ATOM     21  S   UNL     1      -1.213  11.573  22.573  0.00  0.00    +0.000 S 
BRANCH  21  22
ATOM     22  C   UNL     1      -1.708  13.094  21.667  0.00  0.00    +0.000 C 
BRANCH  22  24
ATOM     23  N   UNL     1      -2.676  11.877  19.761  0.00  0.00    +0.000 N 
ATOM     24  C   UNL     1      -1.798  12.874  20.156  0.00  0.00    +0.000 C 
ATOM     25  O   UNL     1      -1.090  13.542  19.406  0.00  0.00    +0.000 OA
ATOM     26  H   UNL     1      -3.291  11.529  20.487  0.00  0.00    +0.000 HD
BRANCH  23  31
ATOM     27  C   UNL     1      -3.638  10.078  14.401  0.00  0.00    +0.000 C 
ATOM     28  C   UNL     1      -3.395  10.561  15.801  0.00  0.00    +0.000 A 
ATOM     29  C   UNL     1      -4.389  11.254  16.495  0.00  0.00    +0.000 A 
ATOM     30  C   UNL     1      -4.167  11.701  17.801  0.00  0.00    +0.000 A 
ATOM     31  C   UNL     1      -2.947  11.467  18.437  0.00  0.00    +0.000 A 
ATOM     32  C   UNL     1      -1.941  10.794  17.735  0.00  0.00    +0.000 A 
ATOM     33  C   UNL     1      -2.168  10.335  16.430  0.00  0.00    +0.000 A 
ENDBRANCH  23  31
ENDBRANCH  22  24
ENDBRANCH  21  22
ENDBRANCH  20  21
ENDBRANCH   1  20
TORSDOF 8
ENDMDL
MODEL 3
REMARK VINA RESULT:      -7.7      1.210      1.679
REMARK  Name = 
REMARK  9 active torsions:
REMARK  status: ('A' for Active; 'I' for Inactive)
REMARK    1  A    between atoms: C_1  and  C_2
REMARK    2  A    between atoms: C_5  and  N_6
REMARK    3  A    between atoms: C_7  and  C_9
REMARK    4  A    between atoms: C_9  and  S_10
REMARK    5  A    between atoms: S_10  and  C_11
REMARK    6  A    between atoms: C_11  and  C_12
REMARK    7  A    between atoms: N_14  and  C_15
REMARK    8  A    between atoms: C_18  and  S_19
REMARK    9  A    between atoms: S_19  and  N_22
REMARK                            x       y       z     vdW  Elec       q    Type
REMARK                         _______ _______ _______ _____ _____    ______ ____
ROOT
ATOM      1  C   UNL     1       2.079   4.754  19.996  0.00  0.00    +0.000 C 
ATOM      2  O   UNL     1       0.896   4.581  19.693  0.00  0.00    +0.000 OA
ATOM      3  N   UNL     1       2.731   5.976  20.065  0.00  0.00    +0.000 N 
ATOM      4  H   UNL     1       3.734   5.959  20.201  0.00  0.00    +0.000 HD
ENDROOT
BRANCH   3   5
ATOM      5  C   UNL     1       2.142   7.257  19.920  0.00  0.00    +0.000 A 
ATOM      6  C   UNL     1       2.142   7.979  18.722  0.00  0.00    +0.000 A 
ATOM      7  C   UNL     1       1.511   9.229  18.627  0.00  0.00    +0.000 A 
ATOM      8  C   UNL     1       0.848   9.763  19.731  0.00  0.00    +0.000 A 
ATOM      9  C   UNL     1       0.885   9.078  20.951  0.00  0.00    +0.000 A 
ATOM     10  C   UNL     1       1.509   7.824  21.036  0.00  0.00    +0.000 A 
BRANCH   8  11
ATOM     11  S   UNL     1       0.160  11.415  19.660  0.00  0.00    +0.000 S 
ATOM     12  O   UNL     1      -0.635  11.473  18.456  0.00  0.00    +0.000 OA
ATOM     13  O   UNL     1      -0.439  11.676  20.957  0.00  0.00    +0.000 OA
BRANCH  11  14
ATOM     14  N   UNL     1       1.441  12.491  19.465  0.00  0.00    +0.000 NA
ATOM     15  C   UNL     1       2.187  13.006  20.634  0.00  0.00    +0.000 C 
ATOM     16  C   UNL     1       1.616  14.357  21.074  0.00  0.00    +0.000 C 
ATOM     17  O   UNL     1       1.567  15.307  19.999  0.00  0.00    +0.000 OA
ATOM     18  C   UNL     1       0.888  14.815  18.832  0.00  0.00    +0.000 C 
ATOM     19  C   UNL     1       1.454  13.476  18.359  0.00  0.00    +0.000 C 
ENDBRANCH  11  14
ENDBRANCH   8  11
ENDBRANCH   3   5
BRANCH   1  20
ATOM     20  C   UNL     1       2.947   3.553  20.345  0.00  0.00    +0.000 C 
BRANCH  20  21
ATOM     21  S   UNL     1       2.487   2.083  19.367  0.00  0.00    +0.000 S 
BRANCH  21  22
ATOM     22  C   UNL     1       3.870   2.048  18.156  0.00  0.00    +0.000 C 
BRANCH  22  24
ATOM     23  N   UNL     1       5.577   3.802  18.393  0.00  0.00    +0.000 N 
ATOM     24  C   UNL     1       4.375   3.447  17.801  0.00  0.00    +0.000 C 
ATOM     25  O   UNL     1       3.700   4.165  17.067  0.00  0.00    +0.000 OA
ATOM     26  H   UNL     1       6.077   3.046  18.846  0.00  0.00    +0.000 HD
BRANCH  23  31
ATOM     27  C   UNL     1       8.200   8.857  17.716  0.00  0.00    +0.000 C 
ATOM     28  C   UNL     1       7.527   7.528  17.896  0.00  0.00    +0.000 A 
ATOM     29  C   UNL     1       8.065   6.571  18.759  0.00  0.00    +0.000 A 
ATOM     30  C   UNL     1       7.437   5.333  18.931  0.00  0.00    +0.000 A 
ATOM     31  C   UNL     1       6.263   5.027  18.243  0.00  0.00    +0.000 A 
ATOM     32  C   UNL     1       5.736   5.975  17.358  0.00  0.00    +0.000 A 
ATOM     33  C   UNL     1       6.358   7.220  17.195  0.00  0.00    +0.000 A 
ENDBRANCH  23  31
ENDBRANCH  22  24
ENDBRANCH  21  22
ENDBRANCH  20  21
ENDBRANCH   1  20
TORSDOF 8
ENDMDL
MODEL 4
REMARK VINA RESULT:      -7.4      2.754     10.589
REMARK  Name = 
REMARK  9 active torsions:
REMARK  status: ('A' for Active; 'I' for Inactive)
REMARK    1  A    between atoms: C_1  and  C_2
REMARK    2  A    between atoms: C_5  and  N_6
REMARK    3  A    between atoms: C_7  and  C_9
REMARK    4  A    between atoms: C_9  and  S_10
REMARK    5  A    between atoms: S_10  and  C_11
REMARK    6  A    between atoms: C_11  and  C_12
REMARK    7  A    between atoms: N_14  and  C_15
REMARK    8  A    between atoms: C_18  and  S_19
REMARK    9  A    between atoms: S_19  and  N_22
REMARK                            x       y       z     vdW  Elec       q    Type
REMARK                         _______ _______ _______ _____ _____    ______ ____
ROOT
ATOM      1  C   UNL     1      -0.544  10.952  18.645  0.00  0.00    +0.000 C 
ATOM      2  O   UNL     1      -1.297  10.148  18.090  0.00  0.00    +0.000 OA
ATOM      3  N   UNL     1       0.706  10.665  19.172  0.00  0.00    +0.000 N 
ATOM      4  H   UNL     1       1.158  11.392  19.713  0.00  0.00    +0.000 HD
ENDROOT
BRANCH   3   5
ATOM      5  C   UNL     1       1.404   9.437  19.070  0.00  0.00    +0.000 A 
ATOM      6  C   UNL     1       1.474   8.496  20.103  0.00  0.00    +0.000 A 
ATOM      7  C   UNL     1       2.151   7.277  19.931  0.00  0.00    +0.000 A 
ATOM      8  C   UNL     1       2.749   6.976  18.709  0.00  0.00    +0.000 A 
ATOM      9  C   UNL     1       2.734   7.929  17.684  0.00  0.00    +0.000 A 
ATOM     10  C   UNL     1       2.047   9.140  17.859  0.00  0.00    +0.000 A 
BRANCH   8  11
ATOM     11  S   UNL     1       3.730   5.489  18.525  0.00  0.00    +0.000 S 
ATOM     12  O   UNL     1       4.003   5.353  17.114  0.00  0.00    +0.000 OA
ATOM     13  O   UNL     1       4.817   5.583  19.484  0.00  0.00    +0.000 OA
BRANCH  11  14
ATOM     14  N   UNL     1       2.764   4.185  18.975  0.00  0.00    +0.000 NA
ATOM     15  C   UNL     1       3.106   3.356  20.152  0.00  0.00    +0.000 C 
ATOM     16  C   UNL     1       3.908   2.126  19.721  0.00  0.00    +0.000 C 
ATOM     17  O   UNL     1       3.243   1.369  18.698  0.00  0.00    +0.000 OA
ATOM     18  C   UNL     1       2.859   2.160  17.561  0.00  0.00    +0.000 C 
ATOM     19  C   UNL     1       2.037   3.384  17.964  0.00  0.00    +0.000 C 
ENDBRANCH  11  14
ENDBRANCH   8  11
ENDBRANCH   3   5
BRANCH   1  20
ATOM     20  C   UNL     1      -0.971  12.406  18.784  0.00  0.00    +0.000 C 
BRANCH  20  21
ATOM     21  S   UNL     1       0.346  13.427  19.529  0.00  0.00    +0.000 S 
BRANCH  21  22
ATOM     22  C   UNL     1       0.123  13.007  21.305  0.00  0.00    +0.000 C 
BRANCH  22  24
ATOM     23  N   UNL     1      -2.120  12.449  22.144  0.00  0.00    +0.000 N 
ATOM     24  C   UNL     1      -1.228  13.469  21.853  0.00  0.00    +0.000 C 
ATOM     25  O   UNL     1      -1.453  14.671  21.968  0.00  0.00    +0.000 OA
ATOM     26  H   UNL     1      -1.728  11.515  22.137  0.00  0.00    +0.000 HD
BRANCH  23  31
ATOM     27  C   UNL     1      -7.506  12.981  24.043  0.00  0.00    +0.000 C 
ATOM     28  C   UNL     1      -6.091  12.849  23.560  0.00  0.00    +0.000 A 
ATOM     29  C   UNL     1      -5.045  12.661  24.466  0.00  0.00    +0.000 A 
ATOM     30  C   UNL     1      -3.728  12.533  24.016  0.00  0.00    +0.000 A 
ATOM     31  C   UNL     1      -3.429  12.593  22.655  0.00  0.00    +0.000 A 
ATOM     32  C   UNL     1      -4.473  12.806  21.747  0.00  0.00    +0.000 A 
ATOM     33  C   UNL     1      -5.795  12.922  22.195  0.00  0.00    +0.000 A 
ENDBRANCH  23  31
ENDBRANCH  22  24
ENDBRANCH  21  22
ENDBRANCH  20  21
ENDBRANCH   1  20
TORSDOF 8
ENDMDL
MODEL 5
REMARK VINA RESULT:      -7.4      1.528      1.937
REMARK  Name = 
REMARK  9 active torsions:
REMARK  status: ('A' for Active; 'I' for Inactive)
REMARK    1  A    between atoms: C_1  and  C_2
REMARK    2  A    between atoms: C_5  and  N_6
REMARK    3  A    between atoms: C_7  and  C_9
REMARK    4  A    between atoms: C_9  and  S_10
REMARK    5  A    between atoms: S_10  and  C_11
REMARK    6  A    between atoms: C_11  and  C_12
REMARK    7  A    between atoms: N_14  and  C_15
REMARK    8  A    between atoms: C_18  and  S_19
REMARK    9  A    between atoms: S_19  and  N_22
REMARK                            x       y       z     vdW  Elec       q    Type
REMARK                         _______ _______ _______ _____ _____    ______ ____
ROOT
ATOM      1  C   UNL     1       2.230   4.728  18.054  0.00  0.00    +0.000 C 
ATOM      2  O   UNL     1       1.204   4.395  18.652  0.00  0.00    +0.000 OA
ATOM      3  N   UNL     1       2.718   6.021  17.935  0.00  0.00    +0.000 N 
ATOM      4  H   UNL     1       3.500   6.165  17.307  0.00  0.00    +0.000 HD
ENDROOT
BRANCH   3   5
ATOM      5  C   UNL     1       2.206   7.179  18.570  0.00  0.00    +0.000 A 
ATOM      6  C   UNL     1       1.895   8.362  17.891  0.00  0.00    +0.000 A 
ATOM      7  C   UNL     1       1.355   9.467  18.568  0.00  0.00    +0.000 A 
ATOM      8  C   UNL     1       1.097   9.392  19.936  0.00  0.00    +0.000 A 
ATOM      9  C   UNL     1       1.452   8.235  20.638  0.00  0.00    +0.000 A 
ATOM     10  C   UNL     1       1.982   7.130  19.954  0.00  0.00    +0.000 A 
BRANCH   8  11
ATOM     11  S   UNL     1       0.540  10.839  20.831  0.00  0.00    +0.000 S 
ATOM     12  O   UNL     1      -0.259  10.354  21.932  0.00  0.00    +0.000 OA
ATOM     13  O   UNL     1       1.712  11.661  21.073  0.00  0.00    +0.000 OA
BRANCH  11  14
ATOM     14  N   UNL     1      -0.487  11.703  19.812  0.00  0.00    +0.000 NA
ATOM     15  C   UNL     1       0.047  12.724  18.884  0.00  0.00    +0.000 C 
ATOM     16  C   UNL     1      -0.036  14.114  19.521  0.00  0.00    +0.000 C 
ATOM     17  O   UNL     1      -1.361  14.431  19.975  0.00  0.00    +0.000 OA
ATOM     18  C   UNL     1      -1.921  13.431  20.842  0.00  0.00    +0.000 C 
ATOM     19  C   UNL     1      -1.871  12.037  20.220  0.00  0.00    +0.000 C 
ENDBRANCH  11  14
ENDBRANCH   8  11
ENDBRANCH   3   5
BRANCH   1  20
ATOM     20  C   UNL     1       3.081   3.665  17.374  0.00  0.00    +0.000 C 
BRANCH  20  21
ATOM     21  S   UNL     1       3.072   2.097  18.307  0.00  0.00    +0.000 S 
BRANCH  21  22
ATOM     22  C   UNL     1       4.478   2.388  19.455  0.00  0.00    +0.000 C 
BRANCH  22  24
ATOM     23  N   UNL     1       5.935   4.148  18.544  0.00  0.00    +0.000 N 
ATOM     24  C   UNL     1       4.939   3.846  19.461  0.00  0.00    +0.000 C 
ATOM     25  O   UNL     1       4.448   4.632  20.268  0.00  0.00    +0.000 OA
ATOM     26  H   UNL     1       6.121   3.429  17.854  0.00  0.00    +0.000 HD
BRANCH  23  31
ATOM     27  C   UNL     1       8.565   9.190  17.803  0.00  0.00    +0.000 C 
ATOM     28  C   UNL     1       7.863   7.877  17.992  0.00  0.00    +0.000 A 
ATOM     29  C   UNL     1       6.758   7.542  17.207  0.00  0.00    +0.000 A 
ATOM     30  C   UNL     1       6.105   6.318  17.380  0.00  0.00    +0.000 A 
ATOM     31  C   UNL     1       6.542   5.406  18.341  0.00  0.00    +0.000 A 
ATOM     32  C   UNL     1       7.635   5.749  19.146  0.00  0.00    +0.000 A 
ATOM     33  C   UNL     1       8.296   6.972  18.965  0.00  0.00    +0.000 A 
ENDBRANCH  23  31
ENDBRANCH  22  24
ENDBRANCH  21  22
ENDBRANCH  20  21
ENDBRANCH   1  20
TORSDOF 8
ENDMDL
MODEL 6
REMARK VINA RESULT:      -7.4      3.244      9.324
REMARK  Name = 
REMARK  9 active torsions:
REMARK  status: ('A' for Active; 'I' for Inactive)
REMARK    1  A    between atoms: C_1  and  C_2
REMARK    2  A    between atoms: C_5  and  N_6
REMARK    3  A    between atoms: C_7  and  C_9
REMARK    4  A    between atoms: C_9  and  S_10
REMARK    5  A    between atoms: S_10  and  C_11
REMARK    6  A    between atoms: C_11  and  C_12
REMARK    7  A    between atoms: N_14  and  C_15
REMARK    8  A    between atoms: C_18  and  S_19
REMARK    9  A    between atoms: S_19  and  N_22
REMARK                            x       y       z     vdW  Elec       q    Type
REMARK                         _______ _______ _______ _____ _____    ______ ____
ROOT
ATOM      1  C   UNL     1       0.038   8.867  21.727  0.00  0.00    +0.000 C 
ATOM      2  O   UNL     1      -0.832   7.995  21.678  0.00  0.00    +0.000 OA
ATOM      3  N   UNL     1       1.316   8.772  21.197  0.00  0.00    +0.000 N 
ATOM      4  H   UNL     1       1.968   9.514  21.423  0.00  0.00    +0.000 HD
ENDROOT
BRANCH   3   5
ATOM      5  C   UNL     1       1.824   7.715  20.402  0.00  0.00    +0.000 A 
ATOM      6  C   UNL     1       1.980   6.404  20.863  0.00  0.00    +0.000 A 
ATOM      7  C   UNL     1       2.455   5.388  20.017  0.00  0.00    +0.000 A 
ATOM      8  C   UNL     1       2.757   5.671  18.687  0.00  0.00    +0.000 A 
ATOM      9  C   UNL     1       2.657   6.988  18.225  0.00  0.00    +0.000 A 
ATOM     10  C   UNL     1       2.173   7.996  19.072  0.00  0.00    +0.000 A 
BRANCH   8  11
ATOM     11  S   UNL     1       3.492   4.416  17.641  0.00  0.00    +0.000 S 
ATOM     12  O   UNL     1       4.209   3.523  18.521  0.00  0.00    +0.000 OA
ATOM     13  O   UNL     1       2.436   3.916  16.779  0.00  0.00    +0.000 OA
BRANCH  11  14
ATOM     14  N   UNL     1       4.633   5.175  16.662  0.00  0.00    +0.000 NA
ATOM     15  C   UNL     1       5.040   4.581  15.369  0.00  0.00    +0.000 C 
ATOM     16  C   UNL     1       6.307   3.742  15.546  0.00  0.00    +0.000 C 
ATOM     17  O   UNL     1       7.372   4.480  16.164  0.00  0.00    +0.000 OA
ATOM     18  C   UNL     1       6.991   5.105  17.400  0.00  0.00    +0.000 C 
ATOM     19  C   UNL     1       5.739   5.968  17.246  0.00  0.00    +0.000 C 
ENDBRANCH  11  14
ENDBRANCH   8  11
ENDBRANCH   3   5
BRANCH   1  20
ATOM     20  C   UNL     1      -0.266  10.193  22.411  0.00  0.00    +0.000 C 
BRANCH  20  21
ATOM     21  S   UNL     1      -0.126  11.596  21.253  0.00  0.00    +0.000 S 
BRANCH  21  22
ATOM     22  C   UNL     1      -1.821  12.297  21.378  0.00  0.00    +0.000 C 
BRANCH  22  24
ATOM     23  N   UNL     1      -2.044  11.316  19.134  0.00  0.00    +0.000 N 
ATOM     24  C   UNL     1      -2.611  12.160  20.075  0.00  0.00    +0.000 C 
ATOM     25  O   UNL     1      -3.645  12.807  19.926  0.00  0.00    +0.000 OA
ATOM     26  H   UNL     1      -1.275  10.746  19.469  0.00  0.00    +0.000 HD
BRANCH  23  31
ATOM     27  C   UNL     1      -4.026   9.922  13.936  0.00  0.00    +0.000 C 
ATOM     28  C   UNL     1      -3.513  10.301  15.294  0.00  0.00    +0.000 A 
ATOM     29  C   UNL     1      -4.192  11.241  16.073  0.00  0.00    +0.000 A 
ATOM     30  C   UNL     1      -3.718  11.593  17.340  0.00  0.00    +0.000 A 
ATOM     31  C   UNL     1      -2.556  11.014  17.853  0.00  0.00    +0.000 A 
ATOM     32  C   UNL     1      -1.861  10.091  17.064  0.00  0.00    +0.000 A 
ATOM     33  C   UNL     1      -2.342   9.729  15.799  0.00  0.00    +0.000 A 
ENDBRANCH  23  31
ENDBRANCH  22  24
ENDBRANCH  21  22
ENDBRANCH  20  21
ENDBRANCH   1  20
TORSDOF 8
ENDMDL
MODEL 7
REMARK VINA RESULT:      -7.4      3.227      9.131
REMARK  Name = 
REMARK  9 active torsions:
REMARK  status: ('A' for Active; 'I' for Inactive)
REMARK    1  A    between atoms: C_1  and  C_2
REMARK    2  A    between atoms: C_5  and  N_6
REMARK    3  A    between atoms: C_7  and  C_9
REMARK    4  A    between atoms: C_9  and  S_10
REMARK    5  A    between atoms: S_10  and  C_11
REMARK    6  A    between atoms: C_11  and  C_12
REMARK    7  A    between atoms: N_14  and  C_15
REMARK    8  A    between atoms: C_18  and  S_19
REMARK    9  A    between atoms: S_19  and  N_22
REMARK                            x       y       z     vdW  Elec       q    Type
REMARK                         _______ _______ _______ _____ _____    ______ ____
ROOT
ATOM      1  C   UNL     1       0.264   9.110  21.589  0.00  0.00    +0.000 C 
ATOM      2  O   UNL     1      -0.820   8.627  21.253  0.00  0.00    +0.000 OA
ATOM      3  N   UNL     1       1.513   8.573  21.317  0.00  0.00    +0.000 N 
ATOM      4  H   UNL     1       2.312   9.007  21.764  0.00  0.00    +0.000 HD
ENDROOT
BRANCH   3   5
ATOM      5  C   UNL     1       1.789   7.444  20.507  0.00  0.00    +0.000 A 
ATOM      6  C   UNL     1       2.217   7.529  19.178  0.00  0.00    +0.000 A 
ATOM      7  C   UNL     1       2.511   6.374  18.434  0.00  0.00    +0.000 A 
ATOM      8  C   UNL     1       2.400   5.116  19.023  0.00  0.00    +0.000 A 
ATOM      9  C   UNL     1       1.922   5.012  20.334  0.00  0.00    +0.000 A 
ATOM     10  C   UNL     1       1.639   6.170  21.075  0.00  0.00    +0.000 A 
BRANCH   8  11
ATOM     11  S   UNL     1       2.638   3.636  18.044  0.00  0.00    +0.000 S 
ATOM     12  O   UNL     1       2.342   2.521  18.912  0.00  0.00    +0.000 OA
ATOM     13  O   UNL     1       1.900   3.828  16.807  0.00  0.00    +0.000 OA
BRANCH  11  14
ATOM     14  N   UNL     1       4.273   3.543  17.653  0.00  0.00    +0.000 NA
ATOM     15  C   UNL     1       5.314   3.713  18.690  0.00  0.00    +0.000 C 
ATOM     16  C   UNL     1       5.795   5.166  18.727  0.00  0.00    +0.000 C 
ATOM     17  O   UNL     1       6.229   5.632  17.440  0.00  0.00    +0.000 OA
ATOM     18  C   UNL     1       5.253   5.437  16.403  0.00  0.00    +0.000 C 
ATOM     19  C   UNL     1       4.773   3.988  16.331  0.00  0.00    +0.000 C 
ENDBRANCH  11  14
ENDBRANCH   8  11
ENDBRANCH   3   5
BRANCH   1  20
ATOM     20  C   UNL     1       0.294  10.419  22.367  0.00  0.00    +0.000 C 
BRANCH  20  21
ATOM     21  S   UNL     1       0.593  11.847  21.271  0.00  0.00    +0.000 S 
BRANCH  21  22
ATOM     22  C   UNL     1      -1.128  12.232  20.753  0.00  0.00    +0.000 C 
BRANCH  22  24
ATOM     23  N   UNL     1      -2.342  11.180  18.891  0.00  0.00    +0.000 N 
ATOM     24  C   UNL     1      -1.340  12.068  19.247  0.00  0.00    +0.000 C 
ATOM     25  O   UNL     1      -0.616  12.681  18.466  0.00  0.00    +0.000 OA
ATOM     26  H   UNL     1      -2.942  10.875  19.650  0.00  0.00    +0.000 HD
BRANCH  23  31
ATOM     27  C   UNL     1      -4.067   9.963  13.559  0.00  0.00    +0.000 C 
ATOM     28  C   UNL     1      -3.610  10.267  14.956  0.00  0.00    +0.000 A 
ATOM     29  C   UNL     1      -2.476   9.645  15.483  0.00  0.00    +0.000 A 
ATOM     30  C   UNL     1      -2.047   9.930  16.783  0.00  0.00    +0.000 A 
ATOM     31  C   UNL     1      -2.742  10.839  17.581  0.00  0.00    +0.000 A 
ATOM     32  C   UNL     1      -3.893  11.445  17.063  0.00  0.00    +0.000 A 
ATOM     33  C   UNL     1      -4.317  11.168  15.756  0.00  0.00    +0.000 A 
ENDBRANCH  23  31
ENDBRANCH  22  24
ENDBRANCH  21  22
ENDBRANCH  20  21
ENDBRANCH   1  20
TORSDOF 8
ENDMDL
MODEL 8
REMARK VINA RESULT:      -7.3      3.037      9.235
REMARK  Name = 
REMARK  9 active torsions:
REMARK  status: ('A' for Active; 'I' for Inactive)
REMARK    1  A    between atoms: C_1  and  C_2
REMARK    2  A    between atoms: C_5  and  N_6
REMARK    3  A    between atoms: C_7  and  C_9
REMARK    4  A    between atoms: C_9  and  S_10
REMARK    5  A    between atoms: S_10  and  C_11
REMARK    6  A    between atoms: C_11  and  C_12
REMARK    7  A    between atoms: N_14  and  C_15
REMARK    8  A    between atoms: C_18  and  S_19
REMARK    9  A    between atoms: S_19  and  N_22
REMARK                            x       y       z     vdW  Elec       q    Type
REMARK                         _______ _______ _______ _____ _____    ______ ____
ROOT
ATOM      1  C   UNL     1       1.181   9.727  21.148  0.00  0.00    +0.000 C 
ATOM      2  O   UNL     1       1.387   9.132  22.208  0.00  0.00    +0.000 OA
ATOM      3  N   UNL     1       1.380   9.213  19.875  0.00  0.00    +0.000 N 
ATOM      4  H   UNL     1       1.293   9.856  19.097  0.00  0.00    +0.000 HD
ENDROOT
BRANCH   3   5
ATOM      5  C   UNL     1       1.738   7.882  19.548  0.00  0.00    +0.000 A 
ATOM      6  C   UNL     1       1.715   6.825  20.465  0.00  0.00    +0.000 A 
ATOM      7  C   UNL     1       2.046   5.518  20.074  0.00  0.00    +0.000 A 
ATOM      8  C   UNL     1       2.383   5.248  18.749  0.00  0.00    +0.000 A 
ATOM      9  C   UNL     1       2.462   6.302  17.833  0.00  0.00    +0.000 A 
ATOM     10  C   UNL     1       2.121   7.605  18.227  0.00  0.00    +0.000 A 
BRANCH   8  11
ATOM     11  S   UNL     1       2.938   3.613  18.273  0.00  0.00    +0.000 S 
ATOM     12  O   UNL     1       2.769   2.772  19.435  0.00  0.00    +0.000 OA
ATOM     13  O   UNL     1       2.274   3.291  17.023  0.00  0.00    +0.000 OA
BRANCH  11  14
ATOM     14  N   UNL     1       4.591   3.709  17.963  0.00  0.00    +0.000 NA
ATOM     15  C   UNL     1       5.502   4.399  18.903  0.00  0.00    +0.000 C 
ATOM     16  C   UNL     1       5.721   5.848  18.461  0.00  0.00    +0.000 C 
ATOM     17  O   UNL     1       6.168   5.945  17.100  0.00  0.00    +0.000 OA
ATOM     18  C   UNL     1       5.325   5.244  16.171  0.00  0.00    +0.000 C 
ATOM     19  C   UNL     1       5.109   3.787  16.578  0.00  0.00    +0.000 C 
ENDBRANCH  11  14
ENDBRANCH   8  11
ENDBRANCH   3   5
BRANCH   1  20
ATOM     20  C   UNL     1       0.652  11.154  21.179  0.00  0.00    +0.000 C 
BRANCH  20  21
ATOM     21  S   UNL     1      -0.720  11.338  22.367  0.00  0.00    +0.000 S 
BRANCH  21  22
ATOM     22  C   UNL     1      -1.630  12.742  21.605  0.00  0.00    +0.000 C 
BRANCH  22  24
ATOM     23  N   UNL     1      -2.583  11.582  19.657  0.00  0.00    +0.000 N 
ATOM     24  C   UNL     1      -1.754  12.606  20.086  0.00  0.00    +0.000 C 
ATOM     25  O   UNL     1      -1.112  13.360  19.358  0.00  0.00    +0.000 OA
ATOM     26  H   UNL     1      -3.153  11.154  20.378  0.00  0.00    +0.000 HD
BRANCH  23  31
ATOM     27  C   UNL     1      -3.641  10.011  14.244  0.00  0.00    +0.000 C 
ATOM     28  C   UNL     1      -3.371  10.436  15.658  0.00  0.00    +0.000 A 
ATOM     29  C   UNL     1      -4.250  11.295  16.321  0.00  0.00    +0.000 A 
ATOM     30  C   UNL     1      -4.002  11.688  17.640  0.00  0.00    +0.000 A 
ATOM     31  C   UNL     1      -2.872  11.233  18.320  0.00  0.00    +0.000 A 
ATOM     32  C   UNL     1      -1.977  10.392  17.648  0.00  0.00    +0.000 A 
ATOM     33  C   UNL     1      -2.231   9.988  16.330  0.00  0.00    +0.000 A 
ENDBRANCH  23  31
ENDBRANCH  22  24
ENDBRANCH  21  22
ENDBRANCH  20  21
ENDBRANCH   1  20
TORSDOF 8
ENDMDL
MODEL 9
REMARK VINA RESULT:      -7.3      4.796      9.177
REMARK  Name = 
REMARK  9 active torsions:
REMARK  status: ('A' for Active; 'I' for Inactive)
REMARK    1  A    between atoms: C_1  and  C_2
REMARK    2  A    between atoms: C_5  and  N_6
REMARK    3  A    between atoms: C_7  and  C_9
REMARK    4  A    between atoms: C_9  and  S_10
REMARK    5  A    between atoms: S_10  and  C_11
REMARK    6  A    between atoms: C_11  and  C_12
REMARK    7  A    between atoms: N_14  and  C_15
REMARK    8  A    between atoms: C_18  and  S_19
REMARK    9  A    between atoms: S_19  and  N_22
REMARK                            x       y       z     vdW  Elec       q    Type
REMARK                         _______ _______ _______ _____ _____    ______ ____
ROOT
ATOM      1  C   UNL     1       8.944   9.817  18.528  0.00  0.00    +0.000 C 
ATOM      2  O   UNL     1       8.799   9.719  19.749  0.00  0.00    +0.000 OA
ATOM      3  N   UNL     1       8.476   8.922  17.578  0.00  0.00    +0.000 N 
ATOM      4  H   UNL     1       8.779   9.061  16.622  0.00  0.00    +0.000 HD
ENDROOT
BRANCH   3   5
ATOM      5  C   UNL     1       7.647   7.798  17.813  0.00  0.00    +0.000 A 
ATOM      6  C   UNL     1       7.996   6.740  18.660  0.00  0.00    +0.000 A 
ATOM      7  C   UNL     1       7.117   5.668  18.883  0.00  0.00    +0.000 A 
ATOM      8  C   UNL     1       5.862   5.655  18.277  0.00  0.00    +0.000 A 
ATOM      9  C   UNL     1       5.519   6.679  17.387  0.00  0.00    +0.000 A 
ATOM     10  C   UNL     1       6.399   7.752  17.175  0.00  0.00    +0.000 A 
BRANCH   8  11
ATOM     11  S   UNL     1       4.792   4.229  18.446  0.00  0.00    +0.000 S 
ATOM     12  O   UNL     1       4.753   3.593  17.151  0.00  0.00    +0.000 OA
ATOM     13  O   UNL     1       5.247   3.499  19.616  0.00  0.00    +0.000 OA
BRANCH  11  14
ATOM     14  N   UNL     1       3.239   4.795  18.771  0.00  0.00    +0.000 NA
ATOM     15  C   UNL     1       2.834   5.156  20.147  0.00  0.00    +0.000 C 
ATOM     16  C   UNL     1       2.134   3.973  20.822  0.00  0.00    +0.000 C 
ATOM     17  O   UNL     1       1.036   3.471  20.046  0.00  0.00    +0.000 OA
ATOM     18  C   UNL     1       1.392   3.155  18.690  0.00  0.00    +0.000 C 
ATOM     19  C   UNL     1       2.073   4.329  17.986  0.00  0.00    +0.000 C 
ENDBRANCH  11  14
ENDBRANCH   8  11
ENDBRANCH   3   5
BRANCH   1  20
ATOM     20  C   UNL     1       9.690  11.015  17.956  0.00  0.00    +0.000 C 
BRANCH  20  21
ATOM     21  S   UNL     1       9.040  12.589  18.613  0.00  0.00    +0.000 S 
BRANCH  21  22
ATOM     22  C   UNL     1      10.245  12.902  19.966  0.00  0.00    +0.000 C 
BRANCH  22  24
ATOM     23  N   UNL     1       8.497  12.355  21.607  0.00  0.00    +0.000 N 
ATOM     24  C   UNL     1       9.563  13.188  21.306  0.00  0.00    +0.000 C 
ATOM     25  O   UNL     1       9.959  14.123  21.998  0.00  0.00    +0.000 OA
ATOM     26  H   UNL     1       8.396  11.544  21.008  0.00  0.00    +0.000 HD
BRANCH  23  31
ATOM     27  C   UNL     1       5.383  12.464  26.422  0.00  0.00    +0.000 C 
ATOM     28  C   UNL     1       6.184  12.439  25.154  0.00  0.00    +0.000 A 
ATOM     29  C   UNL     1       5.825  13.243  24.070  0.00  0.00    +0.000 A 
ATOM     30  C   UNL     1       6.574  13.224  22.889  0.00  0.00    +0.000 A 
ATOM     31  C   UNL     1       7.693  12.400  22.768  0.00  0.00    +0.000 A 
ATOM     32  C   UNL     1       8.041  11.574  23.843  0.00  0.00    +0.000 A 
ATOM     33  C   UNL     1       7.298  11.602  25.032  0.00  0.00    +0.000 A 
ENDBRANCH  23  31
ENDBRANCH  22  24
ENDBRANCH  21  22
ENDBRANCH  20  21
ENDBRANCH   1  20
TORSDOF 8
ENDMDL
