MODEL 1
REMARK VINA RESULT:      -7.4      0.000      0.000
REMARK  Name = 
REMARK  4 active torsions:
REMARK  status: ('A' for Active; 'I' for Inactive)
REMARK    1  A    between atoms: C_6  and  C_7
REMARK    2  A    between atoms: C_7  and  C_8
REMARK    3  A    between atoms: C_8  and  C_9
REMARK    4  A    between atoms: C_9  and  C_10
REMARK                            x       y       z     vdW  Elec       q    Type
REMARK                         _______ _______ _______ _____ _____    ______ ____
ROOT
ATOM      1  C   UNL     1       5.627   4.535  18.130  0.00  0.00    +0.000 C 
ENDROOT
BRANCH   1   7
ATOM      2  C   UNL     1       6.519   3.710  12.012  0.00  0.00    +0.000 A 
ATOM      3  C   UNL     1       7.498   4.693  12.098  0.00  0.00    +0.000 A 
ATOM      4  C   UNL     1       7.768   5.324  13.315  0.00  0.00    +0.000 A 
ATOM      5  C   UNL     1       7.029   4.950  14.453  0.00  0.00    +0.000 A 
ATOM      6  S   UNL     1       7.192   5.563  16.059  0.00  0.00    +0.000 S 
ATOM      7  C   UNL     1       5.969   4.530  16.666  0.00  0.00    +0.000 A 
ATOM      8  C   UNL     1       5.410   3.772  15.655  0.00  0.00    +0.000 A 
ATOM      9  C   UNL     1       6.034   3.977  14.383  0.00  0.00    +0.000 A 
ATOM     10  C   UNL     1       5.786   3.347  13.141  0.00  0.00    +0.000 A 
ENDBRANCH   1   7
BRANCH   1  11
ATOM     11  C   UNL     1       4.607   5.624  18.514  0.00  0.00    +0.000 C 
BRANCH  11  12
ATOM     12  C   UNL     1       3.222   5.392  17.896  0.00  0.00    +0.000 C 
BRANCH  12  13
ATOM     13  C   UNL     1       2.215   4.699  18.835  0.00  0.00    +0.000 C 
ATOM     14  C   UNL     1       2.749   4.710  20.290  0.00  0.00    +0.000 C 
ATOM     15  N   UNL     1       2.649   3.379  20.928  0.00  0.00    +0.000 NA
ATOM     16  C   UNL     1       1.238   2.937  20.904  0.00  0.00    +0.000 C 
ATOM     17  C   UNL     1       0.676   2.875  19.473  0.00  0.00    +0.000 C 
ATOM     18  C   UNL     1       1.793   3.249  18.476  0.00  0.00    +0.000 C 
ATOM     19  C   UNL     1       2.928   2.244  18.726  0.00  0.00    +0.000 C 
ATOM     20  C   UNL     1       3.475   2.432  20.149  0.00  0.00    +0.000 C 
ENDBRANCH  12  13
ENDBRANCH  11  12
ENDBRANCH   1  11
TORSDOF 4
ENDMDL
MODEL 2
REMARK VINA RESULT:      -7.3      1.087      1.900
REMARK  Name = 
REMARK  4 active torsions:
REMARK  status: ('A' for Active; 'I' for Inactive)
REMARK    1  A    between atoms: C_6  and  C_7
REMARK    2  A    between atoms: C_7  and  C_8
REMARK    3  A    between atoms: C_8  and  C_9
REMARK    4  A    between atoms: C_9  and  C_10
REMARK                            x       y       z     vdW  Elec       q    Type
REMARK                         _______ _______ _______ _____ _____    ______ ____
ROOT
ATOM      1  C   UNL     1       6.556   5.413  18.080  0.00  0.00    +0.000 C 
ENDROOT
BRANCH   1   7
ATOM      2  C   UNL     1       7.241   4.433  11.957  0.00  0.00    +0.000 A 
ATOM      3  C   UNL     1       6.133   3.597  12.044  0.00  0.00    +0.000 A 
ATOM      4  C   UNL     1       5.498   3.381  13.269  0.00  0.00    +0.000 A 
ATOM      5  C   UNL     1       6.000   4.023  14.417  0.00  0.00    +0.000 A 
ATOM      6  S   UNL     1       5.379   3.933  16.025  0.00  0.00    +0.000 S 
ATOM      7  C   UNL     1       6.569   5.005  16.632  0.00  0.00    +0.000 A 
ATOM      8  C   UNL     1       7.453   5.382  15.640  0.00  0.00    +0.000 A 
ATOM      9  C   UNL     1       7.118   4.852  14.352  0.00  0.00    +0.000 A 
ATOM     10  C   UNL     1       7.738   5.061  13.099  0.00  0.00    +0.000 A 
ENDBRANCH   1   7
BRANCH   1  11
ATOM     11  C   UNL     1       5.586   4.580  18.939  0.00  0.00    +0.000 C 
BRANCH  11  12
ATOM     12  C   UNL     1       4.374   5.384  19.426  0.00  0.00    +0.000 C 
BRANCH  12  13
ATOM     13  C   UNL     1       3.219   4.524  19.973  0.00  0.00    +0.000 C 
ATOM     14  C   UNL     1       3.588   3.020  19.888  0.00  0.00    +0.000 C 
ATOM     15  N   UNL     1       2.500   2.215  19.291  0.00  0.00    +0.000 NA
ATOM     16  C   UNL     1       1.270   2.396  20.091  0.00  0.00    +0.000 C 
ATOM     17  C   UNL     1       0.844   3.872  20.171  0.00  0.00    +0.000 C 
ATOM     18  C   UNL     1       1.819   4.724  19.332  0.00  0.00    +0.000 C 
ATOM     19  C   UNL     1       1.755   4.151  17.908  0.00  0.00    +0.000 C 
ATOM     20  C   UNL     1       2.269   2.704  17.914  0.00  0.00    +0.000 C 
ENDBRANCH  12  13
ENDBRANCH  11  12
ENDBRANCH   1  11
TORSDOF 4
ENDMDL
MODEL 3
REMARK VINA RESULT:      -7.3      5.807      8.371
REMARK  Name = 
REMARK  4 active torsions:
REMARK  status: ('A' for Active; 'I' for Inactive)
REMARK    1  A    between atoms: C_6  and  C_7
REMARK    2  A    between atoms: C_7  and  C_8
REMARK    3  A    between atoms: C_8  and  C_9
REMARK    4  A    between atoms: C_9  and  C_10
REMARK                            x       y       z     vdW  Elec       q    Type
REMARK                         _______ _______ _______ _____ _____    ______ ____
ROOT
ATOM      1  C   UNL     1       7.655   7.339  16.958  0.00  0.00    +0.000 C 
ENDROOT
BRANCH   1   7
ATOM      2  C   UNL     1       2.040   4.826  17.993  0.00  0.00    +0.000 A 
ATOM      3  C   UNL     1       2.613   3.600  17.672  0.00  0.00    +0.000 A 
ATOM      4  C   UNL     1       3.958   3.518  17.303  0.00  0.00    +0.000 A 
ATOM      5  C   UNL     1       4.724   4.697  17.259  0.00  0.00    +0.000 A 
ATOM      6  S   UNL     1       6.396   4.848  16.859  0.00  0.00    +0.000 S 
ATOM      7  C   UNL     1       6.388   6.542  17.109  0.00  0.00    +0.000 A 
ATOM      8  C   UNL     1       5.124   6.991  17.439  0.00  0.00    +0.000 A 
ATOM      9  C   UNL     1       4.164   5.936  17.563  0.00  0.00    +0.000 A 
ATOM     10  C   UNL     1       2.802   5.993  17.941  0.00  0.00    +0.000 A 
ENDBRANCH   1   7
BRANCH   1  11
ATOM     11  C   UNL     1       8.087   8.047  18.256  0.00  0.00    +0.000 C 
BRANCH  11  12
ATOM     12  C   UNL     1       8.228   9.565  18.093  0.00  0.00    +0.000 C 
BRANCH  12  13
ATOM     13  C   UNL     1       9.513  10.155  18.705  0.00  0.00    +0.000 C 
ATOM     14  C   UNL     1       9.237  10.648  20.148  0.00  0.00    +0.000 C 
ATOM     15  N   UNL     1       9.764  12.011  20.379  0.00  0.00    +0.000 NA
ATOM     16  C   UNL     1      11.217  12.020  20.104  0.00  0.00    +0.000 C 
ATOM     17  C   UNL     1      11.536  11.573  18.667  0.00  0.00    +0.000 C 
ATOM     18  C   UNL     1      10.214  11.296  17.920  0.00  0.00    +0.000 C 
ATOM     19  C   UNL     1       9.417  12.608  17.983  0.00  0.00    +0.000 C 
ATOM     20  C   UNL     1       9.080  12.933  19.447  0.00  0.00    +0.000 C 
ENDBRANCH  12  13
ENDBRANCH  11  12
ENDBRANCH   1  11
TORSDOF 4
ENDMDL
MODEL 4
REMARK VINA RESULT:      -7.2      4.483      8.302
REMARK  Name = 
REMARK  4 active torsions:
REMARK  status: ('A' for Active; 'I' for Inactive)
REMARK    1  A    between atoms: C_6  and  C_7
REMARK    2  A    between atoms: C_7  and  C_8
REMARK    3  A    between atoms: C_8  and  C_9
REMARK    4  A    between atoms: C_9  and  C_10
REMARK                            x       y       z     vdW  Elec       q    Type
REMARK                         _______ _______ _______ _____ _____    ______ ____
ROOT
ATOM      1  C   UNL     1       2.463   7.515  18.461  0.00  0.00    +0.000 C 
ENDROOT
BRANCH   1   7
ATOM      2  C   UNL     1      -0.682  10.242  23.107  0.00  0.00    +0.000 A 
ATOM      3  C   UNL     1      -0.977  11.261  22.208  0.00  0.00    +0.000 A 
ATOM      4  C   UNL     1      -0.490  11.219  20.899  0.00  0.00    +0.000 A 
ATOM      5  C   UNL     1       0.306  10.128  20.505  0.00  0.00    +0.000 A 
ATOM      6  S   UNL     1       0.999   9.842  18.950  0.00  0.00    +0.000 S 
ATOM      7  C   UNL     1       1.698   8.359  19.443  0.00  0.00    +0.000 A 
ATOM      8  C   UNL     1       1.454   8.112  20.781  0.00  0.00    +0.000 A 
ATOM      9  C   UNL     1       0.624   9.105  21.396  0.00  0.00    +0.000 A 
ATOM     10  C   UNL     1       0.113   9.166  22.713  0.00  0.00    +0.000 A 
ENDBRANCH   1   7
BRANCH   1  11
ATOM     11  C   UNL     1       2.860   6.136  19.022  0.00  0.00    +0.000 C 
BRANCH  11  12
ATOM     12  C   UNL     1       2.916   5.044  17.946  0.00  0.00    +0.000 C 
BRANCH  12  13
ATOM     13  C   UNL     1       4.339   4.557  17.608  0.00  0.00    +0.000 C 
ATOM     14  C   UNL     1       5.347   5.090  18.658  0.00  0.00    +0.000 C 
ATOM     15  N   UNL     1       6.542   5.690  18.025  0.00  0.00    +0.000 NA
ATOM     16  C   UNL     1       7.189   4.680  17.161  0.00  0.00    +0.000 C 
ATOM     17  C   UNL     1       6.234   4.149  16.077  0.00  0.00    +0.000 C 
ATOM     18  C   UNL     1       4.883   4.886  16.192  0.00  0.00    +0.000 C 
ATOM     19  C   UNL     1       5.207   6.379  16.035  0.00  0.00    +0.000 C 
ATOM     20  C   UNL     1       6.100   6.834  17.200  0.00  0.00    +0.000 C 
ENDBRANCH  12  13
ENDBRANCH  11  12
ENDBRANCH   1  11
TORSDOF 4
ENDMDL
MODEL 5
REMARK VINA RESULT:      -7.2      5.853      8.549
REMARK  Name = 
REMARK  4 active torsions:
REMARK  status: ('A' for Active; 'I' for Inactive)
REMARK    1  A    between atoms: C_6  and  C_7
REMARK    2  A    between atoms: C_7  and  C_8
REMARK    3  A    between atoms: C_8  and  C_9
REMARK    4  A    between atoms: C_9  and  C_10
REMARK                            x       y       z     vdW  Elec       q    Type
REMARK                         _______ _______ _______ _____ _____    ______ ____
ROOT
ATOM      1  C   UNL     1       7.585   7.238  17.256  0.00  0.00    +0.000 C 
ENDROOT
BRANCH   1   7
ATOM      2  C   UNL     1       3.292   3.220  19.338  0.00  0.00    +0.000 A 
ATOM      3  C   UNL     1       2.366   3.940  18.592  0.00  0.00    +0.000 A 
ATOM      4  C   UNL     1       2.759   5.063  17.860  0.00  0.00    +0.000 A 
ATOM      5  C   UNL     1       4.110   5.455  17.891  0.00  0.00    +0.000 A 
ATOM      6  S   UNL     1       4.838   6.781  17.059  0.00  0.00    +0.000 S 
ATOM      7  C   UNL     1       6.395   6.418  17.672  0.00  0.00    +0.000 A 
ATOM      8  C   UNL     1       6.353   5.341  18.535  0.00  0.00    +0.000 A 
ATOM      9  C   UNL     1       5.050   4.754  18.644  0.00  0.00    +0.000 A 
ATOM     10  C   UNL     1       4.629   3.616  19.370  0.00  0.00    +0.000 A 
ENDBRANCH   1   7
BRANCH   1  11
ATOM     11  C   UNL     1       8.217   8.027  18.419  0.00  0.00    +0.000 C 
BRANCH  11  12
ATOM     12  C   UNL     1       8.350   9.527  18.124  0.00  0.00    +0.000 C 
BRANCH  12  13
ATOM     13  C   UNL     1       9.603  10.186  18.733  0.00  0.00    +0.000 C 
ATOM     14  C   UNL     1       9.285  10.721  20.153  0.00  0.00    +0.000 C 
ATOM     15  N   UNL     1       9.757  12.110  20.341  0.00  0.00    +0.000 NA
ATOM     16  C   UNL     1      11.213  12.164  20.088  0.00  0.00    +0.000 C 
ATOM     17  C   UNL     1      11.572  11.677  18.673  0.00  0.00    +0.000 C 
ATOM     18  C   UNL     1      10.273  11.324  17.917  0.00  0.00    +0.000 C 
ATOM     19  C   UNL     1       9.427  12.606  17.920  0.00  0.00    +0.000 C 
ATOM     20  C   UNL     1       9.055  12.971  19.365  0.00  0.00    +0.000 C 
ENDBRANCH  12  13
ENDBRANCH  11  12
ENDBRANCH   1  11
TORSDOF 4
ENDMDL
MODEL 6
REMARK VINA RESULT:      -7.1      4.161      7.563
REMARK  Name = 
REMARK  4 active torsions:
REMARK  status: ('A' for Active; 'I' for Inactive)
REMARK    1  A    between atoms: C_6  and  C_7
REMARK    2  A    between atoms: C_7  and  C_8
REMARK    3  A    between atoms: C_8  and  C_9
REMARK    4  A    between atoms: C_9  and  C_10
REMARK                            x       y       z     vdW  Elec       q    Type
REMARK                         _______ _______ _______ _____ _____    ______ ____
ROOT
ATOM      1  C   UNL     1       2.349   7.903  17.853  0.00  0.00    +0.000 C 
ENDROOT
BRANCH   1   7
ATOM      2  C   UNL     1      -0.156   9.795  23.243  0.00  0.00    +0.000 A 
ATOM      3  C   UNL     1      -0.727  10.839  22.524  0.00  0.00    +0.000 A 
ATOM      4  C   UNL     1      -0.493  10.971  21.153  0.00  0.00    +0.000 A 
ATOM      5  C   UNL     1       0.334  10.031  20.511  0.00  0.00    +0.000 A 
ATOM      6  S   UNL     1       0.750   9.969  18.837  0.00  0.00    +0.000 S 
ATOM      7  C   UNL     1       1.693   8.554  19.039  0.00  0.00    +0.000 A 
ATOM      8  C   UNL     1       1.733   8.166  20.364  0.00  0.00    +0.000 A 
ATOM      9  C   UNL     1       0.927   8.986  21.218  0.00  0.00    +0.000 A 
ATOM     10  C   UNL     1       0.668   8.869  22.603  0.00  0.00    +0.000 A 
ENDBRANCH   1   7
BRANCH   1  11
ATOM     11  C   UNL     1       3.545   7.009  18.234  0.00  0.00    +0.000 C 
BRANCH  11  12
ATOM     12  C   UNL     1       3.249   5.512  18.077  0.00  0.00    +0.000 C 
BRANCH  12  13
ATOM     13  C   UNL     1       2.917   4.788  19.397  0.00  0.00    +0.000 C 
ATOM     14  C   UNL     1       3.910   3.620  19.627  0.00  0.00    +0.000 C 
ATOM     15  N   UNL     1       3.217   2.366  19.994  0.00  0.00    +0.000 NA
ATOM     16  C   UNL     1       2.409   2.599  21.210  0.00  0.00    +0.000 C 
ATOM     17  C   UNL     1       1.381   3.727  21.015  0.00  0.00    +0.000 C 
ATOM     18  C   UNL     1       1.472   4.246  19.564  0.00  0.00    +0.000 C 
ATOM     19  C   UNL     1       1.211   3.026  18.668  0.00  0.00    +0.000 C 
ATOM     20  C   UNL     1       2.326   1.989  18.876  0.00  0.00    +0.000 C 
ENDBRANCH  12  13
ENDBRANCH  11  12
ENDBRANCH   1  11
TORSDOF 4
ENDMDL
MODEL 7
REMARK VINA RESULT:      -7.1      4.575      7.909
REMARK  Name = 
REMARK  4 active torsions:
REMARK  status: ('A' for Active; 'I' for Inactive)
REMARK    1  A    between atoms: C_6  and  C_7
REMARK    2  A    between atoms: C_7  and  C_8
REMARK    3  A    between atoms: C_8  and  C_9
REMARK    4  A    between atoms: C_9  and  C_10
REMARK                            x       y       z     vdW  Elec       q    Type
REMARK                         _______ _______ _______ _____ _____    ______ ____
ROOT
ATOM      1  C   UNL     1       2.269   8.358  18.249  0.00  0.00    +0.000 C 
ENDROOT
BRANCH   1   7
ATOM      2  C   UNL     1      -1.278  11.551  22.266  0.00  0.00    +0.000 A 
ATOM      3  C   UNL     1      -1.006  10.547  23.188  0.00  0.00    +0.000 A 
ATOM      4  C   UNL     1      -0.212   9.453  22.836  0.00  0.00    +0.000 A 
ATOM      5  C   UNL     1       0.307   9.383  21.530  0.00  0.00    +0.000 A 
ATOM      6  S   UNL     1       1.324   8.154  20.869  0.00  0.00    +0.000 S 
ATOM      7  C   UNL     1       1.423   8.938  19.350  0.00  0.00    +0.000 A 
ATOM      8  C   UNL     1       0.654  10.085  19.329  0.00  0.00    +0.000 A 
ATOM      9  C   UNL     1       0.034  10.372  20.588  0.00  0.00    +0.000 A 
ATOM     10  C   UNL     1      -0.766  11.474  20.971  0.00  0.00    +0.000 A 
ENDBRANCH   1   7
BRANCH   1  11
ATOM     11  C   UNL     1       2.973   7.047  18.649  0.00  0.00    +0.000 C 
BRANCH  11  12
ATOM     12  C   UNL     1       2.429   5.823  17.902  0.00  0.00    +0.000 C 
BRANCH  12  13
ATOM     13  C   UNL     1       1.811   4.744  18.813  0.00  0.00    +0.000 C 
ATOM     14  C   UNL     1       2.661   4.585  20.100  0.00  0.00    +0.000 C 
ATOM     15  N   UNL     1       2.953   3.166  20.400  0.00  0.00    +0.000 NA
ATOM     16  C   UNL     1       1.679   2.428  20.533  0.00  0.00    +0.000 C 
ATOM     17  C   UNL     1       0.818   2.527  19.261  0.00  0.00    +0.000 C 
ATOM     18  C   UNL     1       1.585   3.338  18.196  0.00  0.00    +0.000 C 
ATOM     19  C   UNL     1       2.908   2.590  17.974  0.00  0.00    +0.000 C 
ATOM     20  C   UNL     1       3.730   2.609  19.272  0.00  0.00    +0.000 C 
ENDBRANCH  12  13
ENDBRANCH  11  12
ENDBRANCH   1  11
TORSDOF 4
ENDMDL
MODEL 8
REMARK VINA RESULT:      -7.1      2.448      6.655
REMARK  Name = 
REMARK  4 active torsions:
REMARK  status: ('A' for Active; 'I' for Inactive)
REMARK    1  A    between atoms: C_6  and  C_7
REMARK    2  A    between atoms: C_7  and  C_8
REMARK    3  A    between atoms: C_8  and  C_9
REMARK    4  A    between atoms: C_9  and  C_10
REMARK                            x       y       z     vdW  Elec       q    Type
REMARK                         _______ _______ _______ _____ _____    ______ ____
ROOT
ATOM      1  C   UNL     1       4.060   3.819  15.891  0.00  0.00    +0.000 C 
ENDROOT
BRANCH   1   7
ATOM      2  C   UNL     1       2.397   2.423  21.739  0.00  0.00    +0.000 A 
ATOM      3  C   UNL     1       1.218   3.117  21.489  0.00  0.00    +0.000 A 
ATOM      4  C   UNL     1       1.000   3.727  20.251  0.00  0.00    +0.000 A 
ATOM      5  C   UNL     1       1.994   3.629  19.260  0.00  0.00    +0.000 A 
ATOM      6  S   UNL     1       1.947   4.272  17.659  0.00  0.00    +0.000 S 
ATOM      7  C   UNL     1       3.489   3.637  17.270  0.00  0.00    +0.000 A 
ATOM      8  C   UNL     1       4.051   2.992  18.355  0.00  0.00    +0.000 A 
ATOM      9  C   UNL     1       3.187   2.950  19.497  0.00  0.00    +0.000 A 
ATOM     10  C   UNL     1       3.382   2.334  20.755  0.00  0.00    +0.000 A 
ENDBRANCH   1   7
BRANCH   1  11
ATOM     11  C   UNL     1       5.591   3.658  15.840  0.00  0.00    +0.000 C 
BRANCH  11  12
ATOM     12  C   UNL     1       6.311   4.919  15.344  0.00  0.00    +0.000 C 
BRANCH  12  13
ATOM     13  C   UNL     1       7.196   5.604  16.403  0.00  0.00    +0.000 C 
ATOM     14  C   UNL     1       7.540   4.604  17.536  0.00  0.00    +0.000 C 
ATOM     15  N   UNL     1       7.317   5.186  18.878  0.00  0.00    +0.000 NA
ATOM     16  C   UNL     1       8.131   6.413  19.013  0.00  0.00    +0.000 C 
ATOM     17  C   UNL     1       7.794   7.453  17.929  0.00  0.00    +0.000 C 
ATOM     18  C   UNL     1       6.652   6.908  17.046  0.00  0.00    +0.000 C 
ATOM     19  C   UNL     1       5.482   6.630  18.003  0.00  0.00    +0.000 C 
ATOM     20  C   UNL     1       5.884   5.530  18.997  0.00  0.00    +0.000 C 
ENDBRANCH  12  13
ENDBRANCH  11  12
ENDBRANCH   1  11
TORSDOF 4
ENDMDL
MODEL 9
REMARK VINA RESULT:      -7.0      4.583      8.014
REMARK  Name = 
REMARK  4 active torsions:
REMARK  status: ('A' for Active; 'I' for Inactive)
REMARK    1  A    between atoms: C_6  and  C_7
REMARK    2  A    between atoms: C_7  and  C_8
REMARK    3  A    between atoms: C_8  and  C_9
REMARK    4  A    between atoms: C_9  and  C_10
REMARK                            x       y       z     vdW  Elec       q    Type
REMARK                         _______ _______ _______ _____ _____    ______ ____
ROOT
ATOM      1  C   UNL     1       2.203   8.521  17.944  0.00  0.00    +0.000 C 
ENDROOT
BRANCH   1   7
ATOM      2  C   UNL     1      -1.155  11.444  22.314  0.00  0.00    +0.000 A 
ATOM      3  C   UNL     1      -0.825  10.393  23.163  0.00  0.00    +0.000 A 
ATOM      4  C   UNL     1      -0.040   9.330  22.709  0.00  0.00    +0.000 A 
ATOM      5  C   UNL     1       0.409   9.339  21.376  0.00  0.00    +0.000 A 
ATOM      6  S   UNL     1       1.401   8.161  20.595  0.00  0.00    +0.000 S 
ATOM      7  C   UNL     1       1.411   9.029  19.118  0.00  0.00    +0.000 A 
ATOM      8  C   UNL     1       0.631  10.166  19.202  0.00  0.00    +0.000 A 
ATOM      9  C   UNL     1       0.076  10.376  20.506  0.00  0.00    +0.000 A 
ATOM     10  C   UNL     1      -0.712  11.444  20.992  0.00  0.00    +0.000 A 
ENDBRANCH   1   7
BRANCH   1  11
ATOM     11  C   UNL     1       2.981   7.227  18.249  0.00  0.00    +0.000 C 
BRANCH  11  12
ATOM     12  C   UNL     1       2.150   5.959  18.019  0.00  0.00    +0.000 C 
BRANCH  12  13
ATOM     13  C   UNL     1       2.884   4.647  18.360  0.00  0.00    +0.000 C 
ATOM     14  C   UNL     1       2.547   3.560  17.306  0.00  0.00    +0.000 C 
ATOM     15  N   UNL     1       2.169   2.276  17.936  0.00  0.00    +0.000 NA
ATOM     16  C   UNL     1       3.275   1.821  18.806  0.00  0.00    +0.000 C 
ATOM     17  C   UNL     1       3.618   2.854  19.893  0.00  0.00    +0.000 C 
ATOM     18  C   UNL     1       2.651   4.050  19.774  0.00  0.00    +0.000 C 
ATOM     19  C   UNL     1       1.239   3.462  19.922  0.00  0.00    +0.000 C 
ATOM     20  C   UNL     1       0.959   2.503  18.755  0.00  0.00    +0.000 C 
ENDBRANCH  12  13
ENDBRANCH  11  12
ENDBRANCH   1  11
TORSDOF 4
ENDMDL
