MODEL 1
REMARK VINA RESULT:      -6.1      0.000      0.000
REMARK  Name = 
REMARK  7 active torsions:
REMARK  status: ('A' for Active; 'I' for Inactive)
REMARK    1  A    between atoms: C_1  and  O_2
REMARK    2  A    between atoms: O_2  and  C_3
REMARK    3  A    between atoms: C_3  and  C_4
REMARK    4  A    between atoms: N_6  and  C_7
REMARK    5  A    between atoms: C_10  and  C_11
REMARK    6  A    between atoms: C_11  and  C_12
REMARK    7  A    between atoms: C_11  and  C_13
REMARK                            x       y       z     vdW  Elec       q    Type
REMARK                         _______ _______ _______ _____ _____    ______ ____
ROOT
ATOM      1  C   UNL     1       6.541   4.940  15.364  0.00  0.00    +0.000 A 
ATOM      2  C   UNL     1       5.394   4.163  15.205  0.00  0.00    +0.000 A 
ATOM      3  C   UNL     1       5.097   3.570  13.974  0.00  0.00    +0.000 A 
ATOM      4  C   UNL     1       5.945   3.735  12.873  0.00  0.00    +0.000 A 
ATOM      5  C   UNL     1       7.106   4.500  13.040  0.00  0.00    +0.000 A 
ATOM      6  C   UNL     1       7.394   5.111  14.268  0.00  0.00    +0.000 A 
ENDROOT
BRANCH   1   9
ATOM      7  C   UNL     1       7.616   5.083  17.607  0.00  0.00    +0.000 C 
ATOM      8  O   UNL     1       8.277   4.049  17.588  0.00  0.00    +0.000 OA
ATOM      9  N   UNL     1       6.858   5.600  16.569  0.00  0.00    +0.000 N 
ATOM     10  H   UNL     1       6.503   6.542  16.687  0.00  0.00    +0.000 HD
BRANCH   7  11
ATOM     11  C   UNL     1       7.570   5.956  18.866  0.00  0.00    +0.000 C 
BRANCH  11  13
ATOM     12  C   UNL     1       5.427   5.166  19.462  0.00  0.00    +0.000 C 
ATOM     13  O   UNL     1       6.760   5.419  19.906  0.00  0.00    +0.000 OA
ENDBRANCH  11  13
ENDBRANCH   7  11
ENDBRANCH   1   9
BRANCH   4  14
ATOM     14  C   UNL     1       5.564   3.112  11.542  0.00  0.00    +0.000 C 
ATOM     15  C   UNL     1       6.007   1.649  11.463  0.00  0.00    +0.000 C 
ATOM     16  C   UNL     1       4.070   3.251  11.247  0.00  0.00    +0.000 C 
ENDBRANCH   4  14
TORSDOF 4
ENDMDL
MODEL 2
REMARK VINA RESULT:      -6.1      0.173      1.248
REMARK  Name = 
REMARK  7 active torsions:
REMARK  status: ('A' for Active; 'I' for Inactive)
REMARK    1  A    between atoms: C_1  and  O_2
REMARK    2  A    between atoms: O_2  and  C_3
REMARK    3  A    between atoms: C_3  and  C_4
REMARK    4  A    between atoms: N_6  and  C_7
REMARK    5  A    between atoms: C_10  and  C_11
REMARK    6  A    between atoms: C_11  and  C_12
REMARK    7  A    between atoms: C_11  and  C_13
REMARK                            x       y       z     vdW  Elec       q    Type
REMARK                         _______ _______ _______ _____ _____    ______ ____
ROOT
ATOM      1  C   UNL     1       6.524   5.089  15.214  0.00  0.00    +0.000 A 
ATOM      2  C   UNL     1       7.397   5.087  14.127  0.00  0.00    +0.000 A 
ATOM      3  C   UNL     1       7.057   4.433  12.939  0.00  0.00    +0.000 A 
ATOM      4  C   UNL     1       5.832   3.770  12.807  0.00  0.00    +0.000 A 
ATOM      5  C   UNL     1       4.948   3.789  13.894  0.00  0.00    +0.000 A 
ATOM      6  C   UNL     1       5.297   4.428  15.093  0.00  0.00    +0.000 A 
ENDROOT
BRANCH   1   9
ATOM      7  C   UNL     1       7.572   5.112  17.475  0.00  0.00    +0.000 C 
ATOM      8  O   UNL     1       8.208   4.063  17.421  0.00  0.00    +0.000 OA
ATOM      9  N   UNL     1       6.841   5.690  16.450  0.00  0.00    +0.000 N 
ATOM     10  H   UNL     1       6.507   6.634  16.604  0.00  0.00    +0.000 HD
BRANCH   7  11
ATOM     11  C   UNL     1       7.530   5.931  18.769  0.00  0.00    +0.000 C 
BRANCH  11  13
ATOM     12  C   UNL     1       5.430   5.070  19.415  0.00  0.00    +0.000 C 
ATOM     13  O   UNL     1       6.778   5.319  19.811  0.00  0.00    +0.000 OA
ENDBRANCH  11  13
ENDBRANCH   7  11
ENDBRANCH   1   9
BRANCH   4  14
ATOM     14  C   UNL     1       5.520   3.034  11.517  0.00  0.00    +0.000 C 
ATOM     15  C   UNL     1       6.052   1.600  11.550  0.00  0.00    +0.000 C 
ATOM     16  C   UNL     1       4.027   3.060  11.185  0.00  0.00    +0.000 C 
ENDBRANCH   4  14
TORSDOF 4
ENDMDL
MODEL 3
REMARK VINA RESULT:      -6.0      1.424      1.730
REMARK  Name = 
REMARK  7 active torsions:
REMARK  status: ('A' for Active; 'I' for Inactive)
REMARK    1  A    between atoms: C_1  and  O_2
REMARK    2  A    between atoms: O_2  and  C_3
REMARK    3  A    between atoms: C_3  and  C_4
REMARK    4  A    between atoms: N_6  and  C_7
REMARK    5  A    between atoms: C_10  and  C_11
REMARK    6  A    between atoms: C_11  and  C_12
REMARK    7  A    between atoms: C_11  and  C_13
REMARK                            x       y       z     vdW  Elec       q    Type
REMARK                         _______ _______ _______ _____ _____    ______ ____
ROOT
ATOM      1  C   UNL     1       6.899   5.149  14.764  0.00  0.00    +0.000 A 
ATOM      2  C   UNL     1       5.685   4.463  14.793  0.00  0.00    +0.000 A 
ATOM      3  C   UNL     1       5.254   3.724  13.687  0.00  0.00    +0.000 A 
ATOM      4  C   UNL     1       6.032   3.648  12.526  0.00  0.00    +0.000 A 
ATOM      5  C   UNL     1       7.260   4.322  12.505  0.00  0.00    +0.000 A 
ATOM      6  C   UNL     1       7.683   5.079  13.607  0.00  0.00    +0.000 A 
ENDROOT
BRANCH   1   9
ATOM      7  C   UNL     1       7.337   5.603  17.174  0.00  0.00    +0.000 C 
ATOM      8  O   UNL     1       7.091   4.496  17.644  0.00  0.00    +0.000 OA
ATOM      9  N   UNL     1       7.354   5.948  15.832  0.00  0.00    +0.000 N 
ATOM     10  H   UNL     1       7.733   6.859  15.600  0.00  0.00    +0.000 HD
BRANCH   7  11
ATOM     11  C   UNL     1       7.674   6.783  18.094  0.00  0.00    +0.000 C 
BRANCH  11  13
ATOM     12  C   UNL     1       8.257   9.068  18.018  0.00  0.00    +0.000 C 
ATOM     13  O   UNL     1       7.381   8.054  17.526  0.00  0.00    +0.000 OA
ENDBRANCH  11  13
ENDBRANCH   7  11
ENDBRANCH   1   9
BRANCH   4  14
ATOM     14  C   UNL     1       5.508   2.872  11.331  0.00  0.00    +0.000 C 
ATOM     15  C   UNL     1       5.935   1.404  11.388  0.00  0.00    +0.000 C 
ATOM     16  C   UNL     1       3.991   2.999  11.181  0.00  0.00    +0.000 C 
ENDBRANCH   4  14
TORSDOF 4
ENDMDL
MODEL 4
REMARK VINA RESULT:      -6.0      2.971      6.635
REMARK  Name = 
REMARK  7 active torsions:
REMARK  status: ('A' for Active; 'I' for Inactive)
REMARK    1  A    between atoms: C_1  and  O_2
REMARK    2  A    between atoms: O_2  and  C_3
REMARK    3  A    between atoms: C_3  and  C_4
REMARK    4  A    between atoms: N_6  and  C_7
REMARK    5  A    between atoms: C_10  and  C_11
REMARK    6  A    between atoms: C_11  and  C_12
REMARK    7  A    between atoms: C_11  and  C_13
REMARK                            x       y       z     vdW  Elec       q    Type
REMARK                         _______ _______ _______ _____ _____    ______ ____
ROOT
ATOM      1  C   UNL     1       4.836   3.906  17.218  0.00  0.00    +0.000 A 
ATOM      2  C   UNL     1       5.361   4.258  18.460  0.00  0.00    +0.000 A 
ATOM      3  C   UNL     1       4.529   4.396  19.576  0.00  0.00    +0.000 A 
ATOM      4  C   UNL     1       3.151   4.178  19.476  0.00  0.00    +0.000 A 
ATOM      5  C   UNL     1       2.627   3.806  18.231  0.00  0.00    +0.000 A 
ATOM      6  C   UNL     1       3.458   3.687  17.108  0.00  0.00    +0.000 A 
ENDROOT
BRANCH   1   9
ATOM      7  C   UNL     1       6.015   4.854  15.238  0.00  0.00    +0.000 C 
ATOM      8  O   UNL     1       5.892   6.052  15.476  0.00  0.00    +0.000 OA
ATOM      9  N   UNL     1       5.624   3.804  16.053  0.00  0.00    +0.000 N 
ATOM     10  H   UNL     1       5.940   2.878  15.789  0.00  0.00    +0.000 HD
BRANCH   7  11
ATOM     11  C   UNL     1       6.656   4.381  13.928  0.00  0.00    +0.000 C 
BRANCH  11  13
ATOM     12  C   UNL     1       6.451   3.068  11.978  0.00  0.00    +0.000 C 
ATOM     13  O   UNL     1       5.767   3.660  13.082  0.00  0.00    +0.000 OA
ENDBRANCH  11  13
ENDBRANCH   7  11
ENDBRANCH   1   9
BRANCH   4  14
ATOM     14  C   UNL     1       2.276   4.381  20.700  0.00  0.00    +0.000 C 
ATOM     15  C   UNL     1       1.626   5.766  20.697  0.00  0.00    +0.000 C 
ATOM     16  C   UNL     1       1.225   3.280  20.846  0.00  0.00    +0.000 C 
ENDBRANCH   4  14
TORSDOF 4
ENDMDL
MODEL 5
REMARK VINA RESULT:      -6.0      2.950      6.485
REMARK  Name = 
REMARK  7 active torsions:
REMARK  status: ('A' for Active; 'I' for Inactive)
REMARK    1  A    between atoms: C_1  and  O_2
REMARK    2  A    between atoms: O_2  and  C_3
REMARK    3  A    between atoms: C_3  and  C_4
REMARK    4  A    between atoms: N_6  and  C_7
REMARK    5  A    between atoms: C_10  and  C_11
REMARK    6  A    between atoms: C_11  and  C_12
REMARK    7  A    between atoms: C_11  and  C_13
REMARK                            x       y       z     vdW  Elec       q    Type
REMARK                         _______ _______ _______ _____ _____    ______ ____
ROOT
ATOM      1  C   UNL     1       4.797   4.049  17.112  0.00  0.00    +0.000 A 
ATOM      2  C   UNL     1       3.445   3.719  17.032  0.00  0.00    +0.000 A 
ATOM      3  C   UNL     1       2.642   3.711  18.176  0.00  0.00    +0.000 A 
ATOM      4  C   UNL     1       3.171   4.040  19.429  0.00  0.00    +0.000 A 
ATOM      5  C   UNL     1       4.526   4.389  19.505  0.00  0.00    +0.000 A 
ATOM      6  C   UNL     1       5.336   4.378  18.361  0.00  0.00    +0.000 A 
ENDROOT
BRANCH   1   9
ATOM      7  C   UNL     1       5.943   5.088  15.158  0.00  0.00    +0.000 C 
ATOM      8  O   UNL     1       5.635   6.263  15.336  0.00  0.00    +0.000 OA
ATOM      9  N   UNL     1       5.660   4.022  15.997  0.00  0.00    +0.000 N 
ATOM     10  H   UNL     1       6.122   3.144  15.791  0.00  0.00    +0.000 HD
BRANCH   7  11
ATOM     11  C   UNL     1       6.723   4.668  13.908  0.00  0.00    +0.000 C 
BRANCH  11  13
ATOM     12  C   UNL     1       5.847   3.306  12.192  0.00  0.00    +0.000 C 
ATOM     13  O   UNL     1       6.452   3.337  13.483  0.00  0.00    +0.000 OA
ENDBRANCH  11  13
ENDBRANCH   7  11
ENDBRANCH   1   9
BRANCH   4  14
ATOM     14  C   UNL     1       2.277   3.976  20.654  0.00  0.00    +0.000 C 
ATOM     15  C   UNL     1       0.798   4.043  20.269  0.00  0.00    +0.000 C 
ATOM     16  C   UNL     1       2.566   2.745  21.515  0.00  0.00    +0.000 C 
ENDBRANCH   4  14
TORSDOF 4
ENDMDL
MODEL 6
REMARK VINA RESULT:      -6.0      2.838      6.520
REMARK  Name = 
REMARK  7 active torsions:
REMARK  status: ('A' for Active; 'I' for Inactive)
REMARK    1  A    between atoms: C_1  and  O_2
REMARK    2  A    between atoms: O_2  and  C_3
REMARK    3  A    between atoms: C_3  and  C_4
REMARK    4  A    between atoms: N_6  and  C_7
REMARK    5  A    between atoms: C_10  and  C_11
REMARK    6  A    between atoms: C_11  and  C_12
REMARK    7  A    between atoms: C_11  and  C_13
REMARK                            x       y       z     vdW  Elec       q    Type
REMARK                         _______ _______ _______ _____ _____    ______ ____
ROOT
ATOM      1  C   UNL     1       4.617   4.190  17.079  0.00  0.00    +0.000 A 
ATOM      2  C   UNL     1       4.532   5.307  17.909  0.00  0.00    +0.000 A 
ATOM      3  C   UNL     1       3.813   5.255  19.107  0.00  0.00    +0.000 A 
ATOM      4  C   UNL     1       3.167   4.079  19.508  0.00  0.00    +0.000 A 
ATOM      5  C   UNL     1       3.270   2.953  18.681  0.00  0.00    +0.000 A 
ATOM      6  C   UNL     1       3.973   3.011  17.470  0.00  0.00    +0.000 A 
ENDROOT
BRANCH   1   9
ATOM      7  C   UNL     1       6.631   4.471  15.638  0.00  0.00    +0.000 C 
ATOM      8  O   UNL     1       7.496   4.563  16.505  0.00  0.00    +0.000 OA
ATOM      9  N   UNL     1       5.285   4.207  15.837  0.00  0.00    +0.000 N 
ATOM     10  H   UNL     1       4.733   4.003  15.013  0.00  0.00    +0.000 HD
BRANCH   7  11
ATOM     11  C   UNL     1       6.987   4.650  14.159  0.00  0.00    +0.000 C 
BRANCH  11  13
ATOM     12  C   UNL     1       6.702   3.490  12.124  0.00  0.00    +0.000 C 
ATOM     13  O   UNL     1       6.056   4.048  13.267  0.00  0.00    +0.000 OA
ENDBRANCH  11  13
ENDBRANCH   7  11
ENDBRANCH   1   9
BRANCH   4  14
ATOM     14  C   UNL     1       2.361   4.076  20.794  0.00  0.00    +0.000 C 
ATOM     15  C   UNL     1       0.878   4.343  20.523  0.00  0.00    +0.000 C 
ATOM     16  C   UNL     1       2.551   2.785  21.590  0.00  0.00    +0.000 C 
ENDBRANCH   4  14
TORSDOF 4
ENDMDL
MODEL 7
REMARK VINA RESULT:      -6.0      4.011      5.951
REMARK  Name = 
REMARK  7 active torsions:
REMARK  status: ('A' for Active; 'I' for Inactive)
REMARK    1  A    between atoms: C_1  and  O_2
REMARK    2  A    between atoms: O_2  and  C_3
REMARK    3  A    between atoms: C_3  and  C_4
REMARK    4  A    between atoms: N_6  and  C_7
REMARK    5  A    between atoms: C_10  and  C_11
REMARK    6  A    between atoms: C_11  and  C_12
REMARK    7  A    between atoms: C_11  and  C_13
REMARK                            x       y       z     vdW  Elec       q    Type
REMARK                         _______ _______ _______ _____ _____    ______ ____
ROOT
ATOM      1  C   UNL     1       4.210   5.781  17.950  0.00  0.00    +0.000 A 
ATOM      2  C   UNL     1       3.803   4.581  17.370  0.00  0.00    +0.000 A 
ATOM      3  C   UNL     1       2.757   3.837  17.925  0.00  0.00    +0.000 A 
ATOM      4  C   UNL     1       2.089   4.280  19.072  0.00  0.00    +0.000 A 
ATOM      5  C   UNL     1       2.487   5.496  19.642  0.00  0.00    +0.000 A 
ATOM      6  C   UNL     1       3.549   6.232  19.097  0.00  0.00    +0.000 A 
ENDROOT
BRANCH   1   9
ATOM      7  C   UNL     1       6.630   6.346  17.758  0.00  0.00    +0.000 C 
ATOM      8  O   UNL     1       7.116   5.389  18.354  0.00  0.00    +0.000 OA
ATOM      9  N   UNL     1       5.291   6.542  17.458  0.00  0.00    +0.000 N 
ATOM     10  H   UNL     1       5.072   7.299  16.822  0.00  0.00    +0.000 HD
BRANCH   7  11
ATOM     11  C   UNL     1       7.522   7.487  17.258  0.00  0.00    +0.000 C 
BRANCH  11  13
ATOM     12  C   UNL     1       8.488   9.444  18.157  0.00  0.00    +0.000 C 
ATOM     13  O   UNL     1       8.382   8.024  18.257  0.00  0.00    +0.000 OA
ENDBRANCH  11  13
ENDBRANCH   7  11
ENDBRANCH   1   9
BRANCH   4  14
ATOM     14  C   UNL     1       0.989   3.422  19.670  0.00  0.00    +0.000 C 
ATOM     15  C   UNL     1       0.680   2.213  18.783  0.00  0.00    +0.000 C 
ATOM     16  C   UNL     1       1.310   2.987  21.100  0.00  0.00    +0.000 C 
ENDBRANCH   4  14
TORSDOF 4
ENDMDL
MODEL 8
REMARK VINA RESULT:      -6.0      4.050      5.981
REMARK  Name = 
REMARK  7 active torsions:
REMARK  status: ('A' for Active; 'I' for Inactive)
REMARK    1  A    between atoms: C_1  and  O_2
REMARK    2  A    between atoms: O_2  and  C_3
REMARK    3  A    between atoms: C_3  and  C_4
REMARK    4  A    between atoms: N_6  and  C_7
REMARK    5  A    between atoms: C_10  and  C_11
REMARK    6  A    between atoms: C_11  and  C_12
REMARK    7  A    between atoms: C_11  and  C_13
REMARK                            x       y       z     vdW  Elec       q    Type
REMARK                         _______ _______ _______ _____ _____    ______ ____
ROOT
ATOM      1  C   UNL     1       4.421   5.535  18.294  0.00  0.00    +0.000 A 
ATOM      2  C   UNL     1       3.852   5.826  19.533  0.00  0.00    +0.000 A 
ATOM      3  C   UNL     1       2.762   5.091  20.010  0.00  0.00    +0.000 A 
ATOM      4  C   UNL     1       2.219   4.041  19.261  0.00  0.00    +0.000 A 
ATOM      5  C   UNL     1       2.804   3.738  18.025  0.00  0.00    +0.000 A 
ATOM      6  C   UNL     1       3.884   4.487  17.537  0.00  0.00    +0.000 A 
ENDROOT
BRANCH   1   9
ATOM      7  C   UNL     1       6.831   6.112  18.037  0.00  0.00    +0.000 C 
ATOM      8  O   UNL     1       7.336   5.193  18.676  0.00  0.00    +0.000 OA
ATOM      9  N   UNL     1       5.486   6.278  17.747  0.00  0.00    +0.000 N 
ATOM     10  H   UNL     1       5.250   6.998  17.074  0.00  0.00    +0.000 HD
BRANCH   7  11
ATOM     11  C   UNL     1       7.704   7.233  17.462  0.00  0.00    +0.000 C 
BRANCH  11  13
ATOM     12  C   UNL     1       8.402   9.383  18.141  0.00  0.00    +0.000 C 
ATOM     13  O   UNL     1       8.391   7.990  18.453  0.00  0.00    +0.000 OA
ENDBRANCH  11  13
ENDBRANCH   7  11
ENDBRANCH   1   9
BRANCH   4  14
ATOM     14  C   UNL     1       1.008   3.297  19.794  0.00  0.00    +0.000 C 
ATOM     15  C   UNL     1       0.581   2.175  18.845  0.00  0.00    +0.000 C 
ATOM     16  C   UNL     1       1.237   2.764  21.209  0.00  0.00    +0.000 C 
ENDBRANCH   4  14
TORSDOF 4
ENDMDL
MODEL 9
REMARK VINA RESULT:      -5.9      2.900      6.521
REMARK  Name = 
REMARK  7 active torsions:
REMARK  status: ('A' for Active; 'I' for Inactive)
REMARK    1  A    between atoms: C_1  and  O_2
REMARK    2  A    between atoms: O_2  and  C_3
REMARK    3  A    between atoms: C_3  and  C_4
REMARK    4  A    between atoms: N_6  and  C_7
REMARK    5  A    between atoms: C_10  and  C_11
REMARK    6  A    between atoms: C_11  and  C_12
REMARK    7  A    between atoms: C_11  and  C_13
REMARK                            x       y       z     vdW  Elec       q    Type
REMARK                         _______ _______ _______ _____ _____    ______ ____
ROOT
ATOM      1  C   UNL     1       4.936   4.018  17.405  0.00  0.00    +0.000 A 
ATOM      2  C   UNL     1       5.315   4.459  18.672  0.00  0.00    +0.000 A 
ATOM      3  C   UNL     1       4.382   4.534  19.711  0.00  0.00    +0.000 A 
ATOM      4  C   UNL     1       3.048   4.164  19.508  0.00  0.00    +0.000 A 
ATOM      5  C   UNL     1       2.674   3.703  18.239  0.00  0.00    +0.000 A 
ATOM      6  C   UNL     1       3.604   3.647  17.192  0.00  0.00    +0.000 A 
ENDROOT
BRANCH   1   9
ATOM      7  C   UNL     1       6.168   5.036  15.493  0.00  0.00    +0.000 C 
ATOM      8  O   UNL     1       5.897   6.220  15.676  0.00  0.00    +0.000 OA
ATOM      9  N   UNL     1       5.826   3.973  16.312  0.00  0.00    +0.000 N 
ATOM     10  H   UNL     1       6.261   3.081  16.107  0.00  0.00    +0.000 HD
BRANCH   7  11
ATOM     11  C   UNL     1       6.965   4.602  14.258  0.00  0.00    +0.000 C 
BRANCH  11  13
ATOM     12  C   UNL     1       8.077   5.591  12.427  0.00  0.00    +0.000 C 
ATOM     13  O   UNL     1       7.947   5.546  13.847  0.00  0.00    +0.000 OA
ENDBRANCH  11  13
ENDBRANCH   7  11
ENDBRANCH   1   9
BRANCH   4  14
ATOM     14  C   UNL     1       2.056   4.303  20.649  0.00  0.00    +0.000 C 
ATOM     15  C   UNL     1       1.517   5.731  20.749  0.00  0.00    +0.000 C 
ATOM     16  C   UNL     1       0.915   3.289  20.548  0.00  0.00    +0.000 C 
ENDBRANCH   4  14
TORSDOF 4
ENDMDL
