MODEL 1
REMARK VINA RESULT:      -5.7      0.000      0.000
REMARK  Name = 
REMARK  8 active torsions:
REMARK  status: ('A' for Active; 'I' for Inactive)
REMARK    1  A    between atoms: C_1  and  C_2
REMARK    2  A    between atoms: C_2  and  C_3
REMARK    3  A    between atoms: C_3  and  O_4
REMARK    4  A    between atoms: O_4  and  C_5
REMARK    5  A    between atoms: C_7  and  C_8
REMARK    6  A    between atoms: C_8  and  O_10
REMARK    7  A    between atoms: C_11  and  O_12
REMARK    8  A    between atoms: C_15  and  N_16
REMARK                            x       y       z     vdW  Elec       q    Type
REMARK                         _______ _______ _______ _____ _____    ______ ____
ROOT
ATOM      1  C   UNL     1       5.147   5.337  18.937  0.00  0.00    +0.000 A 
ATOM      2  C   UNL     1       6.070   6.397  18.914  0.00  0.00    +0.000 A 
ATOM      3  C   UNL     1       6.916   6.623  17.819  0.00  0.00    +0.000 A 
ATOM      4  C   UNL     1       6.817   5.767  16.725  0.00  0.00    +0.000 A 
ATOM      5  C   UNL     1       5.854   4.729  16.683  0.00  0.00    +0.000 A 
ATOM      6  I   UNL     1       5.595   3.830  14.751  0.00  0.00    +0.000 I 
ATOM      7  C   UNL     1       5.016   4.488  17.804  0.00  0.00    +0.000 A 
ENDROOT
BRANCH   7   8
ATOM      8  N   UNL     1       4.060   3.412  17.842  0.00  0.00    +0.000 N 
ATOM      9  C   UNL     1       2.821   3.381  17.220  0.00  0.00    +0.000 A 
ATOM     10  C   UNL     1       2.209   2.170  17.457  0.00  0.00    +0.000 A 
ATOM     11  C   UNL     1       3.077   1.421  18.272  0.00  0.00    +0.000 A 
ATOM     12  C   UNL     1       4.169   2.220  18.539  0.00  0.00    +0.000 A 
ENDBRANCH   7   8
BRANCH   3  13
ATOM     13  C   UNL     1       7.885   7.752  17.927  0.00  0.00    +0.000 C 
ATOM     14  O   UNL     1       7.933   8.648  17.095  0.00  0.00    +0.000 OA
BRANCH  13  15
ATOM     15  O   UNL     1       8.711   7.701  18.984  0.00  0.00    +0.000 OA
ATOM     16  H   UNL     1       9.403   7.009  18.902  0.00  0.00    +0.000 HD
ENDBRANCH  13  15
ENDBRANCH   3  13
BRANCH   4  17
ATOM     17  O   UNL     1       7.709   5.968  15.695  0.00  0.00    +0.000 OA
ATOM     18  H   UNL     1       7.329   5.535  14.903  0.00  0.00    +0.000 HD
ENDBRANCH   4  17
BRANCH   1  19
ATOM     19  O   UNL     1       4.408   5.058  20.061  0.00  0.00    +0.000 OA
BRANCH  19  20
ATOM     20  C   UNL     1       3.051   5.512  20.108  0.00  0.00    +0.000 C 
BRANCH  20  22
ATOM     21  C   UNL     1       1.011   4.077  20.369  0.00  0.00    +0.000 C 
ATOM     22  C   UNL     1       2.256   4.618  21.051  0.00  0.00    +0.000 C 
ENDBRANCH  20  22
ENDBRANCH  19  20
ENDBRANCH   1  19
TORSDOF 7
ENDMDL
MODEL 2
REMARK VINA RESULT:      -5.6      2.607      3.355
REMARK  Name = 
REMARK  8 active torsions:
REMARK  status: ('A' for Active; 'I' for Inactive)
REMARK    1  A    between atoms: C_1  and  C_2
REMARK    2  A    between atoms: C_2  and  C_3
REMARK    3  A    between atoms: C_3  and  O_4
REMARK    4  A    between atoms: O_4  and  C_5
REMARK    5  A    between atoms: C_7  and  C_8
REMARK    6  A    between atoms: C_8  and  O_10
REMARK    7  A    between atoms: C_11  and  O_12
REMARK    8  A    between atoms: C_15  and  N_16
REMARK                            x       y       z     vdW  Elec       q    Type
REMARK                         _______ _______ _______ _____ _____    ______ ____
ROOT
ATOM      1  C   UNL     1       3.483   6.121  17.905  0.00  0.00    +0.000 A 
ATOM      2  C   UNL     1       4.667   6.601  17.321  0.00  0.00    +0.000 A 
ATOM      3  C   UNL     1       5.892   5.933  17.467  0.00  0.00    +0.000 A 
ATOM      4  C   UNL     1       5.913   4.755  18.208  0.00  0.00    +0.000 A 
ATOM      5  C   UNL     1       4.728   4.205  18.756  0.00  0.00    +0.000 A 
ATOM      6  I   UNL     1       4.928   2.191  19.472  0.00  0.00    +0.000 I 
ATOM      7  C   UNL     1       3.494   4.897  18.626  0.00  0.00    +0.000 A 
ENDROOT
BRANCH   7   8
ATOM      8  N   UNL     1       2.270   4.416  19.212  0.00  0.00    +0.000 N 
ATOM      9  C   UNL     1       1.335   3.586  18.614  0.00  0.00    +0.000 A 
ATOM     10  C   UNL     1       0.314   3.317  19.499  0.00  0.00    +0.000 A 
ATOM     11  C   UNL     1       0.601   4.016  20.685  0.00  0.00    +0.000 A 
ATOM     12  C   UNL     1       1.765   4.722  20.466  0.00  0.00    +0.000 A 
ENDBRANCH   7   8
BRANCH   3  13
ATOM     13  C   UNL     1       7.090   6.561  16.839  0.00  0.00    +0.000 C 
ATOM     14  O   UNL     1       7.510   7.656  17.190  0.00  0.00    +0.000 OA
BRANCH  13  15
ATOM     15  O   UNL     1       7.658   5.853  15.848  0.00  0.00    +0.000 OA
ATOM     16  H   UNL     1       8.467   6.277  15.485  0.00  0.00    +0.000 HD
ENDBRANCH  13  15
ENDBRANCH   3  13
BRANCH   4  17
ATOM     17  O   UNL     1       7.141   4.160  18.395  0.00  0.00    +0.000 OA
ATOM     18  H   UNL     1       6.969   3.246  18.703  0.00  0.00    +0.000 HD
ENDBRANCH   4  17
BRANCH   1  19
ATOM     19  O   UNL     1       2.316   6.846  17.851  0.00  0.00    +0.000 OA
BRANCH  19  20
ATOM     20  C   UNL     1       2.199   8.001  18.688  0.00  0.00    +0.000 C 
BRANCH  20  22
ATOM     21  C   UNL     1       0.774  10.048  18.425  0.00  0.00    +0.000 C 
ATOM     22  C   UNL     1       1.895   9.218  17.823  0.00  0.00    +0.000 C 
ENDBRANCH  20  22
ENDBRANCH  19  20
ENDBRANCH   1  19
TORSDOF 7
ENDMDL
MODEL 3
REMARK VINA RESULT:      -5.5      2.569      3.858
REMARK  Name = 
REMARK  8 active torsions:
REMARK  status: ('A' for Active; 'I' for Inactive)
REMARK    1  A    between atoms: C_1  and  C_2
REMARK    2  A    between atoms: C_2  and  C_3
REMARK    3  A    between atoms: C_3  and  O_4
REMARK    4  A    between atoms: O_4  and  C_5
REMARK    5  A    between atoms: C_7  and  C_8
REMARK    6  A    between atoms: C_8  and  O_10
REMARK    7  A    between atoms: C_11  and  O_12
REMARK    8  A    between atoms: C_15  and  N_16
REMARK                            x       y       z     vdW  Elec       q    Type
REMARK                         _______ _______ _______ _____ _____    ______ ____
ROOT
ATOM      1  C   UNL     1       4.283   6.110  17.314  0.00  0.00    +0.000 A 
ATOM      2  C   UNL     1       5.157   6.072  16.216  0.00  0.00    +0.000 A 
ATOM      3  C   UNL     1       5.649   4.865  15.697  0.00  0.00    +0.000 A 
ATOM      4  C   UNL     1       5.238   3.677  16.298  0.00  0.00    +0.000 A 
ATOM      5  C   UNL     1       4.306   3.672  17.364  0.00  0.00    +0.000 A 
ATOM      6  I   UNL     1       3.499   1.738  17.833  0.00  0.00    +0.000 I 
ATOM      7  C   UNL     1       3.829   4.897  17.901  0.00  0.00    +0.000 A 
ENDROOT
BRANCH   7   8
ATOM      8  N   UNL     1       2.927   4.955  19.022  0.00  0.00    +0.000 N 
ATOM      9  C   UNL     1       1.550   4.800  18.986  0.00  0.00    +0.000 A 
ATOM     10  C   UNL     1       1.037   4.885  20.262  0.00  0.00    +0.000 A 
ATOM     11  C   UNL     1       2.120   5.123  21.128  0.00  0.00    +0.000 A 
ATOM     12  C   UNL     1       3.249   5.218  20.343  0.00  0.00    +0.000 A 
ENDBRANCH   7   8
BRANCH   3  13
ATOM     13  C   UNL     1       6.605   4.951  14.557  0.00  0.00    +0.000 C 
ATOM     14  O   UNL     1       7.624   5.627  14.613  0.00  0.00    +0.000 OA
BRANCH  13  15
ATOM     15  O   UNL     1       6.260   4.256  13.461  0.00  0.00    +0.000 OA
ATOM     16  H   UNL     1       5.351   3.885  13.509  0.00  0.00    +0.000 HD
ENDBRANCH  13  15
ENDBRANCH   3  13
BRANCH   4  17
ATOM     17  O   UNL     1       5.793   2.512  15.815  0.00  0.00    +0.000 OA
ATOM     18  H   UNL     1       5.980   2.660  14.865  0.00  0.00    +0.000 HD
ENDBRANCH   4  17
BRANCH   1  19
ATOM     19  O   UNL     1       3.902   7.302  17.883  0.00  0.00    +0.000 OA
BRANCH  19  20
ATOM     20  C   UNL     1       2.731   7.949  17.374  0.00  0.00    +0.000 C 
BRANCH  20  22
ATOM     21  C   UNL     1       1.029   9.638  18.109  0.00  0.00    +0.000 C 
ATOM     22  C   UNL     1       1.902   8.472  18.541  0.00  0.00    +0.000 C 
ENDBRANCH  20  22
ENDBRANCH  19  20
ENDBRANCH   1  19
TORSDOF 7
ENDMDL
MODEL 4
REMARK VINA RESULT:      -5.4      2.591      3.365
REMARK  Name = 
REMARK  8 active torsions:
REMARK  status: ('A' for Active; 'I' for Inactive)
REMARK    1  A    between atoms: C_1  and  C_2
REMARK    2  A    between atoms: C_2  and  C_3
REMARK    3  A    between atoms: C_3  and  O_4
REMARK    4  A    between atoms: O_4  and  C_5
REMARK    5  A    between atoms: C_7  and  C_8
REMARK    6  A    between atoms: C_8  and  O_10
REMARK    7  A    between atoms: C_11  and  O_12
REMARK    8  A    between atoms: C_15  and  N_16
REMARK                            x       y       z     vdW  Elec       q    Type
REMARK                         _______ _______ _______ _____ _____    ______ ____
ROOT
ATOM      1  C   UNL     1       3.487   6.070  17.888  0.00  0.00    +0.000 A 
ATOM      2  C   UNL     1       4.664   6.540  17.282  0.00  0.00    +0.000 A 
ATOM      3  C   UNL     1       5.888   5.866  17.412  0.00  0.00    +0.000 A 
ATOM      4  C   UNL     1       5.915   4.694  18.162  0.00  0.00    +0.000 A 
ATOM      5  C   UNL     1       4.737   4.154  18.733  0.00  0.00    +0.000 A 
ATOM      6  I   UNL     1       4.938   2.144  19.461  0.00  0.00    +0.000 I 
ATOM      7  C   UNL     1       3.504   4.851  18.618  0.00  0.00    +0.000 A 
ENDROOT
BRANCH   7   8
ATOM      8  N   UNL     1       2.287   4.381  19.227  0.00  0.00    +0.000 N 
ATOM      9  C   UNL     1       1.834   4.671  20.505  0.00  0.00    +0.000 A 
ATOM     10  C   UNL     1       0.613   4.068  20.716  0.00  0.00    +0.000 A 
ATOM     11  C   UNL     1       0.296   3.356  19.546  0.00  0.00    +0.000 A 
ATOM     12  C   UNL     1       1.355   3.516  18.678  0.00  0.00    +0.000 A 
ENDBRANCH   7   8
BRANCH   3  13
ATOM     13  C   UNL     1       7.078   6.483  16.760  0.00  0.00    +0.000 C 
ATOM     14  O   UNL     1       7.691   5.922  15.861  0.00  0.00    +0.000 OA
BRANCH  13  15
ATOM     15  O   UNL     1       7.444   7.682  17.244  0.00  0.00    +0.000 OA
ATOM     16  H   UNL     1       8.401   7.738  17.455  0.00  0.00    +0.000 HD
ENDBRANCH  13  15
ENDBRANCH   3  13
BRANCH   4  17
ATOM     17  O   UNL     1       7.143   4.093  18.334  0.00  0.00    +0.000 OA
ATOM     18  H   UNL     1       7.801   4.814  18.417  0.00  0.00    +0.000 HD
ENDBRANCH   4  17
BRANCH   1  19
ATOM     19  O   UNL     1       2.323   6.800  17.848  0.00  0.00    +0.000 OA
BRANCH  19  20
ATOM     20  C   UNL     1       2.231   7.971  18.666  0.00  0.00    +0.000 C 
BRANCH  20  22
ATOM     21  C   UNL     1       0.575   9.779  18.139  0.00  0.00    +0.000 C 
ATOM     22  C   UNL     1       1.923   9.175  17.785  0.00  0.00    +0.000 C 
ENDBRANCH  20  22
ENDBRANCH  19  20
ENDBRANCH   1  19
TORSDOF 7
ENDMDL
MODEL 5
REMARK VINA RESULT:      -5.4      2.295      3.278
REMARK  Name = 
REMARK  8 active torsions:
REMARK  status: ('A' for Active; 'I' for Inactive)
REMARK    1  A    between atoms: C_1  and  C_2
REMARK    2  A    between atoms: C_2  and  C_3
REMARK    3  A    between atoms: C_3  and  O_4
REMARK    4  A    between atoms: O_4  and  C_5
REMARK    5  A    between atoms: C_7  and  C_8
REMARK    6  A    between atoms: C_8  and  O_10
REMARK    7  A    between atoms: C_11  and  O_12
REMARK    8  A    between atoms: C_15  and  N_16
REMARK                            x       y       z     vdW  Elec       q    Type
REMARK                         _______ _______ _______ _____ _____    ______ ____
ROOT
ATOM      1  C   UNL     1       3.407   5.806  18.640  0.00  0.00    +0.000 A 
ATOM      2  C   UNL     1       4.230   6.321  17.624  0.00  0.00    +0.000 A 
ATOM      3  C   UNL     1       5.065   5.498  16.855  0.00  0.00    +0.000 A 
ATOM      4  C   UNL     1       5.058   4.130  17.115  0.00  0.00    +0.000 A 
ATOM      5  C   UNL     1       4.195   3.566  18.086  0.00  0.00    +0.000 A 
ATOM      6  I   UNL     1       4.043   1.426  18.010  0.00  0.00    +0.000 I 
ATOM      7  C   UNL     1       3.368   4.406  18.879  0.00  0.00    +0.000 A 
ENDROOT
BRANCH   7   8
ATOM      8  N   UNL     1       2.514   3.895  19.920  0.00  0.00    +0.000 N 
ATOM      9  C   UNL     1       1.162   3.608  19.816  0.00  0.00    +0.000 A 
ATOM     10  C   UNL     1       0.698   3.105  21.012  0.00  0.00    +0.000 A 
ATOM     11  C   UNL     1       1.784   3.096  21.905  0.00  0.00    +0.000 A 
ATOM     12  C   UNL     1       2.861   3.634  21.235  0.00  0.00    +0.000 A 
ENDBRANCH   7   8
BRANCH   3  13
ATOM     13  C   UNL     1       5.926   6.162  15.834  0.00  0.00    +0.000 C 
ATOM     14  O   UNL     1       7.142   6.023  15.819  0.00  0.00    +0.000 OA
BRANCH  13  15
ATOM     15  O   UNL     1       5.276   6.939  14.951  0.00  0.00    +0.000 OA
ATOM     16  H   UNL     1       5.875   7.372  14.304  0.00  0.00    +0.000 HD
ENDBRANCH  13  15
ENDBRANCH   3  13
BRANCH   4  17
ATOM     17  O   UNL     1       5.941   3.355  16.396  0.00  0.00    +0.000 OA
ATOM     18  H   UNL     1       6.826   3.491  16.793  0.00  0.00    +0.000 HD
ENDBRANCH   4  17
BRANCH   1  19
ATOM     19  O   UNL     1       2.682   6.637  19.461  0.00  0.00    +0.000 OA
BRANCH  19  20
ATOM     20  C   UNL     1       2.146   7.840  18.900  0.00  0.00    +0.000 C 
BRANCH  20  22
ATOM     21  C   UNL     1       1.114   7.817  21.187  0.00  0.00    +0.000 C 
ATOM     22  C   UNL     1       1.540   8.685  20.015  0.00  0.00    +0.000 C 
ENDBRANCH  20  22
ENDBRANCH  19  20
ENDBRANCH   1  19
TORSDOF 7
ENDMDL
MODEL 6
REMARK VINA RESULT:      -5.4      2.360      3.370
REMARK  Name = 
REMARK  8 active torsions:
REMARK  status: ('A' for Active; 'I' for Inactive)
REMARK    1  A    between atoms: C_1  and  C_2
REMARK    2  A    between atoms: C_2  and  C_3
REMARK    3  A    between atoms: C_3  and  O_4
REMARK    4  A    between atoms: O_4  and  C_5
REMARK    5  A    between atoms: C_7  and  C_8
REMARK    6  A    between atoms: C_8  and  O_10
REMARK    7  A    between atoms: C_11  and  O_12
REMARK    8  A    between atoms: C_15  and  N_16
REMARK                            x       y       z     vdW  Elec       q    Type
REMARK                         _______ _______ _______ _____ _____    ______ ____
ROOT
ATOM      1  C   UNL     1       3.381   5.715  18.816  0.00  0.00    +0.000 A 
ATOM      2  C   UNL     1       4.170   6.301  17.812  0.00  0.00    +0.000 A 
ATOM      3  C   UNL     1       4.999   5.538  16.977  0.00  0.00    +0.000 A 
ATOM      4  C   UNL     1       5.019   4.158  17.157  0.00  0.00    +0.000 A 
ATOM      5  C   UNL     1       4.188   3.524  18.113  0.00  0.00    +0.000 A 
ATOM      6  I   UNL     1       4.067   1.390  17.915  0.00  0.00    +0.000 I 
ATOM      7  C   UNL     1       3.368   4.303  18.972  0.00  0.00    +0.000 A 
ENDROOT
BRANCH   7   8
ATOM      8  N   UNL     1       2.547   3.718  20.002  0.00  0.00    +0.000 N 
ATOM      9  C   UNL     1       2.964   3.299  21.256  0.00  0.00    +0.000 A 
ATOM     10  C   UNL     1       1.886   2.827  21.972  0.00  0.00    +0.000 A 
ATOM     11  C   UNL     1       0.759   2.929  21.138  0.00  0.00    +0.000 A 
ATOM     12  C   UNL     1       1.197   3.420  19.927  0.00  0.00    +0.000 A 
ENDBRANCH   7   8
BRANCH   3  13
ATOM     13  C   UNL     1       5.824   6.275  15.977  0.00  0.00    +0.000 C 
ATOM     14  O   UNL     1       5.320   6.946  15.086  0.00  0.00    +0.000 OA
BRANCH  13  15
ATOM     15  O   UNL     1       7.153   6.131  16.110  0.00  0.00    +0.000 OA
ATOM     16  H   UNL     1       7.666   6.805  15.612  0.00  0.00    +0.000 HD
ENDBRANCH  13  15
ENDBRANCH   3  13
BRANCH   4  17
ATOM     17  O   UNL     1       5.896   3.441  16.373  0.00  0.00    +0.000 OA
ATOM     18  H   UNL     1       6.200   4.044  15.664  0.00  0.00    +0.000 HD
ENDBRANCH   4  17
BRANCH   1  19
ATOM     19  O   UNL     1       2.663   6.485  19.700  0.00  0.00    +0.000 OA
BRANCH  19  20
ATOM     20  C   UNL     1       2.165   7.748  19.247  0.00  0.00    +0.000 C 
BRANCH  20  22
ATOM     21  C   UNL     1       0.708   9.681  19.903  0.00  0.00    +0.000 C 
ATOM     22  C   UNL     1       1.425   8.433  20.390  0.00  0.00    +0.000 C 
ENDBRANCH  20  22
ENDBRANCH  19  20
ENDBRANCH   1  19
TORSDOF 7
ENDMDL
MODEL 7
REMARK VINA RESULT:      -5.3      2.584      3.715
REMARK  Name = 
REMARK  8 active torsions:
REMARK  status: ('A' for Active; 'I' for Inactive)
REMARK    1  A    between atoms: C_1  and  C_2
REMARK    2  A    between atoms: C_2  and  C_3
REMARK    3  A    between atoms: C_3  and  O_4
REMARK    4  A    between atoms: O_4  and  C_5
REMARK    5  A    between atoms: C_7  and  C_8
REMARK    6  A    between atoms: C_8  and  O_10
REMARK    7  A    between atoms: C_11  and  O_12
REMARK    8  A    between atoms: C_15  and  N_16
REMARK                            x       y       z     vdW  Elec       q    Type
REMARK                         _______ _______ _______ _____ _____    ______ ____
ROOT
ATOM      1  C   UNL     1       4.582   3.708  17.679  0.00  0.00    +0.000 A 
ATOM      2  C   UNL     1       5.478   3.661  16.597  0.00  0.00    +0.000 A 
ATOM      3  C   UNL     1       5.695   4.767  15.763  0.00  0.00    +0.000 A 
ATOM      4  C   UNL     1       4.999   5.942  16.036  0.00  0.00    +0.000 A 
ATOM      5  C   UNL     1       4.139   6.048  17.155  0.00  0.00    +0.000 A 
ATOM      6  I   UNL     1       3.524   8.052  17.621  0.00  0.00    +0.000 I 
ATOM      7  C   UNL     1       3.904   4.919  17.984  0.00  0.00    +0.000 A 
ENDROOT
BRANCH   7   8
ATOM      8  N   UNL     1       2.994   4.950  19.100  0.00  0.00    +0.000 N 
ATOM      9  C   UNL     1       1.638   5.233  19.056  0.00  0.00    +0.000 A 
ATOM     10  C   UNL     1       1.099   5.132  20.320  0.00  0.00    +0.000 A 
ATOM     11  C   UNL     1       2.150   4.799  21.193  0.00  0.00    +0.000 A 
ATOM     12  C   UNL     1       3.301   4.751  20.436  0.00  0.00    +0.000 A 
ENDBRANCH   7   8
BRANCH   3  13
ATOM     13  C   UNL     1       6.636   4.586  14.620  0.00  0.00    +0.000 C 
ATOM     14  O   UNL     1       7.548   5.372  14.398  0.00  0.00    +0.000 OA
BRANCH  13  15
ATOM     15  O   UNL     1       6.399   3.516  13.843  0.00  0.00    +0.000 OA
ATOM     16  H   UNL     1       7.042   2.787  13.982  0.00  0.00    +0.000 HD
ENDBRANCH  13  15
ENDBRANCH   3  13
BRANCH   4  17
ATOM     17  O   UNL     1       5.176   6.988  15.158  0.00  0.00    +0.000 OA
ATOM     18  H   UNL     1       4.526   7.678  15.404  0.00  0.00    +0.000 HD
ENDBRANCH   4  17
BRANCH   1  19
ATOM     19  O   UNL     1       4.294   2.584  18.416  0.00  0.00    +0.000 OA
BRANCH  19  20
ATOM     20  C   UNL     1       3.219   1.747  17.978  0.00  0.00    +0.000 C 
BRANCH  20  22
ATOM     21  C   UNL     1       0.820   1.993  18.668  0.00  0.00    +0.000 C 
ATOM     22  C   UNL     1       2.215   1.587  19.113  0.00  0.00    +0.000 C 
ENDBRANCH  20  22
ENDBRANCH  19  20
ENDBRANCH   1  19
TORSDOF 7
ENDMDL
MODEL 8
REMARK VINA RESULT:      -5.3      2.444      3.692
REMARK  Name = 
REMARK  8 active torsions:
REMARK  status: ('A' for Active; 'I' for Inactive)
REMARK    1  A    between atoms: C_1  and  C_2
REMARK    2  A    between atoms: C_2  and  C_3
REMARK    3  A    between atoms: C_3  and  O_4
REMARK    4  A    between atoms: O_4  and  C_5
REMARK    5  A    between atoms: C_7  and  C_8
REMARK    6  A    between atoms: C_8  and  O_10
REMARK    7  A    between atoms: C_11  and  O_12
REMARK    8  A    between atoms: C_15  and  N_16
REMARK                            x       y       z     vdW  Elec       q    Type
REMARK                         _______ _______ _______ _____ _____    ______ ____
ROOT
ATOM      1  C   UNL     1       4.079   6.016  17.516  0.00  0.00    +0.000 A 
ATOM      2  C   UNL     1       4.965   6.078  16.428  0.00  0.00    +0.000 A 
ATOM      3  C   UNL     1       5.549   4.928  15.877  0.00  0.00    +0.000 A 
ATOM      4  C   UNL     1       5.221   3.695  16.434  0.00  0.00    +0.000 A 
ATOM      5  C   UNL     1       4.282   3.586  17.488  0.00  0.00    +0.000 A 
ATOM      6  I   UNL     1       3.615   1.584  17.886  0.00  0.00    +0.000 I 
ATOM      7  C   UNL     1       3.711   4.755  18.059  0.00  0.00    +0.000 A 
ENDROOT
BRANCH   7   8
ATOM      8  N   UNL     1       2.796   4.709  19.170  0.00  0.00    +0.000 N 
ATOM      9  C   UNL     1       3.124   4.763  20.516  0.00  0.00    +0.000 A 
ATOM     10  C   UNL     1       1.976   4.729  21.278  0.00  0.00    +0.000 A 
ATOM     11  C   UNL     1       0.892   4.626  20.388  0.00  0.00    +0.000 A 
ATOM     12  C   UNL     1       1.420   4.558  19.116  0.00  0.00    +0.000 A 
ENDBRANCH   7   8
BRANCH   3  13
ATOM     13  C   UNL     1       6.508   5.122  14.752  0.00  0.00    +0.000 C 
ATOM     14  O   UNL     1       6.278   4.707  13.623  0.00  0.00    +0.000 OA
BRANCH  13  15
ATOM     15  O   UNL     1       7.646   5.762  15.068  0.00  0.00    +0.000 OA
ATOM     16  H   UNL     1       8.045   6.239  14.309  0.00  0.00    +0.000 HD
ENDBRANCH  13  15
ENDBRANCH   3  13
BRANCH   4  17
ATOM     17  O   UNL     1       5.865   2.590  15.922  0.00  0.00    +0.000 OA
ATOM     18  H   UNL     1       6.715   2.905  15.550  0.00  0.00    +0.000 HD
ENDBRANCH   4  17
BRANCH   1  19
ATOM     19  O   UNL     1       3.605   7.158  18.118  0.00  0.00    +0.000 OA
BRANCH  19  20
ATOM     20  C   UNL     1       2.630   7.936  17.416  0.00  0.00    +0.000 C 
BRANCH  20  22
ATOM     21  C   UNL     1       1.840   8.171  19.785  0.00  0.00    +0.000 C 
ATOM     22  C   UNL     1       1.883   8.817  18.411  0.00  0.00    +0.000 C 
ENDBRANCH  20  22
ENDBRANCH  19  20
ENDBRANCH   1  19
TORSDOF 7
ENDMDL
MODEL 9
REMARK VINA RESULT:      -5.3      2.238      3.808
REMARK  Name = 
REMARK  8 active torsions:
REMARK  status: ('A' for Active; 'I' for Inactive)
REMARK    1  A    between atoms: C_1  and  C_2
REMARK    2  A    between atoms: C_2  and  C_3
REMARK    3  A    between atoms: C_3  and  O_4
REMARK    4  A    between atoms: O_4  and  C_5
REMARK    5  A    between atoms: C_7  and  C_8
REMARK    6  A    between atoms: C_8  and  O_10
REMARK    7  A    between atoms: C_11  and  O_12
REMARK    8  A    between atoms: C_15  and  N_16
REMARK                            x       y       z     vdW  Elec       q    Type
REMARK                         _______ _______ _______ _____ _____    ______ ____
ROOT
ATOM      1  C   UNL     1       4.037   3.919  16.776  0.00  0.00    +0.000 A 
ATOM      2  C   UNL     1       4.721   3.847  15.551  0.00  0.00    +0.000 A 
ATOM      3  C   UNL     1       5.968   4.458  15.357  0.00  0.00    +0.000 A 
ATOM      4  C   UNL     1       6.535   5.145  16.427  0.00  0.00    +0.000 A 
ATOM      5  C   UNL     1       5.908   5.184  17.697  0.00  0.00    +0.000 A 
ATOM      6  I   UNL     1       7.154   5.915  19.285  0.00  0.00    +0.000 I 
ATOM      7  C   UNL     1       4.634   4.584  17.882  0.00  0.00    +0.000 A 
ENDROOT
BRANCH   7   8
ATOM      8  N   UNL     1       3.923   4.642  19.133  0.00  0.00    +0.000 N 
ATOM      9  C   UNL     1       3.102   5.670  19.572  0.00  0.00    +0.000 A 
ATOM     10  C   UNL     1       2.571   5.349  20.802  0.00  0.00    +0.000 A 
ATOM     11  C   UNL     1       3.089   4.092  21.161  0.00  0.00    +0.000 A 
ATOM     12  C   UNL     1       3.952   3.710  20.157  0.00  0.00    +0.000 A 
ENDBRANCH   7   8
BRANCH   3  13
ATOM     13  C   UNL     1       6.577   4.351  14.000  0.00  0.00    +0.000 C 
ATOM     14  O   UNL     1       7.318   5.216  13.550  0.00  0.00    +0.000 OA
BRANCH  13  15
ATOM     15  O   UNL     1       6.238   3.255  13.302  0.00  0.00    +0.000 OA
ATOM     16  H   UNL     1       6.758   2.461  13.552  0.00  0.00    +0.000 HD
ENDBRANCH  13  15
ENDBRANCH   3  13
BRANCH   4  17
ATOM     17  O   UNL     1       7.725   5.796  16.188  0.00  0.00    +0.000 OA
ATOM     18  H   UNL     1       8.034   6.148  17.048  0.00  0.00    +0.000 HD
ENDBRANCH   4  17
BRANCH   1  19
ATOM     19  O   UNL     1       2.766   3.415  16.916  0.00  0.00    +0.000 OA
BRANCH  19  20
ATOM     20  C   UNL     1       2.622   2.051  17.324  0.00  0.00    +0.000 C 
BRANCH  20  22
ATOM     21  C   UNL     1       0.687   3.181  18.452  0.00  0.00    +0.000 C 
ATOM     22  C   UNL     1       1.610   1.974  18.461  0.00  0.00    +0.000 C 
ENDBRANCH  20  22
ENDBRANCH  19  20
ENDBRANCH   1  19
TORSDOF 7
ENDMDL
