MODEL 1
REMARK VINA RESULT:      -7.9      0.000      0.000
REMARK  Name = 
REMARK  6 active torsions:
REMARK  status: ('A' for Active; 'I' for Inactive)
REMARK    1  A    between atoms: C_2  and  N_3
REMARK    2  A    between atoms: C_2  and  N_17
REMARK    3  A    between atoms: N_3  and  C_4
REMARK    4  A    between atoms: C_7  and  N_8
REMARK    5  A    between atoms: N_8  and  C_9
REMARK    6  A    between atoms: N_17  and  C_18
REMARK                            x       y       z     vdW  Elec       q    Type
REMARK                         _______ _______ _______ _____ _____    ______ ____
ROOT
ATOM      1  C   UNL     1       2.379   7.199  19.679  0.00  0.00    +0.000 A 
ATOM      2  C   UNL     1       1.649   8.022  20.545  0.00  0.00    +0.000 A 
ATOM      3  C   UNL     1       0.963   9.137  20.062  0.00  0.00    +0.000 A 
ATOM      4  C   UNL     1       1.032   9.478  18.712  0.00  0.00    +0.000 A 
ATOM      5  C   UNL     1       1.792   8.667  17.854  0.00  0.00    +0.000 A 
ATOM      6  C   UNL     1       2.482   7.549  18.336  0.00  0.00    +0.000 A 
ENDROOT
BRANCH   1   7
ATOM      7  N   UNL     1       3.018   6.018  20.121  0.00  0.00    +0.000 N 
ATOM      8  H   UNL     1       2.720   5.659  21.022  0.00  0.00    +0.000 HD
BRANCH   7  10
ATOM      9  S   UNL     1       3.174   3.728  18.827  0.00  0.00    +0.000 S 
ATOM     10  C   UNL     1       3.794   5.180  19.369  0.00  0.00    +0.000 C 
BRANCH  10  11
ATOM     11  N   UNL     1       5.072   5.544  19.052  0.00  0.00    +0.000 N 
ATOM     12  H   UNL     1       5.569   6.076  19.760  0.00  0.00    +0.000 HD
BRANCH  11  13
ATOM     13  C   UNL     1       5.724   5.355  17.811  0.00  0.00    +0.000 A 
ATOM     14  C   UNL     1       5.164   5.763  16.600  0.00  0.00    +0.000 A 
ATOM     15  C   UNL     1       5.824   5.485  15.404  0.00  0.00    +0.000 A 
ATOM     16  C   UNL     1       7.031   4.808  15.465  0.00  0.00    +0.000 A 
ATOM     17  N   UNL     1       7.627   4.434  16.619  0.00  0.00    +0.000 NA
ATOM     18  C   UNL     1       6.964   4.726  17.763  0.00  0.00    +0.000 A 
ENDBRANCH  11  13
ENDBRANCH  10  11
ENDBRANCH   7  10
ENDBRANCH   1   7
BRANCH   4  19
ATOM     19  N   UNL     1       0.315  10.593  18.232  0.00  0.00    +0.000 N 
ATOM     20  H   UNL     1       0.797  11.077  17.478  0.00  0.00    +0.000 HD
BRANCH  19  21
ATOM     21  C   UNL     1      -1.082  10.701  18.064  0.00  0.00    +0.000 A 
ATOM     22  C   UNL     1      -1.726   9.823  17.187  0.00  0.00    +0.000 A 
ATOM     23  C   UNL     1      -3.108   9.892  17.001  0.00  0.00    +0.000 A 
ATOM     24  C   UNL     1      -3.861  10.828  17.705  0.00  0.00    +0.000 A 
ATOM     25  C   UNL     1      -3.235  11.689  18.603  0.00  0.00    +0.000 A 
ATOM     26  C   UNL     1      -1.855  11.623  18.783  0.00  0.00    +0.000 A 
ENDBRANCH  19  21
ENDBRANCH   4  19
TORSDOF 6
ENDMDL
MODEL 2
REMARK VINA RESULT:      -7.9      0.418      1.084
REMARK  Name = 
REMARK  6 active torsions:
REMARK  status: ('A' for Active; 'I' for Inactive)
REMARK    1  A    between atoms: C_2  and  N_3
REMARK    2  A    between atoms: C_2  and  N_17
REMARK    3  A    between atoms: N_3  and  C_4
REMARK    4  A    between atoms: C_7  and  N_8
REMARK    5  A    between atoms: N_8  and  C_9
REMARK    6  A    between atoms: N_17  and  C_18
REMARK                            x       y       z     vdW  Elec       q    Type
REMARK                         _______ _______ _______ _____ _____    ______ ____
ROOT
ATOM      1  C   UNL     1       2.481   7.259  19.510  0.00  0.00    +0.000 A 
ATOM      2  C   UNL     1       2.506   7.692  18.179  0.00  0.00    +0.000 A 
ATOM      3  C   UNL     1       1.777   8.811  17.777  0.00  0.00    +0.000 A 
ATOM      4  C   UNL     1       0.971   9.493  18.688  0.00  0.00    +0.000 A 
ATOM      5  C   UNL     1       0.924   9.035  20.015  0.00  0.00    +0.000 A 
ATOM      6  C   UNL     1       1.654   7.911  20.420  0.00  0.00    +0.000 A 
ENDROOT
BRANCH   1   7
ATOM      7  N   UNL     1       3.270   6.179  19.968  0.00  0.00    +0.000 N 
ATOM      8  H   UNL     1       3.577   6.228  20.933  0.00  0.00    +0.000 HD
BRANCH   7  10
ATOM      9  S   UNL     1       2.126   4.042  18.935  0.00  0.00    +0.000 S 
ATOM     10  C   UNL     1       3.448   4.976  19.343  0.00  0.00    +0.000 C 
BRANCH  10  11
ATOM     11  N   UNL     1       4.710   4.551  19.039  0.00  0.00    +0.000 N 
ATOM     12  H   UNL     1       5.214   4.091  19.791  0.00  0.00    +0.000 HD
BRANCH  11  13
ATOM     13  C   UNL     1       5.417   4.784  17.837  0.00  0.00    +0.000 A 
ATOM     14  C   UNL     1       4.789   5.218  16.668  0.00  0.00    +0.000 A 
ATOM     15  C   UNL     1       5.529   5.361  15.497  0.00  0.00    +0.000 A 
ATOM     16  C   UNL     1       6.882   5.068  15.537  0.00  0.00    +0.000 A 
ATOM     17  N   UNL     1       7.536   4.686  16.657  0.00  0.00    +0.000 NA
ATOM     18  C   UNL     1       6.790   4.565  17.781  0.00  0.00    +0.000 A 
ENDBRANCH  11  13
ENDBRANCH  10  11
ENDBRANCH   7  10
ENDBRANCH   1   7
BRANCH   4  19
ATOM     19  N   UNL     1       0.257  10.636  18.276  0.00  0.00    +0.000 N 
ATOM     20  H   UNL     1       0.748  11.170  17.562  0.00  0.00    +0.000 HD
BRANCH  19  21
ATOM     21  C   UNL     1      -1.138  10.753  18.098  0.00  0.00    +0.000 A 
ATOM     22  C   UNL     1      -1.779   9.894  17.201  0.00  0.00    +0.000 A 
ATOM     23  C   UNL     1      -3.158   9.973  17.005  0.00  0.00    +0.000 A 
ATOM     24  C   UNL     1      -3.913  10.899  17.719  0.00  0.00    +0.000 A 
ATOM     25  C   UNL     1      -3.290  11.742  18.637  0.00  0.00    +0.000 A 
ATOM     26  C   UNL     1      -1.912  11.666  18.827  0.00  0.00    +0.000 A 
ENDBRANCH  19  21
ENDBRANCH   4  19
TORSDOF 6
ENDMDL
MODEL 3
REMARK VINA RESULT:      -7.8      3.462      8.168
REMARK  Name = 
REMARK  6 active torsions:
REMARK  status: ('A' for Active; 'I' for Inactive)
REMARK    1  A    between atoms: C_2  and  N_3
REMARK    2  A    between atoms: C_2  and  N_17
REMARK    3  A    between atoms: N_3  and  C_4
REMARK    4  A    between atoms: C_7  and  N_8
REMARK    5  A    between atoms: N_8  and  C_9
REMARK    6  A    between atoms: N_17  and  C_18
REMARK                            x       y       z     vdW  Elec       q    Type
REMARK                         _______ _______ _______ _____ _____    ______ ____
ROOT
ATOM      1  C   UNL     1       0.892  10.120  19.882  0.00  0.00    +0.000 A 
ATOM      2  C   UNL     1       0.893   9.304  21.019  0.00  0.00    +0.000 A 
ATOM      3  C   UNL     1       1.502   8.049  20.998  0.00  0.00    +0.000 A 
ATOM      4  C   UNL     1       2.082   7.566  19.825  0.00  0.00    +0.000 A 
ATOM      5  C   UNL     1       2.049   8.375  18.679  0.00  0.00    +0.000 A 
ATOM      6  C   UNL     1       1.437   9.634  18.697  0.00  0.00    +0.000 A 
ENDROOT
BRANCH   1   7
ATOM      7  N   UNL     1       0.355  11.428  19.892  0.00  0.00    +0.000 N 
ATOM      8  H   UNL     1       0.900  12.131  20.379  0.00  0.00    +0.000 HD
BRANCH   7  10
ATOM      9  S   UNL     1      -0.507  13.345  18.303  0.00  0.00    +0.000 S 
ATOM     10  C   UNL     1      -0.669  11.896  19.115  0.00  0.00    +0.000 C 
BRANCH  10  11
ATOM     11  N   UNL     1      -1.816  11.165  18.995  0.00  0.00    +0.000 N 
ATOM     12  H   UNL     1      -2.138  10.705  19.842  0.00  0.00    +0.000 HD
BRANCH  11  13
ATOM     13  C   UNL     1      -2.528  10.893  17.804  0.00  0.00    +0.000 A 
ATOM     14  C   UNL     1      -2.018  10.075  16.795  0.00  0.00    +0.000 A 
ATOM     15  C   UNL     1      -2.737   9.903  15.613  0.00  0.00    +0.000 A 
ATOM     16  C   UNL     1      -3.952  10.557  15.485  0.00  0.00    +0.000 A 
ATOM     17  N   UNL     1      -4.499  11.324  16.455  0.00  0.00    +0.000 NA
ATOM     18  C   UNL     1      -3.780  11.464  17.594  0.00  0.00    +0.000 A 
ENDBRANCH  11  13
ENDBRANCH  10  11
ENDBRANCH   7  10
ENDBRANCH   1   7
BRANCH   4  19
ATOM     19  N   UNL     1       2.716   6.307  19.823  0.00  0.00    +0.000 N 
ATOM     20  H   UNL     1       3.409   6.213  20.562  0.00  0.00    +0.000 HD
BRANCH  19  21
ATOM     21  C   UNL     1       2.124   5.055  19.550  0.00  0.00    +0.000 A 
ATOM     22  C   UNL     1       1.514   4.354  20.595  0.00  0.00    +0.000 A 
ATOM     23  C   UNL     1       0.911   3.117  20.363  0.00  0.00    +0.000 A 
ATOM     24  C   UNL     1       0.894   2.578  19.079  0.00  0.00    +0.000 A 
ATOM     25  C   UNL     1       1.474   3.280  18.025  0.00  0.00    +0.000 A 
ATOM     26  C   UNL     1       2.082   4.511  18.259  0.00  0.00    +0.000 A 
ENDBRANCH  19  21
ENDBRANCH   4  19
TORSDOF 6
ENDMDL
MODEL 4
REMARK VINA RESULT:      -7.7      1.172      1.629
REMARK  Name = 
REMARK  6 active torsions:
REMARK  status: ('A' for Active; 'I' for Inactive)
REMARK    1  A    between atoms: C_2  and  N_3
REMARK    2  A    between atoms: C_2  and  N_17
REMARK    3  A    between atoms: N_3  and  C_4
REMARK    4  A    between atoms: C_7  and  N_8
REMARK    5  A    between atoms: N_8  and  C_9
REMARK    6  A    between atoms: N_17  and  C_18
REMARK                            x       y       z     vdW  Elec       q    Type
REMARK                         _______ _______ _______ _____ _____    ______ ____
ROOT
ATOM      1  C   UNL     1       2.394   7.306  19.552  0.00  0.00    +0.000 A 
ATOM      2  C   UNL     1       1.634   8.037  20.472  0.00  0.00    +0.000 A 
ATOM      3  C   UNL     1       0.897   9.150  20.066  0.00  0.00    +0.000 A 
ATOM      4  C   UNL     1       0.943   9.582  18.741  0.00  0.00    +0.000 A 
ATOM      5  C   UNL     1       1.733   8.864  17.829  0.00  0.00    +0.000 A 
ATOM      6  C   UNL     1       2.475   7.747  18.234  0.00  0.00    +0.000 A 
ENDROOT
BRANCH   1   7
ATOM      7  N   UNL     1       3.087   6.127  19.912  0.00  0.00    +0.000 N 
ATOM      8  H   UNL     1       3.377   6.059  20.882  0.00  0.00    +0.000 HD
BRANCH   7  10
ATOM      9  S   UNL     1       1.824   4.054  18.890  0.00  0.00    +0.000 S 
ATOM     10  C   UNL     1       3.184   4.979  19.176  0.00  0.00    +0.000 C 
BRANCH  10  11
ATOM     11  N   UNL     1       4.392   4.604  18.663  0.00  0.00    +0.000 N 
ATOM     12  H   UNL     1       4.498   3.614  18.461  0.00  0.00    +0.000 HD
BRANCH  11  13
ATOM     13  C   UNL     1       5.533   5.422  18.492  0.00  0.00    +0.000 A 
ATOM     14  C   UNL     1       5.648   6.340  17.447  0.00  0.00    +0.000 A 
ATOM     15  C   UNL     1       6.827   7.066  17.290  0.00  0.00    +0.000 A 
ATOM     16  C   UNL     1       7.853   6.850  18.195  0.00  0.00    +0.000 A 
ATOM     17  N   UNL     1       7.765   6.002  19.244  0.00  0.00    +0.000 NA
ATOM     18  C   UNL     1       6.604   5.318  19.373  0.00  0.00    +0.000 A 
ENDBRANCH  11  13
ENDBRANCH  10  11
ENDBRANCH   7  10
ENDBRANCH   1   7
BRANCH   4  19
ATOM     19  N   UNL     1       0.175  10.694  18.338  0.00  0.00    +0.000 N 
ATOM     20  H   UNL     1       0.659  11.283  17.664  0.00  0.00    +0.000 HD
BRANCH  19  21
ATOM     21  C   UNL     1      -1.216  10.730  18.105  0.00  0.00    +0.000 A 
ATOM     22  C   UNL     1      -1.995  11.650  18.812  0.00  0.00    +0.000 A 
ATOM     23  C   UNL     1      -3.373  11.723  18.603  0.00  0.00    +0.000 A 
ATOM     24  C   UNL     1      -3.983  10.888  17.669  0.00  0.00    +0.000 A 
ATOM     25  C   UNL     1      -3.213   9.986  16.938  0.00  0.00    +0.000 A 
ATOM     26  C   UNL     1      -1.838   9.911  17.153  0.00  0.00    +0.000 A 
ENDBRANCH  19  21
ENDBRANCH   4  19
TORSDOF 6
ENDMDL
MODEL 5
REMARK VINA RESULT:      -7.7      1.168      1.551
REMARK  Name = 
REMARK  6 active torsions:
REMARK  status: ('A' for Active; 'I' for Inactive)
REMARK    1  A    between atoms: C_2  and  N_3
REMARK    2  A    between atoms: C_2  and  N_17
REMARK    3  A    between atoms: N_3  and  C_4
REMARK    4  A    between atoms: C_7  and  N_8
REMARK    5  A    between atoms: N_8  and  C_9
REMARK    6  A    between atoms: N_17  and  C_18
REMARK                            x       y       z     vdW  Elec       q    Type
REMARK                         _______ _______ _______ _____ _____    ______ ____
ROOT
ATOM      1  C   UNL     1       2.304   7.530  19.504  0.00  0.00    +0.000 A 
ATOM      2  C   UNL     1       1.510   8.219  20.430  0.00  0.00    +0.000 A 
ATOM      3  C   UNL     1       0.746   9.318  20.038  0.00  0.00    +0.000 A 
ATOM      4  C   UNL     1       0.796   9.780  18.723  0.00  0.00    +0.000 A 
ATOM      5  C   UNL     1       1.618   9.105  17.807  0.00  0.00    +0.000 A 
ATOM      6  C   UNL     1       2.387   8.003  18.198  0.00  0.00    +0.000 A 
ENDROOT
BRANCH   1   7
ATOM      7  N   UNL     1       3.027   6.365  19.849  0.00  0.00    +0.000 N 
ATOM      8  H   UNL     1       3.418   6.344  20.785  0.00  0.00    +0.000 HD
BRANCH   7  10
ATOM      9  S   UNL     1       1.889   4.016  19.493  0.00  0.00    +0.000 S 
ATOM     10  C   UNL     1       3.040   5.181  19.166  0.00  0.00    +0.000 C 
BRANCH  10  11
ATOM     11  N   UNL     1       3.987   4.963  18.207  0.00  0.00    +0.000 N 
ATOM     12  H   UNL     1       3.774   4.232  17.534  0.00  0.00    +0.000 HD
BRANCH  11  13
ATOM     13  C   UNL     1       5.264   5.564  18.123  0.00  0.00    +0.000 A 
ATOM     14  C   UNL     1       6.295   5.262  19.013  0.00  0.00    +0.000 A 
ATOM     15  C   UNL     1       7.509   5.941  18.923  0.00  0.00    +0.000 A 
ATOM     16  C   UNL     1       7.650   6.901  17.934  0.00  0.00    +0.000 A 
ATOM     17  N   UNL     1       6.690   7.193  17.027  0.00  0.00    +0.000 NA
ATOM     18  C   UNL     1       5.527   6.509  17.137  0.00  0.00    +0.000 A 
ENDBRANCH  11  13
ENDBRANCH  10  11
ENDBRANCH   7  10
ENDBRANCH   1   7
BRANCH   4  19
ATOM     19  N   UNL     1       0.000  10.877  18.334  0.00  0.00    +0.000 N 
ATOM     20  H   UNL     1       0.477  11.499  17.685  0.00  0.00    +0.000 HD
BRANCH  19  21
ATOM     21  C   UNL     1      -1.387  10.875  18.074  0.00  0.00    +0.000 A 
ATOM     22  C   UNL     1      -1.897   9.976  17.133  0.00  0.00    +0.000 A 
ATOM     23  C   UNL     1      -3.264   9.938  16.855  0.00  0.00    +0.000 A 
ATOM     24  C   UNL     1      -4.138  10.785  17.532  0.00  0.00    +0.000 A 
ATOM     25  C   UNL     1      -3.646  11.665  18.493  0.00  0.00    +0.000 A 
ATOM     26  C   UNL     1      -2.280  11.706  18.764  0.00  0.00    +0.000 A 
ENDBRANCH  19  21
ENDBRANCH   4  19
TORSDOF 6
ENDMDL
MODEL 6
REMARK VINA RESULT:      -7.7      1.126      1.798
REMARK  Name = 
REMARK  6 active torsions:
REMARK  status: ('A' for Active; 'I' for Inactive)
REMARK    1  A    between atoms: C_2  and  N_3
REMARK    2  A    between atoms: C_2  and  N_17
REMARK    3  A    between atoms: N_3  and  C_4
REMARK    4  A    between atoms: C_7  and  N_8
REMARK    5  A    between atoms: N_8  and  C_9
REMARK    6  A    between atoms: N_17  and  C_18
REMARK                            x       y       z     vdW  Elec       q    Type
REMARK                         _______ _______ _______ _____ _____    ______ ____
ROOT
ATOM      1  C   UNL     1       2.241   7.388  19.603  0.00  0.00    +0.000 A 
ATOM      2  C   UNL     1       1.461   8.113  20.513  0.00  0.00    +0.000 A 
ATOM      3  C   UNL     1       0.742   9.235  20.102  0.00  0.00    +0.000 A 
ATOM      4  C   UNL     1       0.823   9.682  18.784  0.00  0.00    +0.000 A 
ATOM      5  C   UNL     1       1.631   8.970  17.884  0.00  0.00    +0.000 A 
ATOM      6  C   UNL     1       2.357   7.845  18.294  0.00  0.00    +0.000 A 
ENDROOT
BRANCH   1   7
ATOM      7  N   UNL     1       2.918   6.201  19.967  0.00  0.00    +0.000 N 
ATOM      8  H   UNL     1       3.088   6.071  20.959  0.00  0.00    +0.000 HD
BRANCH   7  10
ATOM      9  S   UNL     1       1.851   4.326  18.457  0.00  0.00    +0.000 S 
ATOM     10  C   UNL     1       3.138   5.111  19.173  0.00  0.00    +0.000 C 
BRANCH  10  11
ATOM     11  N   UNL     1       4.415   4.678  18.955  0.00  0.00    +0.000 N 
ATOM     12  H   UNL     1       4.622   3.735  19.268  0.00  0.00    +0.000 HD
BRANCH  11  13
ATOM     13  C   UNL     1       5.494   5.439  18.447  0.00  0.00    +0.000 A 
ATOM     14  C   UNL     1       6.731   5.509  19.090  0.00  0.00    +0.000 A 
ATOM     15  C   UNL     1       7.731   6.333  18.578  0.00  0.00    +0.000 A 
ATOM     16  C   UNL     1       7.458   7.058  17.430  0.00  0.00    +0.000 A 
ATOM     17  N   UNL     1       6.289   6.986  16.755  0.00  0.00    +0.000 NA
ATOM     18  C   UNL     1       5.341   6.170  17.274  0.00  0.00    +0.000 A 
ENDBRANCH  11  13
ENDBRANCH  10  11
ENDBRANCH   7  10
ENDBRANCH   1   7
BRANCH   4  19
ATOM     19  N   UNL     1       0.071  10.802  18.375  0.00  0.00    +0.000 N 
ATOM     20  H   UNL     1       0.577  11.401  17.726  0.00  0.00    +0.000 HD
BRANCH  19  21
ATOM     21  C   UNL     1      -1.312  10.847  18.101  0.00  0.00    +0.000 A 
ATOM     22  C   UNL     1      -2.100  11.798  18.756  0.00  0.00    +0.000 A 
ATOM     23  C   UNL     1      -3.470  11.880  18.505  0.00  0.00    +0.000 A 
ATOM     24  C   UNL     1      -4.063  11.024  17.579  0.00  0.00    +0.000 A 
ATOM     25  C   UNL     1      -3.283  10.092  16.899  0.00  0.00    +0.000 A 
ATOM     26  C   UNL     1      -1.917  10.007  17.156  0.00  0.00    +0.000 A 
ENDBRANCH  19  21
ENDBRANCH   4  19
TORSDOF 6
ENDMDL
MODEL 7
REMARK VINA RESULT:      -7.7      3.523      8.232
REMARK  Name = 
REMARK  6 active torsions:
REMARK  status: ('A' for Active; 'I' for Inactive)
REMARK    1  A    between atoms: C_2  and  N_3
REMARK    2  A    between atoms: C_2  and  N_17
REMARK    3  A    between atoms: N_3  and  C_4
REMARK    4  A    between atoms: C_7  and  N_8
REMARK    5  A    between atoms: N_8  and  C_9
REMARK    6  A    between atoms: N_17  and  C_18
REMARK                            x       y       z     vdW  Elec       q    Type
REMARK                         _______ _______ _______ _____ _____    ______ ____
ROOT
ATOM      1  C   UNL     1       0.759  10.249  19.443  0.00  0.00    +0.000 A 
ATOM      2  C   UNL     1       1.424   9.651  18.366  0.00  0.00    +0.000 A 
ATOM      3  C   UNL     1       2.054   8.414  18.512  0.00  0.00    +0.000 A 
ATOM      4  C   UNL     1       2.070   7.772  19.750  0.00  0.00    +0.000 A 
ATOM      5  C   UNL     1       1.429   8.392  20.834  0.00  0.00    +0.000 A 
ATOM      6  C   UNL     1       0.798   9.633  20.691  0.00  0.00    +0.000 A 
ENDROOT
BRANCH   1   7
ATOM      7  N   UNL     1       0.043  11.461  19.310  0.00  0.00    +0.000 N 
ATOM      8  H   UNL     1       0.521  12.209  18.820  0.00  0.00    +0.000 HD
BRANCH   7  10
ATOM      9  S   UNL     1      -1.817  13.011  20.348  0.00  0.00    +0.000 S 
ATOM     10  C   UNL     1      -1.292  11.649  19.537  0.00  0.00    +0.000 C 
BRANCH  10  11
ATOM     11  N   UNL     1      -2.192  10.728  19.085  0.00  0.00    +0.000 N 
ATOM     12  H   UNL     1      -2.418   9.976  19.730  0.00  0.00    +0.000 HD
BRANCH  11  13
ATOM     13  C   UNL     1      -2.749  10.651  17.787  0.00  0.00    +0.000 A 
ATOM     14  C   UNL     1      -2.151   9.925  16.756  0.00  0.00    +0.000 A 
ATOM     15  C   UNL     1      -2.709   9.947  15.480  0.00  0.00    +0.000 A 
ATOM     16  C   UNL     1      -3.858  10.695  15.280  0.00  0.00    +0.000 A 
ATOM     17  N   UNL     1      -4.490  11.378  16.261  0.00  0.00    +0.000 NA
ATOM     18  C   UNL     1      -3.927  11.329  17.492  0.00  0.00    +0.000 A 
ENDBRANCH  11  13
ENDBRANCH  10  11
ENDBRANCH   7  10
ENDBRANCH   1   7
BRANCH   4  19
ATOM     19  N   UNL     1       2.689   6.512  19.879  0.00  0.00    +0.000 N 
ATOM     20  H   UNL     1       3.320   6.462  20.675  0.00  0.00    +0.000 HD
BRANCH  19  21
ATOM     21  C   UNL     1       2.108   5.249  19.638  0.00  0.00    +0.000 A 
ATOM     22  C   UNL     1       1.529   4.558  20.706  0.00  0.00    +0.000 A 
ATOM     23  C   UNL     1       0.936   3.310  20.507  0.00  0.00    +0.000 A 
ATOM     24  C   UNL     1       0.901   2.749  19.233  0.00  0.00    +0.000 A 
ATOM     25  C   UNL     1       1.450   3.441  18.155  0.00  0.00    +0.000 A 
ATOM     26  C   UNL     1       2.046   4.683  18.357  0.00  0.00    +0.000 A 
ENDBRANCH  19  21
ENDBRANCH   4  19
TORSDOF 6
ENDMDL
MODEL 8
REMARK VINA RESULT:      -7.7      2.464      3.532
REMARK  Name = 
REMARK  6 active torsions:
REMARK  status: ('A' for Active; 'I' for Inactive)
REMARK    1  A    between atoms: C_2  and  N_3
REMARK    2  A    between atoms: C_2  and  N_17
REMARK    3  A    between atoms: N_3  and  C_4
REMARK    4  A    between atoms: C_7  and  N_8
REMARK    5  A    between atoms: N_8  and  C_9
REMARK    6  A    between atoms: N_17  and  C_18
REMARK                            x       y       z     vdW  Elec       q    Type
REMARK                         _______ _______ _______ _____ _____    ______ ____
ROOT
ATOM      1  C   UNL     1       2.399   5.146  18.426  0.00  0.00    +0.000 A 
ATOM      2  C   UNL     1       2.645   6.506  18.205  0.00  0.00    +0.000 A 
ATOM      3  C   UNL     1       2.447   7.442  19.220  0.00  0.00    +0.000 A 
ATOM      4  C   UNL     1       1.955   7.043  20.463  0.00  0.00    +0.000 A 
ATOM      5  C   UNL     1       1.680   5.682  20.668  0.00  0.00    +0.000 A 
ATOM      6  C   UNL     1       1.876   4.740  19.651  0.00  0.00    +0.000 A 
ENDROOT
BRANCH   1   7
ATOM      7  N   UNL     1       2.666   4.162  17.446  0.00  0.00    +0.000 N 
ATOM      8  H   UNL     1       2.205   4.287  16.551  0.00  0.00    +0.000 HD
BRANCH   7  10
ATOM      9  S   UNL     1       3.393   1.764  18.258  0.00  0.00    +0.000 S 
ATOM     10  C   UNL     1       3.655   3.219  17.484  0.00  0.00    +0.000 C 
BRANCH  10  11
ATOM     11  N   UNL     1       4.851   3.468  16.873  0.00  0.00    +0.000 N 
ATOM     12  H   UNL     1       5.173   2.755  16.225  0.00  0.00    +0.000 HD
BRANCH  11  13
ATOM     13  C   UNL     1       5.727   4.548  17.131  0.00  0.00    +0.000 A 
ATOM     14  C   UNL     1       6.378   4.710  18.355  0.00  0.00    +0.000 A 
ATOM     15  C   UNL     1       7.173   5.833  18.573  0.00  0.00    +0.000 A 
ATOM     16  C   UNL     1       7.295   6.758  17.548  0.00  0.00    +0.000 A 
ATOM     17  N   UNL     1       6.715   6.616  16.335  0.00  0.00    +0.000 NA
ATOM     18  C   UNL     1       5.956   5.510  16.152  0.00  0.00    +0.000 A 
ENDBRANCH  11  13
ENDBRANCH  10  11
ENDBRANCH   7  10
ENDBRANCH   1   7
BRANCH   4  19
ATOM     19  N   UNL     1       1.782   7.995  21.488  0.00  0.00    +0.000 N 
ATOM     20  H   UNL     1       2.665   8.319  21.878  0.00  0.00    +0.000 HD
BRANCH  19  21
ATOM     21  C   UNL     1       0.819   9.025  21.542  0.00  0.00    +0.000 A 
ATOM     22  C   UNL     1       0.275   9.376  22.781  0.00  0.00    +0.000 A 
ATOM     23  C   UNL     1      -0.673  10.396  22.876  0.00  0.00    +0.000 A 
ATOM     24  C   UNL     1      -1.072  11.088  21.735  0.00  0.00    +0.000 A 
ATOM     25  C   UNL     1      -0.516  10.766  20.499  0.00  0.00    +0.000 A 
ATOM     26  C   UNL     1       0.426   9.744  20.405  0.00  0.00    +0.000 A 
ENDBRANCH  19  21
ENDBRANCH   4  19
TORSDOF 6
ENDMDL
MODEL 9
REMARK VINA RESULT:      -7.6      1.005      1.476
REMARK  Name = 
REMARK  6 active torsions:
REMARK  status: ('A' for Active; 'I' for Inactive)
REMARK    1  A    between atoms: C_2  and  N_3
REMARK    2  A    between atoms: C_2  and  N_17
REMARK    3  A    between atoms: N_3  and  C_4
REMARK    4  A    between atoms: C_7  and  N_8
REMARK    5  A    between atoms: N_8  and  C_9
REMARK    6  A    between atoms: N_17  and  C_18
REMARK                            x       y       z     vdW  Elec       q    Type
REMARK                         _______ _______ _______ _____ _____    ______ ____
ROOT
ATOM      1  C   UNL     1       2.247   7.533  19.673  0.00  0.00    +0.000 A 
ATOM      2  C   UNL     1       1.383   8.242  20.516  0.00  0.00    +0.000 A 
ATOM      3  C   UNL     1       0.633   9.315  20.032  0.00  0.00    +0.000 A 
ATOM      4  C   UNL     1       0.765   9.728  18.707  0.00  0.00    +0.000 A 
ATOM      5  C   UNL     1       1.657   9.033  17.874  0.00  0.00    +0.000 A 
ATOM      6  C   UNL     1       2.413   7.958  18.357  0.00  0.00    +0.000 A 
ENDROOT
BRANCH   1   7
ATOM      7  N   UNL     1       2.960   6.393  20.109  0.00  0.00    +0.000 N 
ATOM      8  H   UNL     1       3.596   6.535  20.886  0.00  0.00    +0.000 HD
BRANCH   7  10
ATOM      9  S   UNL     1       1.821   4.122  20.807  0.00  0.00    +0.000 S 
ATOM     10  C   UNL     1       2.704   5.092  19.774  0.00  0.00    +0.000 C 
BRANCH  10  11
ATOM     11  N   UNL     1       3.158   4.597  18.586  0.00  0.00    +0.000 N 
ATOM     12  H   UNL     1       2.513   3.996  18.082  0.00  0.00    +0.000 HD
BRANCH  11  13
ATOM     13  C   UNL     1       4.458   4.742  18.047  0.00  0.00    +0.000 A 
ATOM     14  C   UNL     1       4.683   5.121  16.723  0.00  0.00    +0.000 A 
ATOM     15  C   UNL     1       5.986   5.177  16.231  0.00  0.00    +0.000 A 
ATOM     16  C   UNL     1       7.024   4.856  17.090  0.00  0.00    +0.000 A 
ATOM     17  N   UNL     1       6.850   4.526  18.390  0.00  0.00    +0.000 NA
ATOM     18  C   UNL     1       5.574   4.489  18.838  0.00  0.00    +0.000 A 
ENDBRANCH  11  13
ENDBRANCH  10  11
ENDBRANCH   7  10
ENDBRANCH   1   7
BRANCH   4  19
ATOM     19  N   UNL     1      -0.016  10.797  18.224  0.00  0.00    +0.000 N 
ATOM     20  H   UNL     1       0.458  11.339  17.505  0.00  0.00    +0.000 HD
BRANCH  19  21
ATOM     21  C   UNL     1      -1.408  10.800  17.995  0.00  0.00    +0.000 A 
ATOM     22  C   UNL     1      -2.221  11.622  18.783  0.00  0.00    +0.000 A 
ATOM     23  C   UNL     1      -3.601  11.659  18.581  0.00  0.00    +0.000 A 
ATOM     24  C   UNL     1      -4.181  10.890  17.575  0.00  0.00    +0.000 A 
ATOM     25  C   UNL     1      -3.379  10.089  16.765  0.00  0.00    +0.000 A 
ATOM     26  C   UNL     1      -2.002  10.048  16.972  0.00  0.00    +0.000 A 
ENDBRANCH  19  21
ENDBRANCH   4  19
TORSDOF 6
ENDMDL
