MODEL 1
REMARK VINA RESULT:      -7.8      0.000      0.000
REMARK  Name = 
REMARK  8 active torsions:
REMARK  status: ('A' for Active; 'I' for Inactive)
REMARK    1  A    between atoms: C_1  and  C_2
REMARK    2  A    between atoms: C_2  and  N_3
REMARK    3  A    between atoms: N_3  and  C_4
REMARK    4  A    between atoms: C_4  and  C_5
REMARK    5  A    between atoms: N_7  and  C_8
REMARK    6  A    between atoms: C_11  and  N_12
REMARK    7  A    between atoms: C_20  and  C_22
REMARK    8  A    between atoms: C_22  and  C_23
REMARK                            x       y       z     vdW  Elec       q    Type
REMARK                         _______ _______ _______ _____ _____    ______ ____
ROOT
ATOM      1  C   UNL     1       2.004   5.287  20.470  0.00  0.00    +0.000 C 
ATOM      2  O   UNL     1       0.791   5.286  20.614  0.00  0.00    +0.000 OA
ATOM      3  N   UNL     1       2.741   6.385  20.035  0.00  0.00    +0.000 N 
ATOM      4  H   UNL     1       3.585   6.165  19.519  0.00  0.00    +0.000 HD
ENDROOT
BRANCH   3   5
ATOM      5  C   UNL     1       2.112   7.608  19.700  0.00  0.00    +0.000 A 
ATOM      6  C   UNL     1       2.144   8.148  18.418  0.00  0.00    +0.000 A 
ATOM      7  C   UNL     1       1.525   9.382  18.150  0.00  0.00    +0.000 A 
ATOM      8  C   UNL     1       0.900  10.135  19.156  0.00  0.00    +0.000 A 
ATOM      9  C   UNL     1       0.876   9.562  20.434  0.00  0.00    +0.000 A 
ATOM     10  C   UNL     1       1.441   8.303  20.703  0.00  0.00    +0.000 A 
BRANCH   8  11
ATOM     11  N   UNL     1       0.348  11.372  18.904  0.00  0.00    +0.000 N 
ATOM     12  C   UNL     1       1.096  12.632  19.044  0.00  0.00    +0.000 C 
ATOM     13  C   UNL     1       0.311  13.614  19.926  0.00  0.00    +0.000 C 
ATOM     14  O   UNL     1      -1.023  13.822  19.429  0.00  0.00    +0.000 OA
ATOM     15  C   UNL     1      -1.738  12.576  19.394  0.00  0.00    +0.000 C 
ATOM     16  C   UNL     1      -1.048  11.550  18.474  0.00  0.00    +0.000 C 
ENDBRANCH   8  11
ENDBRANCH   3   5
BRANCH   1  17
ATOM     17  C   UNL     1       2.830   4.001  20.716  0.00  0.00    +0.000 C 
BRANCH  17  18
ATOM     18  N   UNL     1       2.847   2.874  19.759  0.00  0.00    +0.000 N 
ATOM     19  C   UNL     1       3.909   2.644  18.873  0.00  0.00    +0.000 C 
ATOM     20  O   UNL     1       3.898   1.685  18.095  0.00  0.00    +0.000 OA
BRANCH  18  22
ATOM     21  C   UNL     1       0.604   2.480  18.670  0.00  0.00    +0.000 C 
ATOM     22  C   UNL     1       1.687   1.987  19.621  0.00  0.00    +0.000 C 
ENDBRANCH  18  22
BRANCH  19  23
ATOM     23  C   UNL     1       5.083   3.622  18.822  0.00  0.00    +0.000 C 
BRANCH  23  24
ATOM     24  C   UNL     1       5.180   4.426  17.548  0.00  0.00    +0.000 A 
ATOM     25  C   UNL     1       5.522   3.809  16.336  0.00  0.00    +0.000 A 
ATOM     26  C   UNL     1       5.591   4.548  15.152  0.00  0.00    +0.000 A 
ATOM     27  C   UNL     1       5.300   5.911  15.161  0.00  0.00    +0.000 A 
ATOM     28  C   UNL     1       4.940   6.533  16.354  0.00  0.00    +0.000 A 
ATOM     29  C   UNL     1       4.878   5.796  17.540  0.00  0.00    +0.000 A 
ENDBRANCH  23  24
ENDBRANCH  19  23
ENDBRANCH  17  18
ENDBRANCH   1  17
TORSDOF 7
ENDMDL
MODEL 2
REMARK VINA RESULT:      -7.7      0.591      1.104
REMARK  Name = 
REMARK  8 active torsions:
REMARK  status: ('A' for Active; 'I' for Inactive)
REMARK    1  A    between atoms: C_1  and  C_2
REMARK    2  A    between atoms: C_2  and  N_3
REMARK    3  A    between atoms: N_3  and  C_4
REMARK    4  A    between atoms: C_4  and  C_5
REMARK    5  A    between atoms: N_7  and  C_8
REMARK    6  A    between atoms: C_11  and  N_12
REMARK    7  A    between atoms: C_20  and  C_22
REMARK    8  A    between atoms: C_22  and  C_23
REMARK                            x       y       z     vdW  Elec       q    Type
REMARK                         _______ _______ _______ _____ _____    ______ ____
ROOT
ATOM      1  C   UNL     1       1.940   5.094  20.603  0.00  0.00    +0.000 C 
ATOM      2  O   UNL     1       0.720   5.056  20.649  0.00  0.00    +0.000 OA
ATOM      3  N   UNL     1       2.680   6.248  20.358  0.00  0.00    +0.000 N 
ATOM      4  H   UNL     1       3.566   6.105  19.887  0.00  0.00    +0.000 HD
ENDROOT
BRANCH   3   5
ATOM      5  C   UNL     1       2.047   7.491  20.119  0.00  0.00    +0.000 A 
ATOM      6  C   UNL     1       2.033   8.105  18.871  0.00  0.00    +0.000 A 
ATOM      7  C   UNL     1       1.413   9.356  18.700  0.00  0.00    +0.000 A 
ATOM      8  C   UNL     1       0.832  10.052  19.771  0.00  0.00    +0.000 A 
ATOM      9  C   UNL     1       0.853   9.405  21.014  0.00  0.00    +0.000 A 
ATOM     10  C   UNL     1       1.419   8.129  21.186  0.00  0.00    +0.000 A 
BRANCH   8  11
ATOM     11  N   UNL     1       0.279  11.304  19.614  0.00  0.00    +0.000 N 
ATOM     12  C   UNL     1      -1.138  11.523  19.281  0.00  0.00    +0.000 C 
ATOM     13  C   UNL     1      -1.254  12.458  18.068  0.00  0.00    +0.000 C 
ATOM     14  O   UNL     1      -0.545  13.692  18.282  0.00  0.00    +0.000 OA
ATOM     15  C   UNL     1       0.848  13.428  18.517  0.00  0.00    +0.000 C 
ATOM     16  C   UNL     1       1.057  12.543  19.761  0.00  0.00    +0.000 C 
ENDBRANCH   8  11
ENDBRANCH   3   5
BRANCH   1  17
ATOM     17  C   UNL     1       2.777   3.802  20.761  0.00  0.00    +0.000 C 
BRANCH  17  18
ATOM     18  N   UNL     1       2.816   2.750  19.722  0.00  0.00    +0.000 N 
ATOM     19  C   UNL     1       3.899   2.582  18.848  0.00  0.00    +0.000 C 
ATOM     20  O   UNL     1       3.906   1.683  18.000  0.00  0.00    +0.000 OA
BRANCH  18  22
ATOM     21  C   UNL     1       0.579   2.464  18.588  0.00  0.00    +0.000 C 
ATOM     22  C   UNL     1       1.658   1.879  19.491  0.00  0.00    +0.000 C 
ENDBRANCH  18  22
BRANCH  19  23
ATOM     23  C   UNL     1       5.075   3.557  18.899  0.00  0.00    +0.000 C 
BRANCH  23  24
ATOM     24  C   UNL     1       5.188   4.475  17.705  0.00  0.00    +0.000 A 
ATOM     25  C   UNL     1       5.921   4.090  16.573  0.00  0.00    +0.000 A 
ATOM     26  C   UNL     1       6.007   4.929  15.459  0.00  0.00    +0.000 A 
ATOM     27  C   UNL     1       5.345   6.155  15.454  0.00  0.00    +0.000 A 
ATOM     28  C   UNL     1       4.597   6.541  16.564  0.00  0.00    +0.000 A 
ATOM     29  C   UNL     1       4.516   5.706  17.682  0.00  0.00    +0.000 A 
ENDBRANCH  23  24
ENDBRANCH  19  23
ENDBRANCH  17  18
ENDBRANCH   1  17
TORSDOF 7
ENDMDL
MODEL 3
REMARK VINA RESULT:      -7.6      0.477      1.020
REMARK  Name = 
REMARK  8 active torsions:
REMARK  status: ('A' for Active; 'I' for Inactive)
REMARK    1  A    between atoms: C_1  and  C_2
REMARK    2  A    between atoms: C_2  and  N_3
REMARK    3  A    between atoms: N_3  and  C_4
REMARK    4  A    between atoms: C_4  and  C_5
REMARK    5  A    between atoms: N_7  and  C_8
REMARK    6  A    between atoms: C_11  and  N_12
REMARK    7  A    between atoms: C_20  and  C_22
REMARK    8  A    between atoms: C_22  and  C_23
REMARK                            x       y       z     vdW  Elec       q    Type
REMARK                         _______ _______ _______ _____ _____    ______ ____
ROOT
ATOM      1  C   UNL     1       1.972   5.166  20.525  0.00  0.00    +0.000 C 
ATOM      2  O   UNL     1       0.760   5.202  20.673  0.00  0.00    +0.000 OA
ATOM      3  N   UNL     1       2.746   6.254  20.130  0.00  0.00    +0.000 N 
ATOM      4  H   UNL     1       3.580   6.025  19.602  0.00  0.00    +0.000 HD
ENDROOT
BRANCH   3   5
ATOM      5  C   UNL     1       2.160   7.510  19.846  0.00  0.00    +0.000 A 
ATOM      6  C   UNL     1       1.488   8.265  20.803  0.00  0.00    +0.000 A 
ATOM      7  C   UNL     1       0.899   9.494  20.455  0.00  0.00    +0.000 A 
ATOM      8  C   UNL     1       0.920   9.984  19.140  0.00  0.00    +0.000 A 
ATOM      9  C   UNL     1       1.611   9.207  18.201  0.00  0.00    +0.000 A 
ATOM     10  C   UNL     1       2.253   8.005  18.548  0.00  0.00    +0.000 A 
BRANCH   8  11
ATOM     11  N   UNL     1       0.291  11.158  18.789  0.00  0.00    +0.000 N 
ATOM     12  C   UNL     1       0.981  12.457  18.734  0.00  0.00    +0.000 C 
ATOM     13  C   UNL     1       0.204  13.500  19.552  0.00  0.00    +0.000 C 
ATOM     14  O   UNL     1      -1.167  13.591  19.127  0.00  0.00    +0.000 OA
ATOM     15  C   UNL     1      -1.819  12.319  19.282  0.00  0.00    +0.000 C 
ATOM     16  C   UNL     1      -1.136  11.224  18.439  0.00  0.00    +0.000 C 
ENDBRANCH   8  11
ENDBRANCH   3   5
BRANCH   1  17
ATOM     17  C   UNL     1       2.752   3.843  20.716  0.00  0.00    +0.000 C 
BRANCH  17  18
ATOM     18  N   UNL     1       2.903   2.848  19.633  0.00  0.00    +0.000 N 
ATOM     19  C   UNL     1       4.002   2.831  18.763  0.00  0.00    +0.000 C 
ATOM     20  O   UNL     1       4.105   1.976  17.876  0.00  0.00    +0.000 OA
BRANCH  18  22
ATOM     21  C   UNL     1       0.618   2.439  18.643  0.00  0.00    +0.000 C 
ATOM     22  C   UNL     1       1.842   1.875  19.353  0.00  0.00    +0.000 C 
ENDBRANCH  18  22
BRANCH  19  23
ATOM     23  C   UNL     1       5.072   3.918  18.867  0.00  0.00    +0.000 C 
BRANCH  23  24
ATOM     24  C   UNL     1       5.445   4.566  17.555  0.00  0.00    +0.000 A 
ATOM     25  C   UNL     1       6.557   4.119  16.826  0.00  0.00    +0.000 A 
ATOM     26  C   UNL     1       6.889   4.704  15.602  0.00  0.00    +0.000 A 
ATOM     27  C   UNL     1       6.103   5.729  15.080  0.00  0.00    +0.000 A 
ATOM     28  C   UNL     1       4.984   6.169  15.784  0.00  0.00    +0.000 A 
ATOM     29  C   UNL     1       4.656   5.590  17.012  0.00  0.00    +0.000 A 
ENDBRANCH  23  24
ENDBRANCH  19  23
ENDBRANCH  17  18
ENDBRANCH   1  17
TORSDOF 7
ENDMDL
MODEL 4
REMARK VINA RESULT:      -7.4      1.227      1.759
REMARK  Name = 
REMARK  8 active torsions:
REMARK  status: ('A' for Active; 'I' for Inactive)
REMARK    1  A    between atoms: C_1  and  C_2
REMARK    2  A    between atoms: C_2  and  N_3
REMARK    3  A    between atoms: N_3  and  C_4
REMARK    4  A    between atoms: C_4  and  C_5
REMARK    5  A    between atoms: N_7  and  C_8
REMARK    6  A    between atoms: C_11  and  N_12
REMARK    7  A    between atoms: C_20  and  C_22
REMARK    8  A    between atoms: C_22  and  C_23
REMARK                            x       y       z     vdW  Elec       q    Type
REMARK                         _______ _______ _______ _____ _____    ______ ____
ROOT
ATOM      1  C   UNL     1       1.762   5.220  20.326  0.00  0.00    +0.000 C 
ATOM      2  O   UNL     1       0.549   5.228  20.477  0.00  0.00    +0.000 OA
ATOM      3  N   UNL     1       2.534   6.361  20.128  0.00  0.00    +0.000 N 
ATOM      4  H   UNL     1       3.369   6.229  19.568  0.00  0.00    +0.000 HD
ENDROOT
BRANCH   3   5
ATOM      5  C   UNL     1       1.946   7.647  20.067  0.00  0.00    +0.000 A 
ATOM      6  C   UNL     1       1.363   8.265  21.170  0.00  0.00    +0.000 A 
ATOM      7  C   UNL     1       0.767   9.532  21.043  0.00  0.00    +0.000 A 
ATOM      8  C   UNL     1       0.691  10.199  19.810  0.00  0.00    +0.000 A 
ATOM      9  C   UNL     1       1.294   9.557  18.721  0.00  0.00    +0.000 A 
ATOM     10  C   UNL     1       1.943   8.316  18.846  0.00  0.00    +0.000 A 
BRANCH   8  11
ATOM     11  N   UNL     1       0.053  11.413  19.676  0.00  0.00    +0.000 N 
ATOM     12  C   UNL     1       0.703  12.701  19.968  0.00  0.00    +0.000 C 
ATOM     13  C   UNL     1      -0.170  13.524  20.928  0.00  0.00    +0.000 C 
ATOM     14  O   UNL     1      -1.506  13.688  20.419  0.00  0.00    +0.000 OA
ATOM     15  C   UNL     1      -2.125  12.404  20.233  0.00  0.00    +0.000 C 
ATOM     16  C   UNL     1      -1.343  11.535  19.230  0.00  0.00    +0.000 C 
ENDBRANCH   8  11
ENDBRANCH   3   5
BRANCH   1  17
ATOM     17  C   UNL     1       2.544   3.885  20.284  0.00  0.00    +0.000 C 
BRANCH  17  18
ATOM     18  N   UNL     1       2.973   3.257  19.015  0.00  0.00    +0.000 N 
ATOM     19  C   UNL     1       4.298   3.292  18.559  0.00  0.00    +0.000 C 
ATOM     20  O   UNL     1       4.627   2.745  17.500  0.00  0.00    +0.000 OA
BRANCH  18  22
ATOM     21  C   UNL     1       0.697   2.194  18.771  0.00  0.00    +0.000 C 
ATOM     22  C   UNL     1       1.994   2.643  18.112  0.00  0.00    +0.000 C 
ENDBRANCH  18  22
BRANCH  19  23
ATOM     23  C   UNL     1       5.355   4.065  19.348  0.00  0.00    +0.000 C 
BRANCH  23  24
ATOM     24  C   UNL     1       5.950   5.246  18.620  0.00  0.00    +0.000 A 
ATOM     25  C   UNL     1       5.176   6.002  17.728  0.00  0.00    +0.000 A 
ATOM     26  C   UNL     1       5.720   7.108  17.071  0.00  0.00    +0.000 A 
ATOM     27  C   UNL     1       7.039   7.485  17.312  0.00  0.00    +0.000 A 
ATOM     28  C   UNL     1       7.814   6.755  18.210  0.00  0.00    +0.000 A 
ATOM     29  C   UNL     1       7.273   5.643  18.862  0.00  0.00    +0.000 A 
ENDBRANCH  23  24
ENDBRANCH  19  23
ENDBRANCH  17  18
ENDBRANCH   1  17
TORSDOF 7
ENDMDL
MODEL 5
REMARK VINA RESULT:      -7.4      2.310      8.899
REMARK  Name = 
REMARK  8 active torsions:
REMARK  status: ('A' for Active; 'I' for Inactive)
REMARK    1  A    between atoms: C_1  and  C_2
REMARK    2  A    between atoms: C_2  and  N_3
REMARK    3  A    between atoms: N_3  and  C_4
REMARK    4  A    between atoms: C_4  and  C_5
REMARK    5  A    between atoms: N_7  and  C_8
REMARK    6  A    between atoms: C_11  and  N_12
REMARK    7  A    between atoms: C_20  and  C_22
REMARK    8  A    between atoms: C_22  and  C_23
REMARK                            x       y       z     vdW  Elec       q    Type
REMARK                         _______ _______ _______ _____ _____    ______ ____
ROOT
ATOM      1  C   UNL     1       1.024   9.351  20.557  0.00  0.00    +0.000 C 
ATOM      2  O   UNL     1       1.685   8.937  21.497  0.00  0.00    +0.000 OA
ATOM      3  N   UNL     1       1.170   8.914  19.243  0.00  0.00    +0.000 N 
ATOM      4  H   UNL     1       0.953   9.601  18.530  0.00  0.00    +0.000 HD
ENDROOT
BRANCH   3   5
ATOM      5  C   UNL     1       2.139   7.944  18.893  0.00  0.00    +0.000 A 
ATOM      6  C   UNL     1       2.348   6.784  19.632  0.00  0.00    +0.000 A 
ATOM      7  C   UNL     1       3.347   5.869  19.252  0.00  0.00    +0.000 A 
ATOM      8  C   UNL     1       4.195   6.104  18.159  0.00  0.00    +0.000 A 
ATOM      9  C   UNL     1       3.955   7.275  17.430  0.00  0.00    +0.000 A 
ATOM     10  C   UNL     1       2.922   8.169  17.764  0.00  0.00    +0.000 A 
BRANCH   8  11
ATOM     11  N   UNL     1       5.212   5.237  17.825  0.00  0.00    +0.000 N 
ATOM     12  C   UNL     1       6.251   4.809  18.776  0.00  0.00    +0.000 C 
ATOM     13  C   UNL     1       7.644   5.032  18.169  0.00  0.00    +0.000 C 
ATOM     14  O   UNL     1       7.774   4.386  16.891  0.00  0.00    +0.000 OA
ATOM     15  C   UNL     1       6.793   4.901  15.974  0.00  0.00    +0.000 C 
ATOM     16  C   UNL     1       5.358   4.659  16.481  0.00  0.00    +0.000 C 
ENDBRANCH   8  11
ENDBRANCH   3   5
BRANCH   1  17
ATOM     17  C   UNL     1      -0.022  10.473  20.761  0.00  0.00    +0.000 C 
BRANCH  17  18
ATOM     18  N   UNL     1       0.113  11.806  20.133  0.00  0.00    +0.000 N 
ATOM     19  C   UNL     1      -0.976  12.508  19.597  0.00  0.00    +0.000 C 
ATOM     20  O   UNL     1      -0.832  13.626  19.092  0.00  0.00    +0.000 OA
BRANCH  18  22
ATOM     21  C   UNL     1       2.043  12.243  18.567  0.00  0.00    +0.000 C 
ATOM     22  C   UNL     1       1.432  12.422  19.951  0.00  0.00    +0.000 C 
ENDBRANCH  18  22
BRANCH  19  23
ATOM     23  C   UNL     1      -2.363  11.866  19.583  0.00  0.00    +0.000 C 
BRANCH  23  24
ATOM     24  C   UNL     1      -2.798  11.330  18.240  0.00  0.00    +0.000 A 
ATOM     25  C   UNL     1      -4.042  11.683  17.697  0.00  0.00    +0.000 A 
ATOM     26  C   UNL     1      -4.435  11.205  16.445  0.00  0.00    +0.000 A 
ATOM     27  C   UNL     1      -3.582  10.384  15.710  0.00  0.00    +0.000 A 
ATOM     28  C   UNL     1      -2.336  10.042  16.228  0.00  0.00    +0.000 A 
ATOM     29  C   UNL     1      -1.944  10.513  17.484  0.00  0.00    +0.000 A 
ENDBRANCH  23  24
ENDBRANCH  19  23
ENDBRANCH  17  18
ENDBRANCH   1  17
TORSDOF 7
ENDMDL
MODEL 6
REMARK VINA RESULT:      -7.4      1.701      2.293
REMARK  Name = 
REMARK  8 active torsions:
REMARK  status: ('A' for Active; 'I' for Inactive)
REMARK    1  A    between atoms: C_1  and  C_2
REMARK    2  A    between atoms: C_2  and  N_3
REMARK    3  A    between atoms: N_3  and  C_4
REMARK    4  A    between atoms: C_4  and  C_5
REMARK    5  A    between atoms: N_7  and  C_8
REMARK    6  A    between atoms: C_11  and  N_12
REMARK    7  A    between atoms: C_20  and  C_22
REMARK    8  A    between atoms: C_22  and  C_23
REMARK                            x       y       z     vdW  Elec       q    Type
REMARK                         _______ _______ _______ _____ _____    ______ ____
ROOT
ATOM      1  C   UNL     1       1.790   5.916  20.537  0.00  0.00    +0.000 C 
ATOM      2  O   UNL     1       0.608   5.618  20.616  0.00  0.00    +0.000 OA
ATOM      3  N   UNL     1       2.277   7.218  20.619  0.00  0.00    +0.000 N 
ATOM      4  H   UNL     1       3.125   7.398  20.094  0.00  0.00    +0.000 HD
ENDROOT
BRANCH   3   5
ATOM      5  C   UNL     1       1.406   8.320  20.785  0.00  0.00    +0.000 A 
ATOM      6  C   UNL     1       0.946   9.088  19.720  0.00  0.00    +0.000 A 
ATOM      7  C   UNL     1       0.104  10.191  19.948  0.00  0.00    +0.000 A 
ATOM      8  C   UNL     1      -0.264  10.591  21.242  0.00  0.00    +0.000 A 
ATOM      9  C   UNL     1       0.207   9.795  22.294  0.00  0.00    +0.000 A 
ATOM     10  C   UNL     1       1.002   8.655  22.075  0.00  0.00    +0.000 A 
BRANCH   8  11
ATOM     11  N   UNL     1      -1.038  11.708  21.468  0.00  0.00    +0.000 N 
ATOM     12  C   UNL     1      -1.602  12.530  20.385  0.00  0.00    +0.000 C 
ATOM     13  C   UNL     1      -1.247  14.008  20.608  0.00  0.00    +0.000 C 
ATOM     14  O   UNL     1      -1.660  14.460  21.909  0.00  0.00    +0.000 OA
ATOM     15  C   UNL     1      -1.016  13.682  22.932  0.00  0.00    +0.000 C 
ATOM     16  C   UNL     1      -1.373  12.187  22.818  0.00  0.00    +0.000 C 
ENDBRANCH   8  11
ENDBRANCH   3   5
BRANCH   1  17
ATOM     17  C   UNL     1       2.862   4.832  20.272  0.00  0.00    +0.000 C 
BRANCH  17  18
ATOM     18  N   UNL     1       2.565   3.587  19.530  0.00  0.00    +0.000 N 
ATOM     19  C   UNL     1       2.775   3.455  18.150  0.00  0.00    +0.000 C 
ATOM     20  O   UNL     1       2.529   2.396  17.563  0.00  0.00    +0.000 OA
BRANCH  18  22
ATOM     21  C   UNL     1       1.882   2.534  21.720  0.00  0.00    +0.000 C 
ATOM     22  C   UNL     1       1.933   2.446  20.200  0.00  0.00    +0.000 C 
ENDBRANCH  18  22
BRANCH  19  23
ATOM     23  C   UNL     1       3.265   4.652  17.337  0.00  0.00    +0.000 C 
BRANCH  23  24
ATOM     24  C   UNL     1       4.731   4.615  16.977  0.00  0.00    +0.000 A 
ATOM     25  C   UNL     1       5.714   4.817  17.958  0.00  0.00    +0.000 A 
ATOM     26  C   UNL     1       7.071   4.761  17.630  0.00  0.00    +0.000 A 
ATOM     27  C   UNL     1       7.464   4.482  16.322  0.00  0.00    +0.000 A 
ATOM     28  C   UNL     1       6.498   4.260  15.343  0.00  0.00    +0.000 A 
ATOM     29  C   UNL     1       5.141   4.324  15.668  0.00  0.00    +0.000 A 
ENDBRANCH  23  24
ENDBRANCH  19  23
ENDBRANCH  17  18
ENDBRANCH   1  17
TORSDOF 7
ENDMDL
MODEL 7
REMARK VINA RESULT:      -7.4      1.538      2.150
REMARK  Name = 
REMARK  8 active torsions:
REMARK  status: ('A' for Active; 'I' for Inactive)
REMARK    1  A    between atoms: C_1  and  C_2
REMARK    2  A    between atoms: C_2  and  N_3
REMARK    3  A    between atoms: N_3  and  C_4
REMARK    4  A    between atoms: C_4  and  C_5
REMARK    5  A    between atoms: N_7  and  C_8
REMARK    6  A    between atoms: C_11  and  N_12
REMARK    7  A    between atoms: C_20  and  C_22
REMARK    8  A    between atoms: C_22  and  C_23
REMARK                            x       y       z     vdW  Elec       q    Type
REMARK                         _______ _______ _______ _____ _____    ______ ____
ROOT
ATOM      1  C   UNL     1       2.326   6.156  20.039  0.00  0.00    +0.000 C 
ATOM      2  O   UNL     1       1.225   5.837  20.462  0.00  0.00    +0.000 OA
ATOM      3  N   UNL     1       2.628   7.406  19.505  0.00  0.00    +0.000 N 
ATOM      4  H   UNL     1       3.351   7.411  18.793  0.00  0.00    +0.000 HD
ENDROOT
BRANCH   3   5
ATOM      5  C   UNL     1       1.644   8.417  19.394  0.00  0.00    +0.000 A 
ATOM      6  C   UNL     1       0.983   8.952  20.495  0.00  0.00    +0.000 A 
ATOM      7  C   UNL     1      -0.008   9.935  20.321  0.00  0.00    +0.000 A 
ATOM      8  C   UNL     1      -0.402  10.379  19.050  0.00  0.00    +0.000 A 
ATOM      9  C   UNL     1       0.288   9.829  17.961  0.00  0.00    +0.000 A 
ATOM     10  C   UNL     1       1.320   8.888  18.124  0.00  0.00    +0.000 A 
BRANCH   8  11
ATOM     11  N   UNL     1      -1.415  11.297  18.879  0.00  0.00    +0.000 N 
ATOM     12  C   UNL     1      -1.658  12.411  19.810  0.00  0.00    +0.000 C 
ATOM     13  C   UNL     1      -3.131  12.420  20.244  0.00  0.00    +0.000 C 
ATOM     14  O   UNL     1      -4.017  12.451  19.111  0.00  0.00    +0.000 OA
ATOM     15  C   UNL     1      -3.798  11.298  18.280  0.00  0.00    +0.000 C 
ATOM     16  C   UNL     1      -2.353  11.247  17.747  0.00  0.00    +0.000 C 
ENDBRANCH   8  11
ENDBRANCH   3   5
BRANCH   1  17
ATOM     17  C   UNL     1       3.488   5.135  20.013  0.00  0.00    +0.000 C 
BRANCH  17  18
ATOM     18  N   UNL     1       3.286   3.711  19.668  0.00  0.00    +0.000 N 
ATOM     19  C   UNL     1       3.253   3.246  18.346  0.00  0.00    +0.000 C 
ATOM     20  O   UNL     1       3.096   2.047  18.092  0.00  0.00    +0.000 OA
BRANCH  18  22
ATOM     21  C   UNL     1       1.545   2.615  21.130  0.00  0.00    +0.000 C 
ATOM     22  C   UNL     1       3.006   2.717  20.710  0.00  0.00    +0.000 C 
ENDBRANCH  18  22
BRANCH  19  23
ATOM     23  C   UNL     1       3.359   4.237  17.187  0.00  0.00    +0.000 C 
BRANCH  23  24
ATOM     24  C   UNL     1       4.748   4.398  16.618  0.00  0.00    +0.000 A 
ATOM     25  C   UNL     1       5.865   4.474  17.463  0.00  0.00    +0.000 A 
ATOM     26  C   UNL     1       7.152   4.601  16.936  0.00  0.00    +0.000 A 
ATOM     27  C   UNL     1       7.343   4.632  15.556  0.00  0.00    +0.000 A 
ATOM     28  C   UNL     1       6.245   4.538  14.704  0.00  0.00    +0.000 A 
ATOM     29  C   UNL     1       4.956   4.419  15.231  0.00  0.00    +0.000 A 
ENDBRANCH  23  24
ENDBRANCH  19  23
ENDBRANCH  17  18
ENDBRANCH   1  17
TORSDOF 7
ENDMDL
MODEL 8
REMARK VINA RESULT:      -7.4      1.234      1.843
REMARK  Name = 
REMARK  8 active torsions:
REMARK  status: ('A' for Active; 'I' for Inactive)
REMARK    1  A    between atoms: C_1  and  C_2
REMARK    2  A    between atoms: C_2  and  N_3
REMARK    3  A    between atoms: N_3  and  C_4
REMARK    4  A    between atoms: C_4  and  C_5
REMARK    5  A    between atoms: N_7  and  C_8
REMARK    6  A    between atoms: C_11  and  N_12
REMARK    7  A    between atoms: C_20  and  C_22
REMARK    8  A    between atoms: C_22  and  C_23
REMARK                            x       y       z     vdW  Elec       q    Type
REMARK                         _______ _______ _______ _____ _____    ______ ____
ROOT
ATOM      1  C   UNL     1       1.915   5.814  20.398  0.00  0.00    +0.000 C 
ATOM      2  O   UNL     1       0.726   5.662  20.631  0.00  0.00    +0.000 OA
ATOM      3  N   UNL     1       2.514   7.047  20.150  0.00  0.00    +0.000 N 
ATOM      4  H   UNL     1       3.319   7.022  19.535  0.00  0.00    +0.000 HD
ENDROOT
BRANCH   3   5
ATOM      5  C   UNL     1       1.757   8.242  20.130  0.00  0.00    +0.000 A 
ATOM      6  C   UNL     1       1.168   8.783  21.269  0.00  0.00    +0.000 A 
ATOM      7  C   UNL     1       0.401   9.959  21.183  0.00  0.00    +0.000 A 
ATOM      8  C   UNL     1       0.159  10.603  19.960  0.00  0.00    +0.000 A 
ATOM      9  C   UNL     1       0.772  10.040  18.833  0.00  0.00    +0.000 A 
ATOM     10  C   UNL     1       1.588   8.898  18.913  0.00  0.00    +0.000 A 
BRANCH   8  11
ATOM     11  N   UNL     1      -0.642  11.720  19.869  0.00  0.00    +0.000 N 
ATOM     12  C   UNL     1      -0.779  12.515  18.639  0.00  0.00    +0.000 C 
ATOM     13  C   UNL     1      -0.524  13.999  18.940  0.00  0.00    +0.000 C 
ATOM     14  O   UNL     1      -1.374  14.477  19.998  0.00  0.00    +0.000 OA
ATOM     15  C   UNL     1      -1.139  13.725  21.200  0.00  0.00    +0.000 C 
ATOM     16  C   UNL     1      -1.435  12.226  21.000  0.00  0.00    +0.000 C 
ENDBRANCH   8  11
ENDBRANCH   3   5
BRANCH   1  17
ATOM     17  C   UNL     1       2.864   4.595  20.303  0.00  0.00    +0.000 C 
BRANCH  17  18
ATOM     18  N   UNL     1       2.517   3.378  19.538  0.00  0.00    +0.000 N 
ATOM     19  C   UNL     1       2.693   3.275  18.151  0.00  0.00    +0.000 C 
ATOM     20  O   UNL     1       2.405   2.237  17.543  0.00  0.00    +0.000 OA
BRANCH  18  22
ATOM     21  C   UNL     1       1.526   2.445  21.663  0.00  0.00    +0.000 C 
ATOM     22  C   UNL     1       1.867   2.238  20.193  0.00  0.00    +0.000 C 
ENDBRANCH  18  22
BRANCH  19  23
ATOM     23  C   UNL     1       3.199   4.478  17.356  0.00  0.00    +0.000 C 
BRANCH  23  24
ATOM     24  C   UNL     1       4.675   4.453  17.042  0.00  0.00    +0.000 A 
ATOM     25  C   UNL     1       5.124   4.271  15.725  0.00  0.00    +0.000 A 
ATOM     26  C   UNL     1       6.490   4.270  15.431  0.00  0.00    +0.000 A 
ATOM     27  C   UNL     1       7.424   4.471  16.444  0.00  0.00    +0.000 A 
ATOM     28  C   UNL     1       6.992   4.673  17.753  0.00  0.00    +0.000 A 
ATOM     29  C   UNL     1       5.627   4.666  18.050  0.00  0.00    +0.000 A 
ENDBRANCH  23  24
ENDBRANCH  19  23
ENDBRANCH  17  18
ENDBRANCH   1  17
TORSDOF 7
ENDMDL
MODEL 9
REMARK VINA RESULT:      -7.3      2.895      9.754
REMARK  Name = 
REMARK  8 active torsions:
REMARK  status: ('A' for Active; 'I' for Inactive)
REMARK    1  A    between atoms: C_1  and  C_2
REMARK    2  A    between atoms: C_2  and  N_3
REMARK    3  A    between atoms: N_3  and  C_4
REMARK    4  A    between atoms: C_4  and  C_5
REMARK    5  A    between atoms: N_7  and  C_8
REMARK    6  A    between atoms: C_11  and  N_12
REMARK    7  A    between atoms: C_20  and  C_22
REMARK    8  A    between atoms: C_22  and  C_23
REMARK                            x       y       z     vdW  Elec       q    Type
REMARK                         _______ _______ _______ _____ _____    ______ ____
ROOT
ATOM      1  C   UNL     1      -0.802  11.149  19.609  0.00  0.00    +0.000 C 
ATOM      2  O   UNL     1      -1.508  10.354  19.006  0.00  0.00    +0.000 OA
ATOM      3  N   UNL     1       0.558  10.968  19.844  0.00  0.00    +0.000 N 
ATOM      4  H   UNL     1       0.912  11.390  20.695  0.00  0.00    +0.000 HD
ENDROOT
BRANCH   3   5
ATOM      5  C   UNL     1       1.233   9.806  19.403  0.00  0.00    +0.000 A 
ATOM      6  C   UNL     1       1.772   9.682  18.126  0.00  0.00    +0.000 A 
ATOM      7  C   UNL     1       2.407   8.491  17.733  0.00  0.00    +0.000 A 
ATOM      8  C   UNL     1       2.483   7.374  18.580  0.00  0.00    +0.000 A 
ATOM      9  C   UNL     1       1.940   7.530  19.862  0.00  0.00    +0.000 A 
ATOM     10  C   UNL     1       1.354   8.736  20.286  0.00  0.00    +0.000 A 
BRANCH   8  11
ATOM     11  N   UNL     1       3.052   6.187  18.172  0.00  0.00    +0.000 N 
ATOM     12  C   UNL     1       2.321   4.909  18.151  0.00  0.00    +0.000 C 
ATOM     13  C   UNL     1       3.121   3.833  18.900  0.00  0.00    +0.000 C 
ATOM     14  O   UNL     1       4.457   3.709  18.380  0.00  0.00    +0.000 OA
ATOM     15  C   UNL     1       5.155   4.959  18.503  0.00  0.00    +0.000 C 
ATOM     16  C   UNL     1       4.449   6.084  17.723  0.00  0.00    +0.000 C 
ENDBRANCH   8  11
ENDBRANCH   3   5
BRANCH   1  17
ATOM     17  C   UNL     1      -1.408  12.432  20.227  0.00  0.00    +0.000 C 
BRANCH  17  18
ATOM     18  N   UNL     1      -1.995  12.457  21.584  0.00  0.00    +0.000 N 
ATOM     19  C   UNL     1      -3.302  12.897  21.840  0.00  0.00    +0.000 C 
ATOM     20  O   UNL     1      -3.767  12.893  22.985  0.00  0.00    +0.000 OA
BRANCH  18  22
ATOM     21  C   UNL     1      -1.127  10.625  23.088  0.00  0.00    +0.000 C 
ATOM     22  C   UNL     1      -1.188  12.112  22.759  0.00  0.00    +0.000 C 
ENDBRANCH  18  22
BRANCH  19  23
ATOM     23  C   UNL     1      -4.158  13.444  20.698  0.00  0.00    +0.000 C 
BRANCH  23  24
ATOM     24  C   UNL     1      -5.071  12.430  20.050  0.00  0.00    +0.000 A 
ATOM     25  C   UNL     1      -4.740  11.855  18.814  0.00  0.00    +0.000 A 
ATOM     26  C   UNL     1      -5.573  10.901  18.225  0.00  0.00    +0.000 A 
ATOM     27  C   UNL     1      -6.737  10.493  18.873  0.00  0.00    +0.000 A 
ATOM     28  C   UNL     1      -7.068  11.042  20.110  0.00  0.00    +0.000 A 
ATOM     29  C   UNL     1      -6.240  12.002  20.696  0.00  0.00    +0.000 A 
ENDBRANCH  23  24
ENDBRANCH  19  23
ENDBRANCH  17  18
ENDBRANCH   1  17
TORSDOF 7
ENDMDL
