MODEL 1
REMARK VINA RESULT:      -7.1      0.000      0.000
REMARK  Name = 
REMARK  9 active torsions:
REMARK  status: ('A' for Active; 'I' for Inactive)
REMARK    1  A    between atoms: C_1  and  C_2
REMARK    2  A    between atoms: C_2  and  N_3
REMARK    3  A    between atoms: C_2  and  C_8
REMARK    4  A    between atoms: C_4  and  C_6
REMARK    5  A    between atoms: C_6  and  S_7
REMARK    6  A    between atoms: N_10  and  C_11
REMARK    7  A    between atoms: C_11  and  C_12
REMARK    8  A    between atoms: C_11  and  C_19
REMARK    9  A    between atoms: C_12  and  C_13
REMARK                            x       y       z     vdW  Elec       q    Type
REMARK                         _______ _______ _______ _____ _____    ______ ____
ROOT
ATOM      1  C   UNL     1       6.237   4.998  18.591  0.00  0.00    +0.000 C 
ATOM      2  O   UNL     1       6.748   5.218  19.691  0.00  0.00    +0.000 OA
ATOM      3  N   UNL     1       5.035   4.337  18.456  0.00  0.00    +0.000 N 
ATOM      4  H   UNL     1       4.479   4.602  17.645  0.00  0.00    +0.000 HD
ENDROOT
BRANCH   1   6
ATOM      5  C   UNL     1       6.882   6.926  17.165  0.00  0.00    +0.000 C 
ATOM      6  C   UNL     1       6.922   5.404  17.274  0.00  0.00    +0.000 C 
BRANCH   6   7
ATOM      7  N   UNL     1       6.223   4.811  16.145  0.00  0.00    +0.000 N 
ATOM      8  C   UNL     1       6.799   4.768  14.894  0.00  0.00    +0.000 C 
ATOM      9  O   UNL     1       7.881   5.293  14.646  0.00  0.00    +0.000 OA
ATOM     10  H   UNL     1       5.494   4.132  16.343  0.00  0.00    +0.000 HD
BRANCH   8  11
ATOM     11  C   UNL     1       5.964   4.056  13.844  0.00  0.00    +0.000 C 
BRANCH  11  12
ATOM     12  S   UNL     1       6.914   3.862  12.308  0.00  0.00    +0.000 S 
ATOM     13  H   UNL     1       7.775   4.867  12.539  0.00  0.00    +0.000 HD
ENDBRANCH  11  12
ENDBRANCH   8  11
ENDBRANCH   6   7
ENDBRANCH   1   6
BRANCH   3  14
ATOM     14  C   UNL     1       4.314   3.814  19.632  0.00  0.00    +0.000 C 
BRANCH  14  15
ATOM     15  C   UNL     1       4.443   2.261  19.755  0.00  0.00    +0.000 C 
ATOM     16  N   UNL     1       4.022   1.501  18.702  0.00  0.00    +0.000 N 
ATOM     17  O   UNL     1       5.016   1.699  20.685  0.00  0.00    +0.000 OA
ATOM     18  H   UNL     1       4.007   1.928  17.777  0.00  0.00    +0.000 HD
ATOM     19  H   UNL     1       4.260   0.521  18.743  0.00  0.00    +0.000 HD
ENDBRANCH  14  15
BRANCH  14  20
ATOM     20  C   UNL     1       2.801   4.117  19.576  0.00  0.00    +0.000 C 
BRANCH  20  21
ATOM     21  C   UNL     1       2.397   5.565  19.436  0.00  0.00    +0.000 A 
ATOM     22  C   UNL     1       1.919   6.266  20.556  0.00  0.00    +0.000 A 
ATOM     23  C   UNL     1       1.662   7.635  20.477  0.00  0.00    +0.000 A 
ATOM     24  C   UNL     1       1.874   8.318  19.281  0.00  0.00    +0.000 A 
ATOM     25  C   UNL     1       2.339   7.630  18.162  0.00  0.00    +0.000 A 
ATOM     26  C   UNL     1       2.598   6.261  18.239  0.00  0.00    +0.000 A 
ENDBRANCH  20  21
ENDBRANCH  14  20
ENDBRANCH   3  14
TORSDOF 8
ENDMDL
MODEL 2
REMARK VINA RESULT:      -7.1      3.191      6.613
REMARK  Name = 
REMARK  9 active torsions:
REMARK  status: ('A' for Active; 'I' for Inactive)
REMARK    1  A    between atoms: C_1  and  C_2
REMARK    2  A    between atoms: C_2  and  N_3
REMARK    3  A    between atoms: C_2  and  C_8
REMARK    4  A    between atoms: C_4  and  C_6
REMARK    5  A    between atoms: C_6  and  S_7
REMARK    6  A    between atoms: N_10  and  C_11
REMARK    7  A    between atoms: C_11  and  C_12
REMARK    8  A    between atoms: C_11  and  C_19
REMARK    9  A    between atoms: C_12  and  C_13
REMARK                            x       y       z     vdW  Elec       q    Type
REMARK                         _______ _______ _______ _____ _____    ______ ____
ROOT
ATOM      1  C   UNL     1       3.463   4.561  17.357  0.00  0.00    +0.000 C 
ATOM      2  O   UNL     1       3.415   3.460  16.806  0.00  0.00    +0.000 OA
ATOM      3  N   UNL     1       4.641   5.265  17.493  0.00  0.00    +0.000 N 
ATOM      4  H   UNL     1       4.546   6.279  17.503  0.00  0.00    +0.000 HD
ENDROOT
BRANCH   1   6
ATOM      5  C   UNL     1       2.508   6.712  18.150  0.00  0.00    +0.000 C 
ATOM      6  C   UNL     1       2.221   5.222  17.979  0.00  0.00    +0.000 C 
BRANCH   6   7
ATOM      7  N   UNL     1       1.933   4.624  19.273  0.00  0.00    +0.000 N 
ATOM      8  C   UNL     1       1.179   3.476  19.374  0.00  0.00    +0.000 C 
ATOM      9  O   UNL     1       0.646   2.946  18.403  0.00  0.00    +0.000 OA
ATOM     10  H   UNL     1       2.561   4.835  20.042  0.00  0.00    +0.000 HD
BRANCH   8  11
ATOM     11  C   UNL     1       1.029   2.948  20.791  0.00  0.00    +0.000 C 
BRANCH  11  12
ATOM     12  S   UNL     1       2.662   2.635  21.522  0.00  0.00    +0.000 S 
ATOM     13  H   UNL     1       2.496   1.313  21.696  0.00  0.00    +0.000 HD
ENDBRANCH  11  12
ENDBRANCH   8  11
ENDBRANCH   6   7
ENDBRANCH   1   6
BRANCH   3  14
ATOM     14  C   UNL     1       5.923   4.709  17.022  0.00  0.00    +0.000 C 
BRANCH  14  15
ATOM     15  C   UNL     1       6.992   4.655  18.161  0.00  0.00    +0.000 C 
ATOM     16  N   UNL     1       8.241   4.206  17.842  0.00  0.00    +0.000 N 
ATOM     17  O   UNL     1       6.807   5.111  19.287  0.00  0.00    +0.000 OA
ATOM     18  H   UNL     1       8.548   4.288  16.874  0.00  0.00    +0.000 HD
ATOM     19  H   UNL     1       8.948   4.329  18.553  0.00  0.00    +0.000 HD
ENDBRANCH  14  15
BRANCH  14  20
ATOM     20  C   UNL     1       6.546   5.548  15.886  0.00  0.00    +0.000 C 
BRANCH  20  21
ATOM     21  C   UNL     1       6.665   4.889  14.533  0.00  0.00    +0.000 A 
ATOM     22  C   UNL     1       5.695   3.960  14.123  0.00  0.00    +0.000 A 
ATOM     23  C   UNL     1       5.717   3.437  12.829  0.00  0.00    +0.000 A 
ATOM     24  C   UNL     1       6.708   3.831  11.934  0.00  0.00    +0.000 A 
ATOM     25  C   UNL     1       7.682   4.744  12.334  0.00  0.00    +0.000 A 
ATOM     26  C   UNL     1       7.661   5.269  13.627  0.00  0.00    +0.000 A 
ENDBRANCH  20  21
ENDBRANCH  14  20
ENDBRANCH   3  14
TORSDOF 8
ENDMDL
MODEL 3
REMARK VINA RESULT:      -7.0      1.379      1.840
REMARK  Name = 
REMARK  9 active torsions:
REMARK  status: ('A' for Active; 'I' for Inactive)
REMARK    1  A    between atoms: C_1  and  C_2
REMARK    2  A    between atoms: C_2  and  N_3
REMARK    3  A    between atoms: C_2  and  C_8
REMARK    4  A    between atoms: C_4  and  C_6
REMARK    5  A    between atoms: C_6  and  S_7
REMARK    6  A    between atoms: N_10  and  C_11
REMARK    7  A    between atoms: C_11  and  C_12
REMARK    8  A    between atoms: C_11  and  C_19
REMARK    9  A    between atoms: C_12  and  C_13
REMARK                            x       y       z     vdW  Elec       q    Type
REMARK                         _______ _______ _______ _____ _____    ______ ____
ROOT
ATOM      1  C   UNL     1       6.722   5.956  18.736  0.00  0.00    +0.000 C 
ATOM      2  O   UNL     1       7.124   5.551  19.828  0.00  0.00    +0.000 OA
ATOM      3  N   UNL     1       5.418   5.786  18.323  0.00  0.00    +0.000 N 
ATOM      4  H   UNL     1       5.059   6.506  17.698  0.00  0.00    +0.000 HD
ENDROOT
BRANCH   1   6
ATOM      5  C   UNL     1       7.476   8.157  17.868  0.00  0.00    +0.000 C 
ATOM      6  C   UNL     1       7.653   6.647  17.725  0.00  0.00    +0.000 C 
BRANCH   6   7
ATOM      7  N   UNL     1       7.312   6.238  16.372  0.00  0.00    +0.000 N 
ATOM      8  C   UNL     1       7.506   4.940  15.951  0.00  0.00    +0.000 C 
ATOM      9  O   UNL     1       8.045   4.090  16.654  0.00  0.00    +0.000 OA
ATOM     10  H   UNL     1       6.623   6.789  15.870  0.00  0.00    +0.000 HD
BRANCH   8  11
ATOM     11  C   UNL     1       7.035   4.665  14.534  0.00  0.00    +0.000 C 
BRANCH  11  12
ATOM     12  S   UNL     1       5.241   4.375  14.510  0.00  0.00    +0.000 S 
ATOM     13  H   UNL     1       5.175   3.960  13.234  0.00  0.00    +0.000 HD
ENDBRANCH  11  12
ENDBRANCH   8  11
ENDBRANCH   6   7
ENDBRANCH   1   6
BRANCH   3  14
ATOM     14  C   UNL     1       4.439   5.061  19.155  0.00  0.00    +0.000 C 
BRANCH  14  15
ATOM     15  C   UNL     1       4.607   3.511  19.041  0.00  0.00    +0.000 C 
ATOM     16  N   UNL     1       4.512   2.950  17.800  0.00  0.00    +0.000 N 
ATOM     17  O   UNL     1       4.943   2.793  19.980  0.00  0.00    +0.000 OA
ATOM     18  H   UNL     1       4.720   3.535  16.992  0.00  0.00    +0.000 HD
ATOM     19  H   UNL     1       4.779   1.978  17.734  0.00  0.00    +0.000 HD
ENDBRANCH  14  15
BRANCH  14  20
ATOM     20  C   UNL     1       2.982   5.368  18.751  0.00  0.00    +0.000 C 
BRANCH  20  21
ATOM     21  C   UNL     1       2.489   6.776  18.983  0.00  0.00    +0.000 A 
ATOM     22  C   UNL     1       2.436   7.681  17.909  0.00  0.00    +0.000 A 
ATOM     23  C   UNL     1       1.865   8.943  18.075  0.00  0.00    +0.000 A 
ATOM     24  C   UNL     1       1.346   9.318  19.312  0.00  0.00    +0.000 A 
ATOM     25  C   UNL     1       1.403   8.432  20.386  0.00  0.00    +0.000 A 
ATOM     26  C   UNL     1       1.972   7.168  20.222  0.00  0.00    +0.000 A 
ENDBRANCH  20  21
ENDBRANCH  14  20
ENDBRANCH   3  14
TORSDOF 8
ENDMDL
MODEL 4
REMARK VINA RESULT:      -6.9      1.559      1.884
REMARK  Name = 
REMARK  9 active torsions:
REMARK  status: ('A' for Active; 'I' for Inactive)
REMARK    1  A    between atoms: C_1  and  C_2
REMARK    2  A    between atoms: C_2  and  N_3
REMARK    3  A    between atoms: C_2  and  C_8
REMARK    4  A    between atoms: C_4  and  C_6
REMARK    5  A    between atoms: C_6  and  S_7
REMARK    6  A    between atoms: N_10  and  C_11
REMARK    7  A    between atoms: C_11  and  C_12
REMARK    8  A    between atoms: C_11  and  C_19
REMARK    9  A    between atoms: C_12  and  C_13
REMARK                            x       y       z     vdW  Elec       q    Type
REMARK                         _______ _______ _______ _____ _____    ______ ____
ROOT
ATOM      1  C   UNL     1       5.993   4.736  18.700  0.00  0.00    +0.000 C 
ATOM      2  O   UNL     1       5.575   5.368  19.671  0.00  0.00    +0.000 OA
ATOM      3  N   UNL     1       5.204   3.842  18.008  0.00  0.00    +0.000 N 
ATOM      4  H   UNL     1       5.424   3.739  17.019  0.00  0.00    +0.000 HD
ENDROOT
BRANCH   1   6
ATOM      5  C   UNL     1       7.932   6.275  18.500  0.00  0.00    +0.000 C 
ATOM      6  C   UNL     1       7.446   4.857  18.207  0.00  0.00    +0.000 C 
BRANCH   6   7
ATOM      7  N   UNL     1       7.510   4.601  16.777  0.00  0.00    +0.000 N 
ATOM      8  C   UNL     1       6.890   5.437  15.875  0.00  0.00    +0.000 C 
ATOM      9  O   UNL     1       6.189   6.384  16.225  0.00  0.00    +0.000 OA
ATOM     10  H   UNL     1       8.281   4.037  16.432  0.00  0.00    +0.000 HD
BRANCH   8  11
ATOM     11  C   UNL     1       7.111   5.064  14.420  0.00  0.00    +0.000 C 
BRANCH  11  12
ATOM     12  S   UNL     1       5.869   3.851  13.884  0.00  0.00    +0.000 S 
ATOM     13  H   UNL     1       5.287   3.695  15.084  0.00  0.00    +0.000 HD
ENDBRANCH  11  12
ENDBRANCH   8  11
ENDBRANCH   6   7
ENDBRANCH   1   6
BRANCH   3  14
ATOM     14  C   UNL     1       3.818   3.561  18.428  0.00  0.00    +0.000 C 
BRANCH  14  15
ATOM     15  C   UNL     1       3.342   2.146  17.966  0.00  0.00    +0.000 C 
ATOM     16  N   UNL     1       4.086   1.067  18.348  0.00  0.00    +0.000 N 
ATOM     17  O   UNL     1       2.275   1.943  17.391  0.00  0.00    +0.000 OA
ATOM     18  H   UNL     1       4.657   1.151  19.187  0.00  0.00    +0.000 HD
ATOM     19  H   UNL     1       3.673   0.162  18.171  0.00  0.00    +0.000 HD
ENDBRANCH  14  15
BRANCH  14  20
ATOM     20  C   UNL     1       2.809   4.570  17.838  0.00  0.00    +0.000 C 
BRANCH  20  21
ATOM     21  C   UNL     1       2.497   5.792  18.667  0.00  0.00    +0.000 A 
ATOM     22  C   UNL     1       2.523   7.064  18.069  0.00  0.00    +0.000 A 
ATOM     23  C   UNL     1       2.113   8.189  18.785  0.00  0.00    +0.000 A 
ATOM     24  C   UNL     1       1.681   8.061  20.102  0.00  0.00    +0.000 A 
ATOM     25  C   UNL     1       1.662   6.806  20.708  0.00  0.00    +0.000 A 
ATOM     26  C   UNL     1       2.069   5.678  19.993  0.00  0.00    +0.000 A 
ENDBRANCH  20  21
ENDBRANCH  14  20
ENDBRANCH   3  14
TORSDOF 8
ENDMDL
MODEL 5
REMARK VINA RESULT:      -6.8      3.109      6.594
REMARK  Name = 
REMARK  9 active torsions:
REMARK  status: ('A' for Active; 'I' for Inactive)
REMARK    1  A    between atoms: C_1  and  C_2
REMARK    2  A    between atoms: C_2  and  N_3
REMARK    3  A    between atoms: C_2  and  C_8
REMARK    4  A    between atoms: C_4  and  C_6
REMARK    5  A    between atoms: C_6  and  S_7
REMARK    6  A    between atoms: N_10  and  C_11
REMARK    7  A    between atoms: C_11  and  C_12
REMARK    8  A    between atoms: C_11  and  C_19
REMARK    9  A    between atoms: C_12  and  C_13
REMARK                            x       y       z     vdW  Elec       q    Type
REMARK                         _______ _______ _______ _____ _____    ______ ____
ROOT
ATOM      1  C   UNL     1       4.371   4.993  18.066  0.00  0.00    +0.000 C 
ATOM      2  O   UNL     1       4.782   4.177  18.893  0.00  0.00    +0.000 OA
ATOM      3  N   UNL     1       5.185   5.524  17.088  0.00  0.00    +0.000 N 
ATOM      4  H   UNL     1       4.716   5.779  16.220  0.00  0.00    +0.000 HD
ENDROOT
BRANCH   1   6
ATOM      5  C   UNL     1       2.968   7.015  18.399  0.00  0.00    +0.000 C 
ATOM      6  C   UNL     1       2.926   5.521  18.085  0.00  0.00    +0.000 C 
BRANCH   6   7
ATOM      7  N   UNL     1       2.154   4.826  19.103  0.00  0.00    +0.000 N 
ATOM      8  C   UNL     1       1.412   3.707  18.792  0.00  0.00    +0.000 C 
ATOM      9  O   UNL     1       1.294   3.289  17.643  0.00  0.00    +0.000 OA
ATOM     10  H   UNL     1       2.436   4.941  20.071  0.00  0.00    +0.000 HD
BRANCH   8  11
ATOM     11  C   UNL     1       0.721   3.064  19.982  0.00  0.00    +0.000 C 
BRANCH  11  12
ATOM     12  S   UNL     1       1.826   3.056  21.424  0.00  0.00    +0.000 S 
ATOM     13  H   UNL     1       2.498   1.942  21.090  0.00  0.00    +0.000 HD
ENDBRANCH  11  12
ENDBRANCH   8  11
ENDBRANCH   6   7
ENDBRANCH   1   6
BRANCH   3  14
ATOM     14  C   UNL     1       6.615   5.174  17.009  0.00  0.00    +0.000 C 
BRANCH  14  15
ATOM     15  C   UNL     1       7.440   5.812  18.174  0.00  0.00    +0.000 C 
ATOM     16  N   UNL     1       7.883   4.988  19.167  0.00  0.00    +0.000 N 
ATOM     17  O   UNL     1       7.817   6.982  18.177  0.00  0.00    +0.000 OA
ATOM     18  H   UNL     1       8.008   4.000  18.951  0.00  0.00    +0.000 HD
ATOM     19  H   UNL     1       8.540   5.395  19.817  0.00  0.00    +0.000 HD
ENDBRANCH  14  15
BRANCH  14  20
ATOM     20  C   UNL     1       7.269   5.663  15.699  0.00  0.00    +0.000 C 
BRANCH  20  21
ATOM     21  C   UNL     1       6.844   4.977  14.423  0.00  0.00    +0.000 A 
ATOM     22  C   UNL     1       7.623   5.119  13.263  0.00  0.00    +0.000 A 
ATOM     23  C   UNL     1       7.318   4.392  12.112  0.00  0.00    +0.000 A 
ATOM     24  C   UNL     1       6.231   3.521  12.104  0.00  0.00    +0.000 A 
ATOM     25  C   UNL     1       5.444   3.381  13.246  0.00  0.00    +0.000 A 
ATOM     26  C   UNL     1       5.749   4.106  14.399  0.00  0.00    +0.000 A 
ENDBRANCH  20  21
ENDBRANCH  14  20
ENDBRANCH   3  14
TORSDOF 8
ENDMDL
MODEL 6
REMARK VINA RESULT:      -6.7      3.105      6.564
REMARK  Name = 
REMARK  9 active torsions:
REMARK  status: ('A' for Active; 'I' for Inactive)
REMARK    1  A    between atoms: C_1  and  C_2
REMARK    2  A    between atoms: C_2  and  N_3
REMARK    3  A    between atoms: C_2  and  C_8
REMARK    4  A    between atoms: C_4  and  C_6
REMARK    5  A    between atoms: C_6  and  S_7
REMARK    6  A    between atoms: N_10  and  C_11
REMARK    7  A    between atoms: C_11  and  C_12
REMARK    8  A    between atoms: C_11  and  C_19
REMARK    9  A    between atoms: C_12  and  C_13
REMARK                            x       y       z     vdW  Elec       q    Type
REMARK                         _______ _______ _______ _____ _____    ______ ____
ROOT
ATOM      1  C   UNL     1       4.305   5.244  18.165  0.00  0.00    +0.000 C 
ATOM      2  O   UNL     1       4.802   4.642  19.119  0.00  0.00    +0.000 OA
ATOM      3  N   UNL     1       5.036   5.579  17.045  0.00  0.00    +0.000 N 
ATOM      4  H   UNL     1       4.507   5.623  16.175  0.00  0.00    +0.000 HD
ENDROOT
BRANCH   1   6
ATOM      5  C   UNL     1       2.813   7.197  18.517  0.00  0.00    +0.000 C 
ATOM      6  C   UNL     1       2.840   5.712  18.165  0.00  0.00    +0.000 C 
BRANCH   6   7
ATOM      7  N   UNL     1       2.076   4.960  19.148  0.00  0.00    +0.000 N 
ATOM      8  C   UNL     1       1.402   3.810  18.798  0.00  0.00    +0.000 C 
ATOM      9  O   UNL     1       1.339   3.407  17.640  0.00  0.00    +0.000 OA
ATOM     10  H   UNL     1       2.324   5.071  20.126  0.00  0.00    +0.000 HD
BRANCH   8  11
ATOM     11  C   UNL     1       0.711   3.111  19.956  0.00  0.00    +0.000 C 
BRANCH  11  12
ATOM     12  S   UNL     1       1.820   3.026  21.393  0.00  0.00    +0.000 S 
ATOM     13  H   UNL     1       0.892   3.332  22.315  0.00  0.00    +0.000 HD
ENDBRANCH  11  12
ENDBRANCH   8  11
ENDBRANCH   6   7
ENDBRANCH   1   6
BRANCH   3  14
ATOM     14  C   UNL     1       6.475   5.271  16.950  0.00  0.00    +0.000 C 
BRANCH  14  15
ATOM     15  C   UNL     1       7.296   5.942  18.099  0.00  0.00    +0.000 C 
ATOM     16  N   UNL     1       7.791   5.136  19.082  0.00  0.00    +0.000 N 
ATOM     17  O   UNL     1       7.624   7.126  18.096  0.00  0.00    +0.000 OA
ATOM     18  H   UNL     1       7.953   4.155  18.863  0.00  0.00    +0.000 HD
ATOM     19  H   UNL     1       8.444   5.570  19.720  0.00  0.00    +0.000 HD
ENDBRANCH  14  15
BRANCH  14  20
ATOM     20  C   UNL     1       7.096   5.770  15.628  0.00  0.00    +0.000 C 
BRANCH  20  21
ATOM     21  C   UNL     1       6.866   4.924  14.399  0.00  0.00    +0.000 A 
ATOM     22  C   UNL     1       5.750   4.071  14.341  0.00  0.00    +0.000 A 
ATOM     23  C   UNL     1       5.450   3.379  13.167  0.00  0.00    +0.000 A 
ATOM     24  C   UNL     1       6.259   3.524  12.043  0.00  0.00    +0.000 A 
ATOM     25  C   UNL     1       7.374   4.359  12.094  0.00  0.00    +0.000 A 
ATOM     26  C   UNL     1       7.676   5.054  13.266  0.00  0.00    +0.000 A 
ENDBRANCH  20  21
ENDBRANCH  14  20
ENDBRANCH   3  14
TORSDOF 8
ENDMDL
MODEL 7
REMARK VINA RESULT:      -6.7      2.807      6.545
REMARK  Name = 
REMARK  9 active torsions:
REMARK  status: ('A' for Active; 'I' for Inactive)
REMARK    1  A    between atoms: C_1  and  C_2
REMARK    2  A    between atoms: C_2  and  N_3
REMARK    3  A    between atoms: C_2  and  C_8
REMARK    4  A    between atoms: C_4  and  C_6
REMARK    5  A    between atoms: C_6  and  S_7
REMARK    6  A    between atoms: N_10  and  C_11
REMARK    7  A    between atoms: C_11  and  C_12
REMARK    8  A    between atoms: C_11  and  C_19
REMARK    9  A    between atoms: C_12  and  C_13
REMARK                            x       y       z     vdW  Elec       q    Type
REMARK                         _______ _______ _______ _____ _____    ______ ____
ROOT
ATOM      1  C   UNL     1       3.549   3.036  18.179  0.00  0.00    +0.000 C 
ATOM      2  O   UNL     1       3.849   1.984  17.611  0.00  0.00    +0.000 OA
ATOM      3  N   UNL     1       4.291   4.188  18.034  0.00  0.00    +0.000 N 
ATOM      4  H   UNL     1       3.768   5.059  18.114  0.00  0.00    +0.000 HD
ENDROOT
BRANCH   1   6
ATOM      5  C   UNL     1       1.183   2.360  18.517  0.00  0.00    +0.000 C 
ATOM      6  C   UNL     1       2.345   3.138  19.131  0.00  0.00    +0.000 C 
BRANCH   6   7
ATOM      7  N   UNL     1       1.965   4.531  19.308  0.00  0.00    +0.000 N 
ATOM      8  C   UNL     1       2.003   5.126  20.550  0.00  0.00    +0.000 C 
ATOM      9  O   UNL     1       2.273   4.504  21.574  0.00  0.00    +0.000 OA
ATOM     10  H   UNL     1       2.019   5.143  18.500  0.00  0.00    +0.000 HD
BRANCH   8  11
ATOM     11  C   UNL     1       1.641   6.601  20.549  0.00  0.00    +0.000 C 
BRANCH  11  12
ATOM     12  S   UNL     1       2.367   7.427  19.103  0.00  0.00    +0.000 S 
ATOM     13  H   UNL     1       1.674   8.571  19.221  0.00  0.00    +0.000 HD
ENDBRANCH  11  12
ENDBRANCH   8  11
ENDBRANCH   6   7
ENDBRANCH   1   6
BRANCH   3  14
ATOM     14  C   UNL     1       5.522   4.209  17.221  0.00  0.00    +0.000 C 
BRANCH  14  15
ATOM     15  C   UNL     1       6.789   4.518  18.083  0.00  0.00    +0.000 C 
ATOM     16  N   UNL     1       8.011   4.247  17.540  0.00  0.00    +0.000 N 
ATOM     17  O   UNL     1       6.748   5.105  19.162  0.00  0.00    +0.000 OA
ATOM     18  H   UNL     1       8.091   4.229  16.524  0.00  0.00    +0.000 HD
ATOM     19  H   UNL     1       8.808   4.599  18.050  0.00  0.00    +0.000 HD
ENDBRANCH  14  15
BRANCH  14  20
ATOM     20  C   UNL     1       5.479   5.286  16.116  0.00  0.00    +0.000 C 
BRANCH  20  21
ATOM     21  C   UNL     1       5.917   4.869  14.734  0.00  0.00    +0.000 A 
ATOM     22  C   UNL     1       7.146   5.321  14.226  0.00  0.00    +0.000 A 
ATOM     23  C   UNL     1       7.627   4.845  13.006  0.00  0.00    +0.000 A 
ATOM     24  C   UNL     1       6.886   3.918  12.277  0.00  0.00    +0.000 A 
ATOM     25  C   UNL     1       5.660   3.470  12.766  0.00  0.00    +0.000 A 
ATOM     26  C   UNL     1       5.178   3.944  13.987  0.00  0.00    +0.000 A 
ENDBRANCH  20  21
ENDBRANCH  14  20
ENDBRANCH   3  14
TORSDOF 8
ENDMDL
MODEL 8
REMARK VINA RESULT:      -6.7      3.189      7.009
REMARK  Name = 
REMARK  9 active torsions:
REMARK  status: ('A' for Active; 'I' for Inactive)
REMARK    1  A    between atoms: C_1  and  C_2
REMARK    2  A    between atoms: C_2  and  N_3
REMARK    3  A    between atoms: C_2  and  C_8
REMARK    4  A    between atoms: C_4  and  C_6
REMARK    5  A    between atoms: C_6  and  S_7
REMARK    6  A    between atoms: N_10  and  C_11
REMARK    7  A    between atoms: C_11  and  C_12
REMARK    8  A    between atoms: C_11  and  C_19
REMARK    9  A    between atoms: C_12  and  C_13
REMARK                            x       y       z     vdW  Elec       q    Type
REMARK                         _______ _______ _______ _____ _____    ______ ____
ROOT
ATOM      1  C   UNL     1       4.253   4.671  17.237  0.00  0.00    +0.000 C 
ATOM      2  O   UNL     1       4.717   3.717  17.864  0.00  0.00    +0.000 OA
ATOM      3  N   UNL     1       4.847   5.157  16.092  0.00  0.00    +0.000 N 
ATOM      4  H   UNL     1       4.213   5.575  15.413  0.00  0.00    +0.000 HD
ENDROOT
BRANCH   1   6
ATOM      5  C   UNL     1       3.394   6.871  18.004  0.00  0.00    +0.000 C 
ATOM      6  C   UNL     1       2.998   5.427  17.705  0.00  0.00    +0.000 C 
BRANCH   6   7
ATOM      7  N   UNL     1       2.459   4.806  18.904  0.00  0.00    +0.000 N 
ATOM      8  C   UNL     1       1.454   3.866  18.830  0.00  0.00    +0.000 C 
ATOM      9  O   UNL     1       0.908   3.565  17.772  0.00  0.00    +0.000 OA
ATOM     10  H   UNL     1       3.044   4.794  19.734  0.00  0.00    +0.000 HD
BRANCH   8  11
ATOM     11  C   UNL     1       1.055   3.269  20.168  0.00  0.00    +0.000 C 
BRANCH  11  12
ATOM     12  S   UNL     1       2.533   2.870  21.146  0.00  0.00    +0.000 S 
ATOM     13  H   UNL     1       3.426   3.368  20.275  0.00  0.00    +0.000 HD
ENDBRANCH  11  12
ENDBRANCH   8  11
ENDBRANCH   6   7
ENDBRANCH   1   6
BRANCH   3  14
ATOM     14  C   UNL     1       6.107   4.584  15.580  0.00  0.00    +0.000 C 
BRANCH  14  15
ATOM     15  C   UNL     1       7.336   4.996  16.453  0.00  0.00    +0.000 C 
ATOM     16  N   UNL     1       7.540   6.328  16.677  0.00  0.00    +0.000 N 
ATOM     17  O   UNL     1       8.046   4.190  17.049  0.00  0.00    +0.000 OA
ATOM     18  H   UNL     1       6.738   6.953  16.618  0.00  0.00    +0.000 HD
ATOM     19  H   UNL     1       8.242   6.555  17.367  0.00  0.00    +0.000 HD
ENDBRANCH  14  15
BRANCH  14  20
ATOM     20  C   UNL     1       6.423   5.049  14.143  0.00  0.00    +0.000 C 
BRANCH  20  21
ATOM     21  C   UNL     1       6.170   4.060  13.031  0.00  0.00    +0.000 A 
ATOM     22  C   UNL     1       7.249   3.365  12.458  0.00  0.00    +0.000 A 
ATOM     23  C   UNL     1       7.023   2.357  11.521  0.00  0.00    +0.000 A 
ATOM     24  C   UNL     1       5.723   2.035  11.141  0.00  0.00    +0.000 A 
ATOM     25  C   UNL     1       4.646   2.725  11.694  0.00  0.00    +0.000 A 
ATOM     26  C   UNL     1       4.869   3.733  12.633  0.00  0.00    +0.000 A 
ENDBRANCH  20  21
ENDBRANCH  14  20
ENDBRANCH   3  14
TORSDOF 8
ENDMDL
MODEL 9
REMARK VINA RESULT:      -6.6      3.088      6.606
REMARK  Name = 
REMARK  9 active torsions:
REMARK  status: ('A' for Active; 'I' for Inactive)
REMARK    1  A    between atoms: C_1  and  C_2
REMARK    2  A    between atoms: C_2  and  N_3
REMARK    3  A    between atoms: C_2  and  C_8
REMARK    4  A    between atoms: C_4  and  C_6
REMARK    5  A    between atoms: C_6  and  S_7
REMARK    6  A    between atoms: N_10  and  C_11
REMARK    7  A    between atoms: C_11  and  C_12
REMARK    8  A    between atoms: C_11  and  C_19
REMARK    9  A    between atoms: C_12  and  C_13
REMARK                            x       y       z     vdW  Elec       q    Type
REMARK                         _______ _______ _______ _____ _____    ______ ____
ROOT
ATOM      1  C   UNL     1       3.518   4.736  17.311  0.00  0.00    +0.000 C 
ATOM      2  O   UNL     1       3.389   3.556  16.980  0.00  0.00    +0.000 OA
ATOM      3  N   UNL     1       4.710   5.414  17.170  0.00  0.00    +0.000 N 
ATOM      4  H   UNL     1       4.627   6.417  17.007  0.00  0.00    +0.000 HD
ENDROOT
BRANCH   1   6
ATOM      5  C   UNL     1       2.860   6.965  18.186  0.00  0.00    +0.000 C 
ATOM      6  C   UNL     1       2.371   5.538  17.950  0.00  0.00    +0.000 C 
BRANCH   6   7
ATOM      7  N   UNL     1       1.985   4.934  19.215  0.00  0.00    +0.000 N 
ATOM      8  C   UNL     1       2.897   4.777  20.236  0.00  0.00    +0.000 C 
ATOM      9  O   UNL     1       4.087   5.056  20.109  0.00  0.00    +0.000 OA
ATOM     10  H   UNL     1       1.003   4.958  19.472  0.00  0.00    +0.000 HD
BRANCH   8  11
ATOM     11  C   UNL     1       2.315   4.192  21.511  0.00  0.00    +0.000 C 
BRANCH  11  12
ATOM     12  S   UNL     1       1.420   2.654  21.148  0.00  0.00    +0.000 S 
ATOM     13  H   UNL     1       0.424   2.851  22.028  0.00  0.00    +0.000 HD
ENDBRANCH  11  12
ENDBRANCH   8  11
ENDBRANCH   6   7
ENDBRANCH   1   6
BRANCH   3  14
ATOM     14  C   UNL     1       5.917   4.741  16.654  0.00  0.00    +0.000 C 
BRANCH  14  15
ATOM     15  C   UNL     1       7.029   4.616  17.745  0.00  0.00    +0.000 C 
ATOM     16  N   UNL     1       6.671   4.821  19.046  0.00  0.00    +0.000 N 
ATOM     17  O   UNL     1       8.169   4.221  17.510  0.00  0.00    +0.000 OA
ATOM     18  H   UNL     1       5.698   4.666  19.306  0.00  0.00    +0.000 HD
ATOM     19  H   UNL     1       7.368   4.581  19.737  0.00  0.00    +0.000 HD
ENDBRANCH  14  15
BRANCH  14  20
ATOM     20  C   UNL     1       6.555   5.503  15.473  0.00  0.00    +0.000 C 
BRANCH  20  21
ATOM     21  C   UNL     1       6.636   4.777  14.152  0.00  0.00    +0.000 A 
ATOM     22  C   UNL     1       5.652   3.832  13.815  0.00  0.00    +0.000 A 
ATOM     23  C   UNL     1       5.638   3.246  12.549  0.00  0.00    +0.000 A 
ATOM     24  C   UNL     1       6.607   3.590  11.609  0.00  0.00    +0.000 A 
ATOM     25  C   UNL     1       7.594   4.517  11.937  0.00  0.00    +0.000 A 
ATOM     26  C   UNL     1       7.609   5.106  13.202  0.00  0.00    +0.000 A 
ENDBRANCH  20  21
ENDBRANCH  14  20
ENDBRANCH   3  14
TORSDOF 8
ENDMDL
