MODEL 1
REMARK VINA RESULT:      -8.1      0.000      0.000
REMARK  Name = 
REMARK  1 active torsions:
REMARK  status: ('A' for Active; 'I' for Inactive)
REMARK    1  A    between atoms: C_8  and  C_9
REMARK                            x       y       z     vdW  Elec       q    Type
REMARK                         _______ _______ _______ _____ _____    ______ ____
ROOT
ATOM      1  C   UNL     1       3.763   3.700  17.487  0.00  0.00    +0.000 A 
ATOM      2  C   UNL     1       2.464   3.972  17.091  0.00  0.00    +0.000 A 
ATOM      3  C   UNL     1       1.452   3.783  18.020  0.00  0.00    +0.000 A 
ATOM      4  C   UNL     1       1.780   3.333  19.304  0.00  0.00    +0.000 A 
ATOM      5  C   UNL     1       0.798   3.147  20.288  0.00  0.00    +0.000 A 
ATOM      6  C   UNL     1       1.172   2.703  21.546  0.00  0.00    +0.000 A 
ATOM      7  C   UNL     1       2.512   2.458  21.765  0.00  0.00    +0.000 A 
ATOM      8  N   UNL     1       3.474   2.630  20.830  0.00  0.00    +0.000 NA
ATOM      9  C   UNL     1       3.129   3.065  19.616  0.00  0.00    +0.000 A 
ATOM     10  N   UNL     1       4.093   3.242  18.712  0.00  0.00    +0.000 NA
ENDROOT
BRANCH   1  18
ATOM     11  O   UNL     1       7.050   4.462  14.715  0.00  0.00    +0.000 OA
ATOM     12  C   UNL     1       6.842   5.147  15.703  0.00  0.00    +0.000 C 
ATOM     13  N   UNL     1       7.576   6.242  16.063  0.00  0.00    +0.000 N 
ATOM     14  C   UNL     1       7.187   6.943  17.164  0.00  0.00    +0.000 C 
ATOM     15  S   UNL     1       7.962   8.298  17.711  0.00  0.00    +0.000 S 
ATOM     16  S   UNL     1       5.766   6.202  17.863  0.00  0.00    +0.000 S 
ATOM     17  C   UNL     1       5.734   4.949  16.674  0.00  0.00    +0.000 C 
ATOM     18  C   UNL     1       4.876   3.927  16.572  0.00  0.00    +0.000 C 
ATOM     19  H   UNL     1       8.366   6.528  15.505  0.00  0.00    +0.000 HD
ENDBRANCH   1  18
TORSDOF 1
ENDMDL
MODEL 2
REMARK VINA RESULT:      -7.6      2.059      2.437
REMARK  Name = 
REMARK  1 active torsions:
REMARK  status: ('A' for Active; 'I' for Inactive)
REMARK    1  A    between atoms: C_8  and  C_9
REMARK                            x       y       z     vdW  Elec       q    Type
REMARK                         _______ _______ _______ _____ _____    ______ ____
ROOT
ATOM      1  C   UNL     1       4.215   5.359  18.447  0.00  0.00    +0.000 A 
ATOM      2  C   UNL     1       2.989   5.961  18.215  0.00  0.00    +0.000 A 
ATOM      3  C   UNL     1       1.889   5.470  18.900  0.00  0.00    +0.000 A 
ATOM      4  C   UNL     1       2.058   4.402  19.788  0.00  0.00    +0.000 A 
ATOM      5  C   UNL     1       0.982   3.883  20.523  0.00  0.00    +0.000 A 
ATOM      6  C   UNL     1       1.200   2.826  21.392  0.00  0.00    +0.000 A 
ATOM      7  C   UNL     1       2.484   2.330  21.486  0.00  0.00    +0.000 A 
ATOM      8  N   UNL     1       3.534   2.815  20.786  0.00  0.00    +0.000 NA
ATOM      9  C   UNL     1       3.340   3.838  19.951  0.00  0.00    +0.000 A 
ATOM     10  N   UNL     1       4.391   4.313  19.279  0.00  0.00    +0.000 NA
ENDROOT
BRANCH   1  18
ATOM     11  O   UNL     1       7.863   6.775  16.508  0.00  0.00    +0.000 OA
ATOM     12  C   UNL     1       7.102   5.976  15.988  0.00  0.00    +0.000 C 
ATOM     13  N   UNL     1       7.290   5.401  14.763  0.00  0.00    +0.000 N 
ATOM     14  C   UNL     1       6.381   4.480  14.339  0.00  0.00    +0.000 C 
ATOM     15  S   UNL     1       6.485   3.687  12.890  0.00  0.00    +0.000 S 
ATOM     16  S   UNL     1       5.142   4.271  15.554  0.00  0.00    +0.000 S 
ATOM     17  C   UNL     1       5.856   5.444  16.601  0.00  0.00    +0.000 C 
ATOM     18  C   UNL     1       5.419   5.862  17.795  0.00  0.00    +0.000 C 
ATOM     19  H   UNL     1       8.097   5.643  14.209  0.00  0.00    +0.000 HD
ENDBRANCH   1  18
TORSDOF 1
ENDMDL
MODEL 3
REMARK VINA RESULT:      -6.5      4.978      5.609
REMARK  Name = 
REMARK  1 active torsions:
REMARK  status: ('A' for Active; 'I' for Inactive)
REMARK    1  A    between atoms: C_8  and  C_9
REMARK                            x       y       z     vdW  Elec       q    Type
REMARK                         _______ _______ _______ _____ _____    ______ ____
ROOT
ATOM      1  C   UNL     1       2.238   7.031  19.367  0.00  0.00    +0.000 A 
ATOM      2  C   UNL     1       2.257   7.540  18.080  0.00  0.00    +0.000 A 
ATOM      3  C   UNL     1       1.784   8.829  17.888  0.00  0.00    +0.000 A 
ATOM      4  C   UNL     1       1.315   9.555  18.989  0.00  0.00    +0.000 A 
ATOM      5  C   UNL     1       0.847  10.871  18.853  0.00  0.00    +0.000 A 
ATOM      6  C   UNL     1       0.395  11.550  19.973  0.00  0.00    +0.000 A 
ATOM      7  C   UNL     1       0.425  10.882  21.180  0.00  0.00    +0.000 A 
ATOM      8  N   UNL     1       0.870   9.614  21.332  0.00  0.00    +0.000 NA
ATOM      9  C   UNL     1       1.316   8.951  20.263  0.00  0.00    +0.000 A 
ATOM     10  N   UNL     1       1.765   7.706  20.434  0.00  0.00    +0.000 NA
ENDROOT
BRANCH   1  18
ATOM     11  O   UNL     1       3.810   3.022  20.095  0.00  0.00    +0.000 OA
ATOM     12  C   UNL     1       4.403   3.858  19.435  0.00  0.00    +0.000 C 
ATOM     13  N   UNL     1       5.606   3.657  18.820  0.00  0.00    +0.000 N 
ATOM     14  C   UNL     1       6.119   4.668  18.065  0.00  0.00    +0.000 C 
ATOM     15  S   UNL     1       7.553   4.567  17.247  0.00  0.00    +0.000 S 
ATOM     16  S   UNL     1       5.031   6.036  18.094  0.00  0.00    +0.000 S 
ATOM     17  C   UNL     1       3.916   5.230  19.138  0.00  0.00    +0.000 C 
ATOM     18  C   UNL     1       2.768   5.700  19.642  0.00  0.00    +0.000 C 
ATOM     19  H   UNL     1       6.078   2.770  18.908  0.00  0.00    +0.000 HD
ENDBRANCH   1  18
TORSDOF 1
ENDMDL
MODEL 4
REMARK VINA RESULT:      -6.5      2.267      2.917
REMARK  Name = 
REMARK  1 active torsions:
REMARK  status: ('A' for Active; 'I' for Inactive)
REMARK    1  A    between atoms: C_8  and  C_9
REMARK                            x       y       z     vdW  Elec       q    Type
REMARK                         _______ _______ _______ _____ _____    ______ ____
ROOT
ATOM      1  C   UNL     1       5.022   4.506  18.781  0.00  0.00    +0.000 A 
ATOM      2  C   UNL     1       5.403   3.278  19.295  0.00  0.00    +0.000 A 
ATOM      3  C   UNL     1       4.464   2.562  20.021  0.00  0.00    +0.000 A 
ATOM      4  C   UNL     1       3.185   3.101  20.202  0.00  0.00    +0.000 A 
ATOM      5  C   UNL     1       2.191   2.408  20.909  0.00  0.00    +0.000 A 
ATOM      6  C   UNL     1       0.939   2.981  21.059  0.00  0.00    +0.000 A 
ATOM      7  C   UNL     1       0.735   4.226  20.500  0.00  0.00    +0.000 A 
ATOM      8  N   UNL     1       1.680   4.911  19.816  0.00  0.00    +0.000 NA
ATOM      9  C   UNL     1       2.888   4.367  19.657  0.00  0.00    +0.000 A 
ATOM     10  N   UNL     1       3.803   5.051  18.967  0.00  0.00    +0.000 NA
ENDROOT
BRANCH   1  18
ATOM     11  O   UNL     1       7.853   6.758  16.335  0.00  0.00    +0.000 OA
ATOM     12  C   UNL     1       7.170   5.849  15.893  0.00  0.00    +0.000 C 
ATOM     13  N   UNL     1       7.209   5.398  14.604  0.00  0.00    +0.000 N 
ATOM     14  C   UNL     1       6.427   4.334  14.271  0.00  0.00    +0.000 C 
ATOM     15  S   UNL     1       6.382   3.665  12.759  0.00  0.00    +0.000 S 
ATOM     16  S   UNL     1       5.527   3.803  15.672  0.00  0.00    +0.000 S 
ATOM     17  C   UNL     1       6.202   5.037  16.675  0.00  0.00    +0.000 C 
ATOM     18  C   UNL     1       5.947   5.285  17.966  0.00  0.00    +0.000 C 
ATOM     19  H   UNL     1       7.824   5.833  13.934  0.00  0.00    +0.000 HD
ENDBRANCH   1  18
TORSDOF 1
ENDMDL
MODEL 5
REMARK VINA RESULT:      -6.5      4.978      6.001
REMARK  Name = 
REMARK  1 active torsions:
REMARK  status: ('A' for Active; 'I' for Inactive)
REMARK    1  A    between atoms: C_8  and  C_9
REMARK                            x       y       z     vdW  Elec       q    Type
REMARK                         _______ _______ _______ _____ _____    ______ ____
ROOT
ATOM      1  C   UNL     1       2.718   7.075  18.016  0.00  0.00    +0.000 A 
ATOM      2  C   UNL     1       4.052   6.948  17.666  0.00  0.00    +0.000 A 
ATOM      3  C   UNL     1       4.560   5.667  17.512  0.00  0.00    +0.000 A 
ATOM      4  C   UNL     1       3.716   4.569  17.712  0.00  0.00    +0.000 A 
ATOM      5  C   UNL     1       4.173   3.254  17.546  0.00  0.00    +0.000 A 
ATOM      6  C   UNL     1       3.298   2.199  17.752  0.00  0.00    +0.000 A 
ATOM      7  C   UNL     1       2.004   2.505  18.120  0.00  0.00    +0.000 A 
ATOM      8  N   UNL     1       1.544   3.766  18.285  0.00  0.00    +0.000 NA
ATOM      9  C   UNL     1       2.374   4.791  18.082  0.00  0.00    +0.000 A 
ATOM     10  N   UNL     1       1.898   6.028  18.236  0.00  0.00    +0.000 NA
ENDROOT
BRANCH   1  18
ATOM     11  O   UNL     1       0.813  10.985  18.407  0.00  0.00    +0.000 OA
ATOM     12  C   UNL     1       0.915  10.201  19.335  0.00  0.00    +0.000 C 
ATOM     13  N   UNL     1       0.437  10.416  20.596  0.00  0.00    +0.000 N 
ATOM     14  C   UNL     1       0.575   9.421  21.515  0.00  0.00    +0.000 C 
ATOM     15  S   UNL     1       0.029   9.527  23.073  0.00  0.00    +0.000 S 
ATOM     16  S   UNL     1       1.380   8.052  20.785  0.00  0.00    +0.000 S 
ATOM     17  C   UNL     1       1.537   8.853  19.262  0.00  0.00    +0.000 C 
ATOM     18  C   UNL     1       2.112   8.396  18.143  0.00  0.00    +0.000 C 
ATOM     19  H   UNL     1      -0.028  11.283  20.820  0.00  0.00    +0.000 HD
ENDBRANCH   1  18
TORSDOF 1
ENDMDL
MODEL 6
REMARK VINA RESULT:      -6.5      5.013      5.659
REMARK  Name = 
REMARK  1 active torsions:
REMARK  status: ('A' for Active; 'I' for Inactive)
REMARK    1  A    between atoms: C_8  and  C_9
REMARK                            x       y       z     vdW  Elec       q    Type
REMARK                         _______ _______ _______ _____ _____    ______ ____
ROOT
ATOM      1  C   UNL     1       2.255   8.191  18.499  0.00  0.00    +0.000 A 
ATOM      2  C   UNL     1       1.490   9.100  17.789  0.00  0.00    +0.000 A 
ATOM      3  C   UNL     1       0.575   9.866  18.495  0.00  0.00    +0.000 A 
ATOM      4  C   UNL     1       0.464   9.692  19.879  0.00  0.00    +0.000 A 
ATOM      5  C   UNL     1      -0.429  10.457  20.644  0.00  0.00    +0.000 A 
ATOM      6  C   UNL     1      -0.501  10.251  22.012  0.00  0.00    +0.000 A 
ATOM      7  C   UNL     1       0.320   9.286  22.557  0.00  0.00    +0.000 A 
ATOM      8  N   UNL     1       1.187   8.537  21.838  0.00  0.00    +0.000 NA
ATOM      9  C   UNL     1       1.272   8.731  20.519  0.00  0.00    +0.000 A 
ATOM     10  N   UNL     1       2.143   7.993  19.828  0.00  0.00    +0.000 NA
ENDROOT
BRANCH   1  18
ATOM     11  O   UNL     1       5.329   5.770  16.560  0.00  0.00    +0.000 OA
ATOM     12  C   UNL     1       4.365   5.287  17.130  0.00  0.00    +0.000 C 
ATOM     13  N   UNL     1       4.126   3.948  17.263  0.00  0.00    +0.000 N 
ATOM     14  C   UNL     1       3.035   3.558  17.979  0.00  0.00    +0.000 C 
ATOM     15  S   UNL     1       2.627   1.977  18.243  0.00  0.00    +0.000 S 
ATOM     16  S   UNL     1       2.181   4.966  18.567  0.00  0.00    +0.000 S 
ATOM     17  C   UNL     1       3.296   6.054  17.821  0.00  0.00    +0.000 C 
ATOM     18  C   UNL     1       3.271   7.392  17.822  0.00  0.00    +0.000 C 
ATOM     19  H   UNL     1       4.762   3.278  16.860  0.00  0.00    +0.000 HD
ENDBRANCH   1  18
TORSDOF 1
ENDMDL
MODEL 7
REMARK VINA RESULT:      -6.4      5.603      6.490
REMARK  Name = 
REMARK  1 active torsions:
REMARK  status: ('A' for Active; 'I' for Inactive)
REMARK    1  A    between atoms: C_8  and  C_9
REMARK                            x       y       z     vdW  Elec       q    Type
REMARK                         _______ _______ _______ _____ _____    ______ ____
ROOT
ATOM      1  C   UNL     1       1.859   6.776  20.196  0.00  0.00    +0.000 A 
ATOM      2  C   UNL     1       2.579   7.122  19.065  0.00  0.00    +0.000 A 
ATOM      3  C   UNL     1       2.876   6.118  18.156  0.00  0.00    +0.000 A 
ATOM      4  C   UNL     1       2.440   4.813  18.414  0.00  0.00    +0.000 A 
ATOM      5  C   UNL     1       2.693   3.766  17.517  0.00  0.00    +0.000 A 
ATOM      6  C   UNL     1       2.239   2.491  17.814  0.00  0.00    +0.000 A 
ATOM      7  C   UNL     1       1.555   2.317  19.000  0.00  0.00    +0.000 A 
ATOM      8  N   UNL     1       1.301   3.313  19.879  0.00  0.00    +0.000 NA
ATOM      9  C   UNL     1       1.726   4.548  19.600  0.00  0.00    +0.000 A 
ATOM     10  N   UNL     1       1.454   5.520  20.473  0.00  0.00    +0.000 NA
ENDROOT
BRANCH   1  18
ATOM     11  O   UNL     1       0.776   9.885  23.066  0.00  0.00    +0.000 OA
ATOM     12  C   UNL     1       0.637  10.015  21.862  0.00  0.00    +0.000 C 
ATOM     13  N   UNL     1       0.157  11.138  21.248  0.00  0.00    +0.000 N 
ATOM     14  C   UNL     1       0.113  11.158  19.887  0.00  0.00    +0.000 C 
ATOM     15  S   UNL     1      -0.423  12.450  19.005  0.00  0.00    +0.000 S 
ATOM     16  S   UNL     1       0.720   9.645  19.256  0.00  0.00    +0.000 S 
ATOM     17  C   UNL     1       1.000   9.004  20.835  0.00  0.00    +0.000 C 
ATOM     18  C   UNL     1       1.472   7.796  21.165  0.00  0.00    +0.000 C 
ATOM     19  H   UNL     1      -0.130  11.933  21.799  0.00  0.00    +0.000 HD
ENDBRANCH   1  18
TORSDOF 1
ENDMDL
MODEL 8
REMARK VINA RESULT:      -6.4      3.329      4.393
REMARK  Name = 
REMARK  1 active torsions:
REMARK  status: ('A' for Active; 'I' for Inactive)
REMARK    1  A    between atoms: C_8  and  C_9
REMARK                            x       y       z     vdW  Elec       q    Type
REMARK                         _______ _______ _______ _____ _____    ______ ____
ROOT
ATOM      1  C   UNL     1       6.020   5.585  16.828  0.00  0.00    +0.000 A 
ATOM      2  C   UNL     1       6.196   4.576  17.760  0.00  0.00    +0.000 A 
ATOM      3  C   UNL     1       5.300   4.507  18.815  0.00  0.00    +0.000 A 
ATOM      4  C   UNL     1       4.266   5.446  18.895  0.00  0.00    +0.000 A 
ATOM      5  C   UNL     1       3.319   5.407  19.929  0.00  0.00    +0.000 A 
ATOM      6  C   UNL     1       2.311   6.358  19.964  0.00  0.00    +0.000 A 
ATOM      7  C   UNL     1       2.296   7.309  18.965  0.00  0.00    +0.000 A 
ATOM      8  N   UNL     1       3.200   7.365  17.960  0.00  0.00    +0.000 NA
ATOM      9  C   UNL     1       4.171   6.451  17.910  0.00  0.00    +0.000 A 
ATOM     10  N   UNL     1       5.045   6.513  16.904  0.00  0.00    +0.000 NA
ENDROOT
BRANCH   1  18
ATOM     11  O   UNL     1       8.684   5.778  13.373  0.00  0.00    +0.000 OA
ATOM     12  C   UNL     1       7.686   5.077  13.404  0.00  0.00    +0.000 C 
ATOM     13  N   UNL     1       7.281   4.250  12.395  0.00  0.00    +0.000 N 
ATOM     14  C   UNL     1       6.175   3.482  12.598  0.00  0.00    +0.000 C 
ATOM     15  S   UNL     1       5.576   2.420  11.479  0.00  0.00    +0.000 S 
ATOM     16  S   UNL     1       5.532   3.784  14.195  0.00  0.00    +0.000 S 
ATOM     17  C   UNL     1       6.751   4.955  14.553  0.00  0.00    +0.000 C 
ATOM     18  C   UNL     1       6.899   5.680  15.668  0.00  0.00    +0.000 C 
ATOM     19  H   UNL     1       7.811   4.199  11.538  0.00  0.00    +0.000 HD
ENDBRANCH   1  18
TORSDOF 1
ENDMDL
MODEL 9
REMARK VINA RESULT:      -6.4      7.323      8.217
REMARK  Name = 
REMARK  1 active torsions:
REMARK  status: ('A' for Active; 'I' for Inactive)
REMARK    1  A    between atoms: C_8  and  C_9
REMARK                            x       y       z     vdW  Elec       q    Type
REMARK                         _______ _______ _______ _____ _____    ______ ____
ROOT
ATOM      1  C   UNL     1       1.191   9.594  19.189  0.00  0.00    +0.000 A 
ATOM      2  C   UNL     1       1.852   9.578  17.972  0.00  0.00    +0.000 A 
ATOM      3  C   UNL     1       2.551   8.430  17.632  0.00  0.00    +0.000 A 
ATOM      4  C   UNL     1       2.558   7.347  18.519  0.00  0.00    +0.000 A 
ATOM      5  C   UNL     1       3.229   6.154  18.213  0.00  0.00    +0.000 A 
ATOM      6  C   UNL     1       3.205   5.109  19.122  0.00  0.00    +0.000 A 
ATOM      7  C   UNL     1       2.514   5.303  20.300  0.00  0.00    +0.000 A 
ATOM      8  N   UNL     1       1.861   6.444  20.615  0.00  0.00    +0.000 NA
ATOM      9  C   UNL     1       1.869   7.457  19.745  0.00  0.00    +0.000 A 
ATOM     10  N   UNL     1       1.208   8.570  20.066  0.00  0.00    +0.000 NA
ENDROOT
BRANCH   1  18
ATOM     11  O   UNL     1      -1.169  13.105  20.275  0.00  0.00    +0.000 OA
ATOM     12  C   UNL     1      -1.544  12.279  19.460  0.00  0.00    +0.000 C 
ATOM     13  N   UNL     1      -2.719  12.344  18.766  0.00  0.00    +0.000 N 
ATOM     14  C   UNL     1      -2.976  11.376  17.844  0.00  0.00    +0.000 C 
ATOM     15  S   UNL     1      -4.344  11.333  16.914  0.00  0.00    +0.000 S 
ATOM     16  S   UNL     1      -1.649  10.239  17.798  0.00  0.00    +0.000 S 
ATOM     17  C   UNL     1      -0.783  11.075  19.037  0.00  0.00    +0.000 C 
ATOM     18  C   UNL     1       0.397  10.753  19.581  0.00  0.00    +0.000 C 
ATOM     19  H   UNL     1      -3.358  13.109  18.923  0.00  0.00    +0.000 HD
ENDBRANCH   1  18
TORSDOF 1
ENDMDL
