MODEL 1
REMARK VINA RESULT:      -8.0      0.000      0.000
REMARK  Name = 
REMARK  12 active torsions:
REMARK  status: ('A' for Active; 'I' for Inactive)
REMARK    1  A    between atoms: C_1  and  O_2
REMARK    2  A    between atoms: O_2  and  C_3
REMARK    3  A    between atoms: C_6  and  C_7
REMARK    4  A    between atoms: C_7  and  C_14
REMARK    5  A    between atoms: N_8  and  O_9
REMARK    6  A    between atoms: O_9  and  C_10
REMARK    7  A    between atoms: C_10  and  C_11
REMARK    8  A    between atoms: C_11  and  O_13
REMARK    9  A    between atoms: C_24  and  O_25
REMARK   10  A    between atoms: O_25  and  C_26
REMARK   11  A    between atoms: C_27  and  O_28
REMARK   12  A    between atoms: O_28  and  C_29
REMARK                            x       y       z     vdW  Elec       q    Type
REMARK                         _______ _______ _______ _____ _____    ______ ____
ROOT
ATOM      1  C   UNL     1       3.168   5.551  18.005  0.00  0.00    +0.000 C 
ATOM      2  N   UNL     1       2.314   4.634  17.620  0.00  0.00    +0.000 NA
ENDROOT
BRANCH   1   3
ATOM      3  C   UNL     1       4.687   5.392  17.899  0.00  0.00    +0.000 A 
ATOM      4  C   UNL     1       5.379   5.380  19.130  0.00  0.00    +0.000 A 
ATOM      5  C   UNL     1       6.763   5.351  19.197  0.00  0.00    +0.000 A 
ATOM      6  C   UNL     1       7.492   5.227  18.026  0.00  0.00    +0.000 A 
ATOM      7  C   UNL     1       6.853   5.113  16.786  0.00  0.00    +0.000 A 
ATOM      8  C   UNL     1       7.648   4.882  15.652  0.00  0.00    +0.000 A 
ATOM      9  C   UNL     1       7.076   4.677  14.405  0.00  0.00    +0.000 A 
ATOM     10  C   UNL     1       5.698   4.755  14.267  0.00  0.00    +0.000 A 
ATOM     11  C   UNL     1       4.902   5.063  15.374  0.00  0.00    +0.000 A 
ATOM     12  C   UNL     1       5.432   5.197  16.687  0.00  0.00    +0.000 A 
ENDBRANCH   1   3
BRANCH   1  16
ATOM     13  C   UNL     1       1.434   9.333  19.229  0.00  0.00    +0.000 A 
ATOM     14  C   UNL     1       1.997   9.154  17.963  0.00  0.00    +0.000 A 
ATOM     15  C   UNL     1       2.481   7.916  17.563  0.00  0.00    +0.000 A 
ATOM     16  C   UNL     1       2.564   6.861  18.473  0.00  0.00    +0.000 A 
ATOM     17  C   UNL     1       2.080   7.047  19.798  0.00  0.00    +0.000 A 
ATOM     18  C   UNL     1       1.482   8.283  20.173  0.00  0.00    +0.000 A 
BRANCH  13  20
ATOM     19  C   UNL     1      -0.266  10.958  18.889  0.00  0.00    +0.000 C 
ATOM     20  O   UNL     1       0.904  10.546  19.589  0.00  0.00    +0.000 OA
ENDBRANCH  13  20
BRANCH  17  21
ATOM     21  O   UNL     1       2.354   6.025  20.682  0.00  0.00    +0.000 OA
ATOM     22  C   UNL     1       1.410   4.970  20.811  0.00  0.00    +0.000 C 
ENDBRANCH  17  21
BRANCH  18  23
ATOM     23  O   UNL     1       1.065   8.386  21.480  0.00  0.00    +0.000 OA
ATOM     24  C   UNL     1      -0.325   8.439  21.773  0.00  0.00    +0.000 C 
ENDBRANCH  18  23
ENDBRANCH   1  16
BRANCH   2  25
ATOM     25  O   UNL     1       2.882   3.398  17.285  0.00  0.00    +0.000 OA
BRANCH  25  26
ATOM     26  C   UNL     1       2.390   2.403  18.189  0.00  0.00    +0.000 C 
BRANCH  26  27
ATOM     27  C   UNL     1       3.569   1.801  18.939  0.00  0.00    +0.000 C 
ATOM     28  O   UNL     1       4.067   2.302  19.941  0.00  0.00    +0.000 OA
BRANCH  27  29
ATOM     29  O   UNL     1       4.036   0.658  18.386  0.00  0.00    +0.000 OA
ATOM     30  H   UNL     1       3.935   0.682  17.409  0.00  0.00    +0.000 HD
ENDBRANCH  27  29
ENDBRANCH  26  27
ENDBRANCH  25  26
ENDBRANCH   2  25
TORSDOF 9
ENDMDL
MODEL 2
REMARK VINA RESULT:      -7.3      0.677      2.053
REMARK  Name = 
REMARK  12 active torsions:
REMARK  status: ('A' for Active; 'I' for Inactive)
REMARK    1  A    between atoms: C_1  and  O_2
REMARK    2  A    between atoms: O_2  and  C_3
REMARK    3  A    between atoms: C_6  and  C_7
REMARK    4  A    between atoms: C_7  and  C_14
REMARK    5  A    between atoms: N_8  and  O_9
REMARK    6  A    between atoms: O_9  and  C_10
REMARK    7  A    between atoms: C_10  and  C_11
REMARK    8  A    between atoms: C_11  and  O_13
REMARK    9  A    between atoms: C_24  and  O_25
REMARK   10  A    between atoms: O_25  and  C_26
REMARK   11  A    between atoms: C_27  and  O_28
REMARK   12  A    between atoms: O_28  and  C_29
REMARK                            x       y       z     vdW  Elec       q    Type
REMARK                         _______ _______ _______ _____ _____    ______ ____
ROOT
ATOM      1  C   UNL     1       2.917   5.066  17.655  0.00  0.00    +0.000 C 
ATOM      2  N   UNL     1       1.970   4.160  17.638  0.00  0.00    +0.000 NA
ENDROOT
BRANCH   1   3
ATOM      3  C   UNL     1       4.321   4.834  17.090  0.00  0.00    +0.000 A 
ATOM      4  C   UNL     1       4.374   4.537  15.711  0.00  0.00    +0.000 A 
ATOM      5  C   UNL     1       5.559   4.198  15.075  0.00  0.00    +0.000 A 
ATOM      6  C   UNL     1       6.745   4.249  15.788  0.00  0.00    +0.000 A 
ATOM      7  C   UNL     1       6.766   4.654  17.127  0.00  0.00    +0.000 A 
ATOM      8  C   UNL     1       8.013   4.787  17.759  0.00  0.00    +0.000 A 
ATOM      9  C   UNL     1       8.112   5.262  19.058  0.00  0.00    +0.000 A 
ATOM     10  C   UNL     1       6.956   5.561  19.764  0.00  0.00    +0.000 A 
ATOM     11  C   UNL     1       5.705   5.357  19.173  0.00  0.00    +0.000 A 
ATOM     12  C   UNL     1       5.554   4.953  17.818  0.00  0.00    +0.000 A 
ENDBRANCH   1   3
BRANCH   1  16
ATOM     13  C   UNL     1       1.754   9.011  19.030  0.00  0.00    +0.000 A 
ATOM     14  C   UNL     1       2.181   8.782  17.720  0.00  0.00    +0.000 A 
ATOM     15  C   UNL     1       2.479   7.500  17.277  0.00  0.00    +0.000 A 
ATOM     16  C   UNL     1       2.515   6.432  18.175  0.00  0.00    +0.000 A 
ATOM     17  C   UNL     1       2.173   6.658  19.538  0.00  0.00    +0.000 A 
ATOM     18  C   UNL     1       1.760   7.952  19.965  0.00  0.00    +0.000 A 
BRANCH  13  20
ATOM     19  C   UNL     1       0.180  10.788  18.921  0.00  0.00    +0.000 C 
ATOM     20  O   UNL     1       1.405  10.274  19.436  0.00  0.00    +0.000 OA
ENDBRANCH  13  20
BRANCH  17  21
ATOM     21  O   UNL     1       2.400   5.602  20.393  0.00  0.00    +0.000 OA
ATOM     22  C   UNL     1       1.312   4.746  20.717  0.00  0.00    +0.000 C 
ENDBRANCH  17  21
BRANCH  18  23
ATOM     23  O   UNL     1       1.473   8.088  21.304  0.00  0.00    +0.000 OA
ATOM     24  C   UNL     1       0.127   8.280  21.719  0.00  0.00    +0.000 C 
ENDBRANCH  18  23
ENDBRANCH   1  16
BRANCH   2  25
ATOM     25  O   UNL     1       2.382   2.879  17.249  0.00  0.00    +0.000 OA
BRANCH  25  26
ATOM     26  C   UNL     1       2.240   1.989  18.362  0.00  0.00    +0.000 C 
BRANCH  26  27
ATOM     27  C   UNL     1       3.616   1.732  18.957  0.00  0.00    +0.000 C 
ATOM     28  O   UNL     1       4.065   2.342  19.922  0.00  0.00    +0.000 OA
BRANCH  27  29
ATOM     29  O   UNL     1       4.315   0.771  18.312  0.00  0.00    +0.000 OA
ATOM     30  H   UNL     1       4.608   0.077  18.943  0.00  0.00    +0.000 HD
ENDBRANCH  27  29
ENDBRANCH  26  27
ENDBRANCH  25  26
ENDBRANCH   2  25
TORSDOF 9
ENDMDL
MODEL 3
REMARK VINA RESULT:      -7.0      5.271      8.209
REMARK  Name = 
REMARK  12 active torsions:
REMARK  status: ('A' for Active; 'I' for Inactive)
REMARK    1  A    between atoms: C_1  and  O_2
REMARK    2  A    between atoms: O_2  and  C_3
REMARK    3  A    between atoms: C_6  and  C_7
REMARK    4  A    between atoms: C_7  and  C_14
REMARK    5  A    between atoms: N_8  and  O_9
REMARK    6  A    between atoms: O_9  and  C_10
REMARK    7  A    between atoms: C_10  and  C_11
REMARK    8  A    between atoms: C_11  and  O_13
REMARK    9  A    between atoms: C_24  and  O_25
REMARK   10  A    between atoms: O_25  and  C_26
REMARK   11  A    between atoms: C_27  and  O_28
REMARK   12  A    between atoms: O_28  and  C_29
REMARK                            x       y       z     vdW  Elec       q    Type
REMARK                         _______ _______ _______ _____ _____    ______ ____
ROOT
ATOM      1  C   UNL     1      -0.153  11.861  18.845  0.00  0.00    +0.000 C 
ATOM      2  N   UNL     1      -1.191  11.822  18.044  0.00  0.00    +0.000 NA
ENDROOT
BRANCH   1   3
ATOM      3  C   UNL     1       0.251  10.705  19.764  0.00  0.00    +0.000 A 
ATOM      4  C   UNL     1      -0.267  10.769  21.076  0.00  0.00    +0.000 A 
ATOM      5  C   UNL     1       0.093   9.856  22.056  0.00  0.00    +0.000 A 
ATOM      6  C   UNL     1       0.905   8.787  21.716  0.00  0.00    +0.000 A 
ATOM      7  C   UNL     1       1.350   8.608  20.401  0.00  0.00    +0.000 A 
ATOM      8  C   UNL     1       2.081   7.447  20.103  0.00  0.00    +0.000 A 
ATOM      9  C   UNL     1       2.483   7.165  18.806  0.00  0.00    +0.000 A 
ATOM     10  C   UNL     1       2.202   8.072  17.794  0.00  0.00    +0.000 A 
ATOM     11  C   UNL     1       1.545   9.269  18.093  0.00  0.00    +0.000 A 
ATOM     12  C   UNL     1       1.040   9.564  19.389  0.00  0.00    +0.000 A 
ENDBRANCH   1   3
BRANCH   1  16
ATOM     13  C   UNL     1       2.420  15.331  18.472  0.00  0.00    +0.000 A 
ATOM     14  C   UNL     1       2.886  14.037  18.228  0.00  0.00    +0.000 A 
ATOM     15  C   UNL     1       2.029  12.946  18.281  0.00  0.00    +0.000 A 
ATOM     16  C   UNL     1       0.719  13.096  18.737  0.00  0.00    +0.000 A 
ATOM     17  C   UNL     1       0.248  14.394  19.081  0.00  0.00    +0.000 A 
ATOM     18  C   UNL     1       1.094  15.527  18.919  0.00  0.00    +0.000 A 
BRANCH  13  20
ATOM     19  C   UNL     1       4.264  16.537  19.361  0.00  0.00    +0.000 C 
ATOM     20  O   UNL     1       3.264  16.407  18.356  0.00  0.00    +0.000 OA
ENDBRANCH  13  20
BRANCH  17  21
ATOM     21  O   UNL     1      -0.990  14.439  19.685  0.00  0.00    +0.000 OA
ATOM     22  C   UNL     1      -1.052  14.440  21.106  0.00  0.00    +0.000 C 
ENDBRANCH  17  21
BRANCH  18  23
ATOM     23  O   UNL     1       0.568  16.740  19.300  0.00  0.00    +0.000 OA
ATOM     24  C   UNL     1      -0.110  17.543  18.344  0.00  0.00    +0.000 C 
ENDBRANCH  18  23
ENDBRANCH   1  16
BRANCH   2  25
ATOM     25  O   UNL     1      -2.039  10.722  18.226  0.00  0.00    +0.000 OA
BRANCH  25  26
ATOM     26  C   UNL     1      -2.103   9.982  17.002  0.00  0.00    +0.000 C 
BRANCH  26  27
ATOM     27  C   UNL     1      -2.887  10.794  15.983  0.00  0.00    +0.000 C 
ATOM     28  O   UNL     1      -2.898  10.551  14.781  0.00  0.00    +0.000 OA
BRANCH  27  29
ATOM     29  O   UNL     1      -3.567  11.831  16.523  0.00  0.00    +0.000 OA
ATOM     30  H   UNL     1      -3.946  11.578  17.393  0.00  0.00    +0.000 HD
ENDBRANCH  27  29
ENDBRANCH  26  27
ENDBRANCH  25  26
ENDBRANCH   2  25
TORSDOF 9
ENDMDL
MODEL 4
REMARK VINA RESULT:      -6.8      5.582      8.518
REMARK  Name = 
REMARK  12 active torsions:
REMARK  status: ('A' for Active; 'I' for Inactive)
REMARK    1  A    between atoms: C_1  and  O_2
REMARK    2  A    between atoms: O_2  and  C_3
REMARK    3  A    between atoms: C_6  and  C_7
REMARK    4  A    between atoms: C_7  and  C_14
REMARK    5  A    between atoms: N_8  and  O_9
REMARK    6  A    between atoms: O_9  and  C_10
REMARK    7  A    between atoms: C_10  and  C_11
REMARK    8  A    between atoms: C_11  and  O_13
REMARK    9  A    between atoms: C_24  and  O_25
REMARK   10  A    between atoms: O_25  and  C_26
REMARK   11  A    between atoms: C_27  and  O_28
REMARK   12  A    between atoms: O_28  and  C_29
REMARK                            x       y       z     vdW  Elec       q    Type
REMARK                         _______ _______ _______ _____ _____    ______ ____
ROOT
ATOM      1  C   UNL     1      -0.755  11.977  19.607  0.00  0.00    +0.000 C 
ATOM      2  N   UNL     1      -0.132  13.121  19.463  0.00  0.00    +0.000 NA
ENDROOT
BRANCH   1   3
ATOM      3  C   UNL     1      -0.143  10.761  20.309  0.00  0.00    +0.000 A 
ATOM      4  C   UNL     1      -0.512  10.598  21.662  0.00  0.00    +0.000 A 
ATOM      5  C   UNL     1       0.041   9.609  22.462  0.00  0.00    +0.000 A 
ATOM      6  C   UNL     1       0.905   8.687  21.895  0.00  0.00    +0.000 A 
ATOM      7  C   UNL     1       1.211   8.730  20.530  0.00  0.00    +0.000 A 
ATOM      8  C   UNL     1       2.008   7.703  19.999  0.00  0.00    +0.000 A 
ATOM      9  C   UNL     1       2.283   7.637  18.641  0.00  0.00    +0.000 A 
ATOM     10  C   UNL     1       1.806   8.632  17.801  0.00  0.00    +0.000 A 
ATOM     11  C   UNL     1       1.079   9.703  18.330  0.00  0.00    +0.000 A 
ATOM     12  C   UNL     1       0.700   9.771  19.699  0.00  0.00    +0.000 A 
ENDBRANCH   1   3
BRANCH   1  16
ATOM     13  C   UNL     1      -4.837  11.804  18.152  0.00  0.00    +0.000 A 
ATOM     14  C   UNL     1      -3.755  11.401  17.366  0.00  0.00    +0.000 A 
ATOM     15  C   UNL     1      -2.463  11.394  17.874  0.00  0.00    +0.000 A 
ATOM     16  C   UNL     1      -2.194  11.943  19.129  0.00  0.00    +0.000 A 
ATOM     17  C   UNL     1      -3.269  12.446  19.913  0.00  0.00    +0.000 A 
ATOM     18  C   UNL     1      -4.607  12.349  19.436  0.00  0.00    +0.000 A 
BRANCH  13  20
ATOM     19  C   UNL     1      -6.589  12.916  16.995  0.00  0.00    +0.000 C 
ATOM     20  O   UNL     1      -6.115  11.748  17.658  0.00  0.00    +0.000 OA
ENDBRANCH  13  20
BRANCH  17  21
ATOM     21  O   UNL     1      -2.907  13.125  21.056  0.00  0.00    +0.000 OA
ATOM     22  C   UNL     1      -2.941  14.547  21.039  0.00  0.00    +0.000 C 
ENDBRANCH  17  21
BRANCH  18  23
ATOM     23  O   UNL     1      -5.583  12.883  20.246  0.00  0.00    +0.000 OA
ATOM     24  C   UNL     1      -6.361  12.025  21.069  0.00  0.00    +0.000 C 
ENDBRANCH  18  23
ENDBRANCH   1  16
BRANCH   2  25
ATOM     25  O   UNL     1       1.223  13.107  19.818  0.00  0.00    +0.000 OA
BRANCH  25  26
ATOM     26  C   UNL     1       1.847  14.290  19.307  0.00  0.00    +0.000 C 
BRANCH  26  27
ATOM     27  C   UNL     1       2.834  13.888  18.221  0.00  0.00    +0.000 C 
ATOM     28  O   UNL     1       3.887  14.479  18.005  0.00  0.00    +0.000 OA
BRANCH  27  29
ATOM     29  O   UNL     1       2.435  12.820  17.494  0.00  0.00    +0.000 OA
ATOM     30  H   UNL     1       2.247  12.055  18.081  0.00  0.00    +0.000 HD
ENDBRANCH  27  29
ENDBRANCH  26  27
ENDBRANCH  25  26
ENDBRANCH   2  25
TORSDOF 9
ENDMDL
MODEL 5
REMARK VINA RESULT:      -6.8      0.919      1.279
REMARK  Name = 
REMARK  12 active torsions:
REMARK  status: ('A' for Active; 'I' for Inactive)
REMARK    1  A    between atoms: C_1  and  O_2
REMARK    2  A    between atoms: O_2  and  C_3
REMARK    3  A    between atoms: C_6  and  C_7
REMARK    4  A    between atoms: C_7  and  C_14
REMARK    5  A    between atoms: N_8  and  O_9
REMARK    6  A    between atoms: O_9  and  C_10
REMARK    7  A    between atoms: C_10  and  C_11
REMARK    8  A    between atoms: C_11  and  O_13
REMARK    9  A    between atoms: C_24  and  O_25
REMARK   10  A    between atoms: O_25  and  C_26
REMARK   11  A    between atoms: C_27  and  O_28
REMARK   12  A    between atoms: O_28  and  C_29
REMARK                            x       y       z     vdW  Elec       q    Type
REMARK                         _______ _______ _______ _____ _____    ______ ____
ROOT
ATOM      1  C   UNL     1       3.732   5.343  18.745  0.00  0.00    +0.000 C 
ATOM      2  N   UNL     1       3.057   4.249  18.998  0.00  0.00    +0.000 NA
ENDROOT
BRANCH   1   3
ATOM      3  C   UNL     1       5.186   5.350  18.263  0.00  0.00    +0.000 A 
ATOM      4  C   UNL     1       6.154   5.560  19.268  0.00  0.00    +0.000 A 
ATOM      5  C   UNL     1       7.502   5.699  18.976  0.00  0.00    +0.000 A 
ATOM      6  C   UNL     1       7.930   5.525  17.670  0.00  0.00    +0.000 A 
ATOM      7  C   UNL     1       7.028   5.196  16.653  0.00  0.00    +0.000 A 
ATOM      8  C   UNL     1       7.543   4.928  15.374  0.00  0.00    +0.000 A 
ATOM      9  C   UNL     1       6.716   4.516  14.339  0.00  0.00    +0.000 A 
ATOM     10  C   UNL     1       5.350   4.417  14.558  0.00  0.00    +0.000 A 
ATOM     11  C   UNL     1       4.816   4.758  15.804  0.00  0.00    +0.000 A 
ATOM     12  C   UNL     1       5.629   5.103  16.919  0.00  0.00    +0.000 A 
ENDBRANCH   1   3
BRANCH   1  16
ATOM     13  C   UNL     1       1.525   9.072  18.928  0.00  0.00    +0.000 A 
ATOM     14  C   UNL     1       2.417   8.792  17.890  0.00  0.00    +0.000 A 
ATOM     15  C   UNL     1       3.059   7.564  17.809  0.00  0.00    +0.000 A 
ATOM     16  C   UNL     1       2.953   6.640  18.850  0.00  0.00    +0.000 A 
ATOM     17  C   UNL     1       2.121   6.942  19.965  0.00  0.00    +0.000 A 
ATOM     18  C   UNL     1       1.376   8.154  19.991  0.00  0.00    +0.000 A 
BRANCH  13  20
ATOM     19  C   UNL     1      -0.434  10.286  18.348  0.00  0.00    +0.000 C 
ATOM     20  O   UNL     1       0.851  10.266  18.962  0.00  0.00    +0.000 OA
ENDBRANCH  13  20
BRANCH  17  21
ATOM     21  O   UNL     1       2.204   6.065  21.025  0.00  0.00    +0.000 OA
ATOM     22  C   UNL     1       1.327   4.946  21.049  0.00  0.00    +0.000 C 
ENDBRANCH  17  21
BRANCH  18  23
ATOM     23  O   UNL     1       0.618   8.378  21.118  0.00  0.00    +0.000 OA
ATOM     24  C   UNL     1       1.154   9.151  22.183  0.00  0.00    +0.000 C 
ENDBRANCH  18  23
ENDBRANCH   1  16
BRANCH   2  25
ATOM     25  O   UNL     1       3.814   3.071  18.994  0.00  0.00    +0.000 OA
BRANCH  25  26
ATOM     26  C   UNL     1       2.925   1.950  18.938  0.00  0.00    +0.000 C 
BRANCH  26  27
ATOM     27  C   UNL     1       1.716   2.330  18.096  0.00  0.00    +0.000 C 
ATOM     28  O   UNL     1       0.557   2.230  18.485  0.00  0.00    +0.000 OA
BRANCH  27  29
ATOM     29  O   UNL     1       2.034   2.777  16.861  0.00  0.00    +0.000 OA
ATOM     30  H   UNL     1       2.426   3.677  16.911  0.00  0.00    +0.000 HD
ENDBRANCH  27  29
ENDBRANCH  26  27
ENDBRANCH  25  26
ENDBRANCH   2  25
TORSDOF 9
ENDMDL
MODEL 6
REMARK VINA RESULT:      -6.7      4.997      8.054
REMARK  Name = 
REMARK  12 active torsions:
REMARK  status: ('A' for Active; 'I' for Inactive)
REMARK    1  A    between atoms: C_1  and  O_2
REMARK    2  A    between atoms: O_2  and  C_3
REMARK    3  A    between atoms: C_6  and  C_7
REMARK    4  A    between atoms: C_7  and  C_14
REMARK    5  A    between atoms: N_8  and  O_9
REMARK    6  A    between atoms: O_9  and  C_10
REMARK    7  A    between atoms: C_10  and  C_11
REMARK    8  A    between atoms: C_11  and  O_13
REMARK    9  A    between atoms: C_24  and  O_25
REMARK   10  A    between atoms: O_25  and  C_26
REMARK   11  A    between atoms: C_27  and  O_28
REMARK   12  A    between atoms: O_28  and  C_29
REMARK                            x       y       z     vdW  Elec       q    Type
REMARK                         _______ _______ _______ _____ _____    ______ ____
ROOT
ATOM      1  C   UNL     1      -0.306  11.416  18.884  0.00  0.00    +0.000 C 
ATOM      2  N   UNL     1      -1.338  11.314  18.082  0.00  0.00    +0.000 NA
ENDROOT
BRANCH   1   3
ATOM      3  C   UNL     1       0.215  10.261  19.745  0.00  0.00    +0.000 A 
ATOM      4  C   UNL     1      -0.292  10.215  21.062  0.00  0.00    +0.000 A 
ATOM      5  C   UNL     1       0.162   9.296  21.995  0.00  0.00    +0.000 A 
ATOM      6  C   UNL     1       1.068   8.325  21.599  0.00  0.00    +0.000 A 
ATOM      7  C   UNL     1       1.512   8.250  20.275  0.00  0.00    +0.000 A 
ATOM      8  C   UNL     1       2.346   7.178  19.917  0.00  0.00    +0.000 A 
ATOM      9  C   UNL     1       2.757   6.995  18.605  0.00  0.00    +0.000 A 
ATOM     10  C   UNL     1       2.382   7.918  17.639  0.00  0.00    +0.000 A 
ATOM     11  C   UNL     1       1.619   9.033  17.999  0.00  0.00    +0.000 A 
ATOM     12  C   UNL     1       1.103   9.219  19.311  0.00  0.00    +0.000 A 
ENDBRANCH   1   3
BRANCH   1  16
ATOM     13  C   UNL     1       1.910  15.138  18.686  0.00  0.00    +0.000 A 
ATOM     14  C   UNL     1       2.506  13.908  18.397  0.00  0.00    +0.000 A 
ATOM     15  C   UNL     1       1.762  12.735  18.394  0.00  0.00    +0.000 A 
ATOM     16  C   UNL     1       0.439  12.736  18.838  0.00  0.00    +0.000 A 
ATOM     17  C   UNL     1      -0.163  13.965  19.228  0.00  0.00    +0.000 A 
ATOM     18  C   UNL     1       0.567  15.182  19.123  0.00  0.00    +0.000 A 
BRANCH  13  20
ATOM     19  C   UNL     1       2.767  16.900  17.342  0.00  0.00    +0.000 C 
ATOM     20  O   UNL     1       2.643  16.296  18.626  0.00  0.00    +0.000 OA
ENDBRANCH  13  20
BRANCH  17  21
ATOM     21  O   UNL     1      -1.405  13.860  19.816  0.00  0.00    +0.000 OA
ATOM     22  C   UNL     1      -1.480  13.800  21.234  0.00  0.00    +0.000 C 
ENDBRANCH  17  21
BRANCH  18  23
ATOM     23  O   UNL     1      -0.082  16.319  19.545  0.00  0.00    +0.000 OA
ATOM     24  C   UNL     1      -0.819  17.096  18.611  0.00  0.00    +0.000 C 
ENDBRANCH  18  23
ENDBRANCH   1  16
BRANCH   2  25
ATOM     25  O   UNL     1      -2.072  10.128  18.209  0.00  0.00    +0.000 OA
BRANCH  25  26
ATOM     26  C   UNL     1      -3.035  10.066  17.151  0.00  0.00    +0.000 C 
BRANCH  26  27
ATOM     27  C   UNL     1      -4.232  10.924  17.531  0.00  0.00    +0.000 C 
ATOM     28  O   UNL     1      -5.186  10.513  18.182  0.00  0.00    +0.000 OA
BRANCH  27  29
ATOM     29  O   UNL     1      -4.158  12.193  17.069  0.00  0.00    +0.000 OA
ATOM     30  H   UNL     1      -3.443  12.275  16.399  0.00  0.00    +0.000 HD
ENDBRANCH  27  29
ENDBRANCH  26  27
ENDBRANCH  25  26
ENDBRANCH   2  25
TORSDOF 9
ENDMDL
MODEL 7
REMARK VINA RESULT:      -6.7      5.645      8.674
REMARK  Name = 
REMARK  12 active torsions:
REMARK  status: ('A' for Active; 'I' for Inactive)
REMARK    1  A    between atoms: C_1  and  O_2
REMARK    2  A    between atoms: O_2  and  C_3
REMARK    3  A    between atoms: C_6  and  C_7
REMARK    4  A    between atoms: C_7  and  C_14
REMARK    5  A    between atoms: N_8  and  O_9
REMARK    6  A    between atoms: O_9  and  C_10
REMARK    7  A    between atoms: C_10  and  C_11
REMARK    8  A    between atoms: C_11  and  O_13
REMARK    9  A    between atoms: C_24  and  O_25
REMARK   10  A    between atoms: O_25  and  C_26
REMARK   11  A    between atoms: C_27  and  O_28
REMARK   12  A    between atoms: O_28  and  C_29
REMARK                            x       y       z     vdW  Elec       q    Type
REMARK                         _______ _______ _______ _____ _____    ______ ____
ROOT
ATOM      1  C   UNL     1      -0.695  11.967  19.608  0.00  0.00    +0.000 C 
ATOM      2  N   UNL     1      -0.047  13.091  19.415  0.00  0.00    +0.000 NA
ENDROOT
BRANCH   1   3
ATOM      3  C   UNL     1      -0.089  10.751  20.314  0.00  0.00    +0.000 A 
ATOM      4  C   UNL     1      -0.453  10.599  21.670  0.00  0.00    +0.000 A 
ATOM      5  C   UNL     1       0.096   9.611  22.474  0.00  0.00    +0.000 A 
ATOM      6  C   UNL     1       0.950   8.679  21.909  0.00  0.00    +0.000 A 
ATOM      7  C   UNL     1       1.251   8.711  20.542  0.00  0.00    +0.000 A 
ATOM      8  C   UNL     1       2.038   7.675  20.014  0.00  0.00    +0.000 A 
ATOM      9  C   UNL     1       2.306   7.598  18.656  0.00  0.00    +0.000 A 
ATOM     10  C   UNL     1       1.833   8.592  17.811  0.00  0.00    +0.000 A 
ATOM     11  C   UNL     1       1.117   9.672  18.337  0.00  0.00    +0.000 A 
ATOM     12  C   UNL     1       0.744   9.751  19.707  0.00  0.00    +0.000 A 
ENDBRANCH   1   3
BRANCH   1  16
ATOM     13  C   UNL     1      -4.832  11.871  18.312  0.00  0.00    +0.000 A 
ATOM     14  C   UNL     1      -3.795  11.394  17.507  0.00  0.00    +0.000 A 
ATOM     15  C   UNL     1      -2.486  11.365  17.968  0.00  0.00    +0.000 A 
ATOM     16  C   UNL     1      -2.151  11.962  19.184  0.00  0.00    +0.000 A 
ATOM     17  C   UNL     1      -3.178  12.539  19.982  0.00  0.00    +0.000 A 
ATOM     18  C   UNL     1      -4.535  12.467  19.559  0.00  0.00    +0.000 A 
BRANCH  13  20
ATOM     19  C   UNL     1      -6.548  12.927  17.051  0.00  0.00    +0.000 C 
ATOM     20  O   UNL     1      -6.129  11.837  17.868  0.00  0.00    +0.000 OA
ENDBRANCH  13  20
BRANCH  17  21
ATOM     21  O   UNL     1      -2.751  13.258  21.077  0.00  0.00    +0.000 OA
ATOM     22  C   UNL     1      -2.749  14.677  20.998  0.00  0.00    +0.000 C 
ENDBRANCH  17  21
BRANCH  18  23
ATOM     23  O   UNL     1      -5.461  13.072  20.377  0.00  0.00    +0.000 OA
ATOM     24  C   UNL     1      -6.187  12.291  21.317  0.00  0.00    +0.000 C 
ENDBRANCH  18  23
ENDBRANCH   1  16
BRANCH   2  25
ATOM     25  O   UNL     1       1.319  13.047  19.719  0.00  0.00    +0.000 OA
BRANCH  25  26
ATOM     26  C   UNL     1       1.737  14.346  20.156  0.00  0.00    +0.000 C 
BRANCH  26  27
ATOM     27  C   UNL     1       1.765  14.362  21.677  0.00  0.00    +0.000 C 
ATOM     28  O   UNL     1       2.745  14.689  22.337  0.00  0.00    +0.000 OA
BRANCH  27  29
ATOM     29  O   UNL     1       0.604  13.963  22.245  0.00  0.00    +0.000 OA
ATOM     30  H   UNL     1       0.069  14.741  22.517  0.00  0.00    +0.000 HD
ENDBRANCH  27  29
ENDBRANCH  26  27
ENDBRANCH  25  26
ENDBRANCH   2  25
TORSDOF 9
ENDMDL
MODEL 8
REMARK VINA RESULT:      -6.6      5.795      8.674
REMARK  Name = 
REMARK  12 active torsions:
REMARK  status: ('A' for Active; 'I' for Inactive)
REMARK    1  A    between atoms: C_1  and  O_2
REMARK    2  A    between atoms: O_2  and  C_3
REMARK    3  A    between atoms: C_6  and  C_7
REMARK    4  A    between atoms: C_7  and  C_14
REMARK    5  A    between atoms: N_8  and  O_9
REMARK    6  A    between atoms: O_9  and  C_10
REMARK    7  A    between atoms: C_10  and  C_11
REMARK    8  A    between atoms: C_11  and  O_13
REMARK    9  A    between atoms: C_24  and  O_25
REMARK   10  A    between atoms: O_25  and  C_26
REMARK   11  A    between atoms: C_27  and  O_28
REMARK   12  A    between atoms: O_28  and  C_29
REMARK                            x       y       z     vdW  Elec       q    Type
REMARK                         _______ _______ _______ _____ _____    ______ ____
ROOT
ATOM      1  C   UNL     1      -1.010  12.214  20.202  0.00  0.00    +0.000 C 
ATOM      2  N   UNL     1      -0.383  13.313  19.858  0.00  0.00    +0.000 NA
ENDROOT
BRANCH   1   3
ATOM      3  C   UNL     1      -0.299  10.958  20.716  0.00  0.00    +0.000 A 
ATOM      4  C   UNL     1      -0.528  10.649  22.074  0.00  0.00    +0.000 A 
ATOM      5  C   UNL     1       0.127   9.608  22.714  0.00  0.00    +0.000 A 
ATOM      6  C   UNL     1       0.957   8.779  21.976  0.00  0.00    +0.000 A 
ATOM      7  C   UNL     1       1.126   8.967  20.600  0.00  0.00    +0.000 A 
ATOM      8  C   UNL     1       1.895   8.028  19.894  0.00  0.00    +0.000 A 
ATOM      9  C   UNL     1       2.038   8.106  18.517  0.00  0.00    +0.000 A 
ATOM     10  C   UNL     1       1.453   9.161  17.831  0.00  0.00    +0.000 A 
ATOM     11  C   UNL     1       0.752  10.146  18.533  0.00  0.00    +0.000 A 
ATOM     12  C   UNL     1       0.508  10.065  19.931  0.00  0.00    +0.000 A 
ENDBRANCH   1   3
BRANCH   1  16
ATOM     13  C   UNL     1      -5.339  12.467  20.216  0.00  0.00    +0.000 A 
ATOM     14  C   UNL     1      -4.580  12.732  21.359  0.00  0.00    +0.000 A 
ATOM     15  C   UNL     1      -3.192  12.717  21.317  0.00  0.00    +0.000 A 
ATOM     16  C   UNL     1      -2.524  12.279  20.172  0.00  0.00    +0.000 A 
ATOM     17  C   UNL     1      -3.280  11.915  19.023  0.00  0.00    +0.000 A 
ATOM     18  C   UNL     1      -4.698  12.038  19.033  0.00  0.00    +0.000 A 
BRANCH  13  20
ATOM     19  C   UNL     1      -7.391  11.407  20.774  0.00  0.00    +0.000 C 
ATOM     20  O   UNL     1      -6.708  12.545  20.258  0.00  0.00    +0.000 OA
ENDBRANCH  13  20
BRANCH  17  21
ATOM     21  O   UNL     1      -2.565  11.331  17.999  0.00  0.00    +0.000 OA
ATOM     22  C   UNL     1      -2.711   9.934  17.782  0.00  0.00    +0.000 C 
ENDBRANCH  17  21
BRANCH  18  23
ATOM     23  O   UNL     1      -5.352  11.640  17.889  0.00  0.00    +0.000 OA
ATOM     24  C   UNL     1      -5.930  12.616  17.033  0.00  0.00    +0.000 C 
ENDBRANCH  18  23
ENDBRANCH   1  16
BRANCH   2  25
ATOM     25  O   UNL     1       1.012  13.204  19.797  0.00  0.00    +0.000 OA
BRANCH  25  26
ATOM     26  C   UNL     1       1.522  14.265  18.981  0.00  0.00    +0.000 C 
BRANCH  26  27
ATOM     27  C   UNL     1       2.748  13.759  18.236  0.00  0.00    +0.000 C 
ATOM     28  O   UNL     1       3.886  14.168  18.440  0.00  0.00    +0.000 OA
BRANCH  27  29
ATOM     29  O   UNL     1       2.467  12.819  17.305  0.00  0.00    +0.000 OA
ATOM     30  H   UNL     1       1.502  12.793  17.122  0.00  0.00    +0.000 HD
ENDBRANCH  27  29
ENDBRANCH  26  27
ENDBRANCH  25  26
ENDBRANCH   2  25
TORSDOF 9
ENDMDL
MODEL 9
REMARK VINA RESULT:      -6.5      5.331      8.257
REMARK  Name = 
REMARK  12 active torsions:
REMARK  status: ('A' for Active; 'I' for Inactive)
REMARK    1  A    between atoms: C_1  and  O_2
REMARK    2  A    between atoms: O_2  and  C_3
REMARK    3  A    between atoms: C_6  and  C_7
REMARK    4  A    between atoms: C_7  and  C_14
REMARK    5  A    between atoms: N_8  and  O_9
REMARK    6  A    between atoms: O_9  and  C_10
REMARK    7  A    between atoms: C_10  and  C_11
REMARK    8  A    between atoms: C_11  and  O_13
REMARK    9  A    between atoms: C_24  and  O_25
REMARK   10  A    between atoms: O_25  and  C_26
REMARK   11  A    between atoms: C_27  and  O_28
REMARK   12  A    between atoms: O_28  and  C_29
REMARK                            x       y       z     vdW  Elec       q    Type
REMARK                         _______ _______ _______ _____ _____    ______ ____
ROOT
ATOM      1  C   UNL     1      -0.444  11.671  19.445  0.00  0.00    +0.000 C 
ATOM      2  N   UNL     1       0.242  12.757  19.181  0.00  0.00    +0.000 NA
ENDROOT
BRANCH   1   3
ATOM      3  C   UNL     1       0.152  10.439  20.133  0.00  0.00    +0.000 A 
ATOM      4  C   UNL     1      -0.217  10.267  21.485  0.00  0.00    +0.000 A 
ATOM      5  C   UNL     1       0.322   9.262  22.274  0.00  0.00    +0.000 A 
ATOM      6  C   UNL     1       1.173   8.334  21.695  0.00  0.00    +0.000 A 
ATOM      7  C   UNL     1       1.478   8.387  20.331  0.00  0.00    +0.000 A 
ATOM      8  C   UNL     1       2.259   7.354  19.787  0.00  0.00    +0.000 A 
ATOM      9  C   UNL     1       2.531   7.299  18.429  0.00  0.00    +0.000 A 
ATOM     10  C   UNL     1       2.067   8.309  17.600  0.00  0.00    +0.000 A 
ATOM     11  C   UNL     1       1.356   9.385  18.141  0.00  0.00    +0.000 A 
ATOM     12  C   UNL     1       0.980   9.444  19.511  0.00  0.00    +0.000 A 
ENDBRANCH   1   3
BRANCH   1  16
ATOM     13  C   UNL     1      -4.667  11.750  18.464  0.00  0.00    +0.000 A 
ATOM     14  C   UNL     1      -3.737  11.078  17.668  0.00  0.00    +0.000 A 
ATOM     15  C   UNL     1      -2.400  11.002  18.037  0.00  0.00    +0.000 A 
ATOM     16  C   UNL     1      -1.925  11.731  19.128  0.00  0.00    +0.000 A 
ATOM     17  C   UNL     1      -2.840  12.499  19.902  0.00  0.00    +0.000 A 
ATOM     18  C   UNL     1      -4.228  12.485  19.588  0.00  0.00    +0.000 A 
BRANCH  13  20
ATOM     19  C   UNL     1      -6.768  10.641  18.529  0.00  0.00    +0.000 C 
ATOM     20  O   UNL     1      -5.995  11.765  18.119  0.00  0.00    +0.000 OA
ENDBRANCH  13  20
BRANCH  17  21
ATOM     21  O   UNL     1      -2.273  13.324  20.849  0.00  0.00    +0.000 OA
ATOM     22  C   UNL     1      -2.338  12.934  22.215  0.00  0.00    +0.000 C 
ENDBRANCH  17  21
BRANCH  18  23
ATOM     23  O   UNL     1      -5.037  13.276  20.371  0.00  0.00    +0.000 OA
ATOM     24  C   UNL     1      -5.790  12.687  21.422  0.00  0.00    +0.000 C 
ENDBRANCH  18  23
ENDBRANCH   1  16
BRANCH   2  25
ATOM     25  O   UNL     1       1.623  12.650  19.387  0.00  0.00    +0.000 OA
BRANCH  25  26
ATOM     26  C   UNL     1       2.300  13.015  18.179  0.00  0.00    +0.000 C 
BRANCH  26  27
ATOM     27  C   UNL     1       3.063  14.308  18.420  0.00  0.00    +0.000 C 
ATOM     28  O   UNL     1       2.799  15.097  19.321  0.00  0.00    +0.000 OA
BRANCH  27  29
ATOM     29  O   UNL     1       4.061  14.523  17.533  0.00  0.00    +0.000 OA
ATOM     30  H   UNL     1       4.441  13.669  17.229  0.00  0.00    +0.000 HD
ENDBRANCH  27  29
ENDBRANCH  26  27
ENDBRANCH  25  26
ENDBRANCH   2  25
TORSDOF 9
ENDMDL
