MODEL 1
REMARK VINA RESULT:      -7.9      0.000      0.000
REMARK  Name = 
REMARK  6 active torsions:
REMARK  status: ('A' for Active; 'I' for Inactive)
REMARK    1  A    between atoms: C_1  and  C_2
REMARK    2  A    between atoms: C_5  and  N_6
REMARK    3  A    between atoms: C_7  and  S_8
REMARK    4  A    between atoms: N_9  and  C_10
REMARK    5  A    between atoms: C_13  and  S_14
REMARK    6  A    between atoms: S_14  and  N_17
REMARK                            x       y       z     vdW  Elec       q    Type
REMARK                         _______ _______ _______ _____ _____    ______ ____
ROOT
ATOM      1  C   UNL     1       0.556  10.046  20.021  0.00  0.00    +0.000 A 
ATOM      2  C   UNL     1       1.005   9.010  20.844  0.00  0.00    +0.000 A 
ATOM      3  C   UNL     1       1.796   7.980  20.339  0.00  0.00    +0.000 A 
ATOM      4  C   UNL     1       2.059   7.913  18.972  0.00  0.00    +0.000 A 
ATOM      5  C   UNL     1       1.602   8.919  18.118  0.00  0.00    +0.000 A 
ATOM      6  C   UNL     1       0.858   9.981  18.651  0.00  0.00    +0.000 A 
ENDROOT
BRANCH   1   9
ATOM      7  N   UNL     1      -0.865  13.250  21.182  0.00  0.00    +0.000 N 
ATOM      8  C   UNL     1      -0.001  12.287  20.728  0.00  0.00    +0.000 C 
ATOM      9  N   UNL     1      -0.308  11.057  20.460  0.00  0.00    +0.000 NA
ATOM     10  H   UNL     1      -0.437  14.152  21.345  0.00  0.00    +0.000 HD
BRANCH   7  15
ATOM     11  C   UNL     1      -6.452  12.761  22.454  0.00  0.00    +0.000 C 
ATOM     12  C   UNL     1      -4.990  12.907  22.142  0.00  0.00    +0.000 A 
ATOM     13  C   UNL     1      -4.597  13.205  20.834  0.00  0.00    +0.000 A 
ATOM     14  C   UNL     1      -3.242  13.331  20.506  0.00  0.00    +0.000 A 
ATOM     15  C   UNL     1      -2.240  13.178  21.468  0.00  0.00    +0.000 A 
ATOM     16  C   UNL     1      -2.640  12.887  22.779  0.00  0.00    +0.000 A 
ATOM     17  C   UNL     1      -3.996  12.760  23.114  0.00  0.00    +0.000 A 
ATOM     18 CL   UNL     1      -4.389  12.412  24.762  0.00  0.00    +0.000 Cl
ENDBRANCH   7  15
BRANCH   8  19
ATOM     19  S   UNL     1       1.619  12.976  20.588  0.00  0.00    +0.000 S 
ATOM     20  H   UNL     1       1.517  13.260  19.282  0.00  0.00    +0.000 HD
ENDBRANCH   8  19
ENDBRANCH   1   9
BRANCH   4  21
ATOM     21  S   UNL     1       3.044   6.570  18.358  0.00  0.00    +0.000 S 
ATOM     22  O   UNL     1       2.136   5.616  17.752  0.00  0.00    +0.000 OA
ATOM     23  O   UNL     1       4.127   7.134  17.580  0.00  0.00    +0.000 OA
BRANCH  21  24
ATOM     24  N   UNL     1       3.631   5.824  19.740  0.00  0.00    +0.000 N 
ATOM     25  C   UNL     1       3.032   4.597  20.020  0.00  0.00    +0.000 A 
ATOM     26  N   UNL     1       3.547   3.514  19.433  0.00  0.00    +0.000 NA
ATOM     27  C   UNL     1       2.886   2.365  19.665  0.00  0.00    +0.000 A 
ATOM     28  C   UNL     1       1.734   2.292  20.412  0.00  0.00    +0.000 A 
ATOM     29  C   UNL     1       1.302   3.481  20.957  0.00  0.00    +0.000 A 
ATOM     30  N   UNL     1       1.949   4.651  20.796  0.00  0.00    +0.000 NA
ATOM     31  H   UNL     1       3.542   6.465  20.521  0.00  0.00    +0.000 HD
ENDBRANCH  21  24
ENDBRANCH   4  21
TORSDOF 5
ENDMDL
MODEL 2
REMARK VINA RESULT:      -7.9      1.010      1.419
REMARK  Name = 
REMARK  6 active torsions:
REMARK  status: ('A' for Active; 'I' for Inactive)
REMARK    1  A    between atoms: C_1  and  C_2
REMARK    2  A    between atoms: C_5  and  N_6
REMARK    3  A    between atoms: C_7  and  S_8
REMARK    4  A    between atoms: N_9  and  C_10
REMARK    5  A    between atoms: C_13  and  S_14
REMARK    6  A    between atoms: S_14  and  N_17
REMARK                            x       y       z     vdW  Elec       q    Type
REMARK                         _______ _______ _______ _____ _____    ______ ____
ROOT
ATOM      1  C   UNL     1       0.638   9.748  19.655  0.00  0.00    +0.000 A 
ATOM      2  C   UNL     1       1.091   8.778  20.553  0.00  0.00    +0.000 A 
ATOM      3  C   UNL     1       1.963   7.770  20.146  0.00  0.00    +0.000 A 
ATOM      4  C   UNL     1       2.310   7.653  18.801  0.00  0.00    +0.000 A 
ATOM      5  C   UNL     1       1.852   8.591  17.873  0.00  0.00    +0.000 A 
ATOM      6  C   UNL     1       1.024   9.635  18.309  0.00  0.00    +0.000 A 
ENDROOT
BRANCH   1   9
ATOM      7  N   UNL     1      -1.005  12.892  20.679  0.00  0.00    +0.000 N 
ATOM      8  C   UNL     1      -0.064  11.958  20.326  0.00  0.00    +0.000 C 
ATOM      9  N   UNL     1      -0.302  10.729  19.993  0.00  0.00    +0.000 NA
ATOM     10  H   UNL     1      -0.625  13.799  20.917  0.00  0.00    +0.000 HD
BRANCH   7  15
ATOM     11  C   UNL     1      -6.699  12.302  21.228  0.00  0.00    +0.000 C 
ATOM     12  C   UNL     1      -5.214  12.480  21.098  0.00  0.00    +0.000 A 
ATOM     13  C   UNL     1      -4.622  12.387  19.835  0.00  0.00    +0.000 A 
ATOM     14  C   UNL     1      -3.239  12.532  19.680  0.00  0.00    +0.000 A 
ATOM     15  C   UNL     1      -2.404  12.783  20.773  0.00  0.00    +0.000 A 
ATOM     16  C   UNL     1      -3.003  12.884  22.036  0.00  0.00    +0.000 A 
ATOM     17  C   UNL     1      -4.388  12.741  22.196  0.00  0.00    +0.000 A 
ATOM     18 CL   UNL     1      -5.034  12.893  23.794  0.00  0.00    +0.000 Cl
ENDBRANCH   7  15
BRANCH   8  19
ATOM     19  S   UNL     1       1.542  12.685  20.422  0.00  0.00    +0.000 S 
ATOM     20  H   UNL     1       2.188  11.617  19.936  0.00  0.00    +0.000 HD
ENDBRANCH   8  19
ENDBRANCH   1   9
BRANCH   4  21
ATOM     21  S   UNL     1       3.398   6.339  18.311  0.00  0.00    +0.000 S 
ATOM     22  O   UNL     1       4.089   6.780  17.116  0.00  0.00    +0.000 OA
ATOM     23  O   UNL     1       4.153   5.931  19.477  0.00  0.00    +0.000 OA
BRANCH  21  24
ATOM     24  N   UNL     1       2.366   5.114  17.814  0.00  0.00    +0.000 N 
ATOM     25  C   UNL     1       2.127   4.145  18.787  0.00  0.00    +0.000 A 
ATOM     26  N   UNL     1       1.142   4.377  19.657  0.00  0.00    +0.000 NA
ATOM     27  C   UNL     1       1.003   3.455  20.628  0.00  0.00    +0.000 A 
ATOM     28  C   UNL     1       1.833   2.367  20.763  0.00  0.00    +0.000 A 
ATOM     29  C   UNL     1       2.814   2.246  19.804  0.00  0.00    +0.000 A 
ATOM     30  N   UNL     1       2.970   3.111  18.785  0.00  0.00    +0.000 NA
ATOM     31  H   UNL     1       2.733   4.702  16.964  0.00  0.00    +0.000 HD
ENDBRANCH  21  24
ENDBRANCH   4  21
TORSDOF 5
ENDMDL
MODEL 3
REMARK VINA RESULT:      -7.9      1.967      2.478
REMARK  Name = 
REMARK  6 active torsions:
REMARK  status: ('A' for Active; 'I' for Inactive)
REMARK    1  A    between atoms: C_1  and  C_2
REMARK    2  A    between atoms: C_5  and  N_6
REMARK    3  A    between atoms: C_7  and  S_8
REMARK    4  A    between atoms: N_9  and  C_10
REMARK    5  A    between atoms: C_13  and  S_14
REMARK    6  A    between atoms: S_14  and  N_17
REMARK                            x       y       z     vdW  Elec       q    Type
REMARK                         _______ _______ _______ _____ _____    ______ ____
ROOT
ATOM      1  C   UNL     1       0.901   9.364  19.039  0.00  0.00    +0.000 A 
ATOM      2  C   UNL     1       1.196   8.430  20.035  0.00  0.00    +0.000 A 
ATOM      3  C   UNL     1       2.193   7.473  19.852  0.00  0.00    +0.000 A 
ATOM      4  C   UNL     1       2.838   7.368  18.621  0.00  0.00    +0.000 A 
ATOM      5  C   UNL     1       2.546   8.270  17.596  0.00  0.00    +0.000 A 
ATOM      6  C   UNL     1       1.583   9.265  17.815  0.00  0.00    +0.000 A 
ENDROOT
BRANCH   1   9
ATOM      7  N   UNL     1      -1.138  12.360  19.748  0.00  0.00    +0.000 N 
ATOM      8  C   UNL     1      -0.088  11.484  19.638  0.00  0.00    +0.000 C 
ATOM      9  N   UNL     1      -0.146  10.289  19.139  0.00  0.00    +0.000 NA
ATOM     10  H   UNL     1      -0.899  13.246  20.175  0.00  0.00    +0.000 HD
BRANCH   7  15
ATOM     11  C   UNL     1      -6.690  11.676  18.417  0.00  0.00    +0.000 C 
ATOM     12  C   UNL     1      -5.246  11.881  18.771  0.00  0.00    +0.000 A 
ATOM     13  C   UNL     1      -4.258  11.492  17.861  0.00  0.00    +0.000 A 
ATOM     14  C   UNL     1      -2.901  11.654  18.165  0.00  0.00    +0.000 A 
ATOM     15  C   UNL     1      -2.486  12.217  19.375  0.00  0.00    +0.000 A 
ATOM     16  C   UNL     1      -3.480  12.612  20.280  0.00  0.00    +0.000 A 
ATOM     17  C   UNL     1      -4.840  12.453  19.980  0.00  0.00    +0.000 A 
ATOM     18 CL   UNL     1      -5.992  12.984  21.157  0.00  0.00    +0.000 Cl
ENDBRANCH   7  15
BRANCH   8  19
ATOM     19  S   UNL     1       1.365  12.227  20.312  0.00  0.00    +0.000 S 
ATOM     20  H   UNL     1       1.091  11.899  21.582  0.00  0.00    +0.000 HD
ENDBRANCH   8  19
ENDBRANCH   1   9
BRANCH   4  21
ATOM     21  S   UNL     1       4.081   6.119  18.412  0.00  0.00    +0.000 S 
ATOM     22  O   UNL     1       5.205   6.742  17.743  0.00  0.00    +0.000 OA
ATOM     23  O   UNL     1       4.270   5.463  19.689  0.00  0.00    +0.000 OA
BRANCH  21  24
ATOM     24  N   UNL     1       3.416   5.059  17.295  0.00  0.00    +0.000 N 
ATOM     25  C   UNL     1       2.813   3.939  17.865  0.00  0.00    +0.000 A 
ATOM     26  N   UNL     1       1.538   4.055  18.245  0.00  0.00    +0.000 NA
ATOM     27  C   UNL     1       1.024   2.977  18.865  0.00  0.00    +0.000 A 
ATOM     28  C   UNL     1       1.752   1.843  19.140  0.00  0.00    +0.000 A 
ATOM     29  C   UNL     1       3.057   1.853  18.702  0.00  0.00    +0.000 A 
ATOM     30  N   UNL     1       3.610   2.884  18.035  0.00  0.00    +0.000 NA
ATOM     31  H   UNL     1       4.133   4.795  16.628  0.00  0.00    +0.000 HD
ENDBRANCH  21  24
ENDBRANCH   4  21
TORSDOF 5
ENDMDL
MODEL 4
REMARK VINA RESULT:      -7.8      2.254      2.796
REMARK  Name = 
REMARK  6 active torsions:
REMARK  status: ('A' for Active; 'I' for Inactive)
REMARK    1  A    between atoms: C_1  and  C_2
REMARK    2  A    between atoms: C_5  and  N_6
REMARK    3  A    between atoms: C_7  and  S_8
REMARK    4  A    between atoms: N_9  and  C_10
REMARK    5  A    between atoms: C_13  and  S_14
REMARK    6  A    between atoms: S_14  and  N_17
REMARK                            x       y       z     vdW  Elec       q    Type
REMARK                         _______ _______ _______ _____ _____    ______ ____
ROOT
ATOM      1  C   UNL     1       0.666   9.727  19.971  0.00  0.00    +0.000 A 
ATOM      2  C   UNL     1       1.034   8.678  20.817  0.00  0.00    +0.000 A 
ATOM      3  C   UNL     1       1.834   7.632  20.362  0.00  0.00    +0.000 A 
ATOM      4  C   UNL     1       2.188   7.564  19.015  0.00  0.00    +0.000 A 
ATOM      5  C   UNL     1       1.813   8.584  18.138  0.00  0.00    +0.000 A 
ATOM      6  C   UNL     1       1.058   9.661  18.625  0.00  0.00    +0.000 A 
ENDROOT
BRANCH   1   9
ATOM      7  N   UNL     1      -0.767  12.974  20.992  0.00  0.00    +0.000 N 
ATOM      8  C   UNL     1       0.103  11.992  20.590  0.00  0.00    +0.000 C 
ATOM      9  N   UNL     1      -0.204  10.755  20.356  0.00  0.00    +0.000 NA
ATOM     10  H   UNL     1      -0.338  13.879  21.134  0.00  0.00    +0.000 HD
BRANCH   7  15
ATOM     11  C   UNL     1      -6.381  12.560  22.164  0.00  0.00    +0.000 C 
ATOM     12  C   UNL     1      -4.913  12.688  21.877  0.00  0.00    +0.000 A 
ATOM     13  C   UNL     1      -4.487  12.847  20.555  0.00  0.00    +0.000 A 
ATOM     14  C   UNL     1      -3.126  12.953  20.250  0.00  0.00    +0.000 A 
ATOM     15  C   UNL     1      -2.148  12.917  21.248  0.00  0.00    +0.000 A 
ATOM     16  C   UNL     1      -2.581  12.766  22.573  0.00  0.00    +0.000 A 
ATOM     17  C   UNL     1      -3.944  12.659  22.884  0.00  0.00    +0.000 A 
ATOM     18 CL   UNL     1      -4.378  12.488  24.549  0.00  0.00    +0.000 Cl
ENDBRANCH   7  15
BRANCH   8  19
ATOM     19  S   UNL     1       1.729  12.670  20.464  0.00  0.00    +0.000 S 
ATOM     20  H   UNL     1       1.593  13.506  21.503  0.00  0.00    +0.000 HD
ENDBRANCH   8  19
ENDBRANCH   1   9
BRANCH   4  21
ATOM     21  S   UNL     1       3.182   6.202  18.462  0.00  0.00    +0.000 S 
ATOM     22  O   UNL     1       3.965   5.756  19.596  0.00  0.00    +0.000 OA
ATOM     23  O   UNL     1       2.314   5.272  17.770  0.00  0.00    +0.000 OA
BRANCH  21  24
ATOM     24  N   UNL     1       4.276   6.897  17.398  0.00  0.00    +0.000 N 
ATOM     25  C   UNL     1       5.378   6.091  17.112  0.00  0.00    +0.000 A 
ATOM     26  N   UNL     1       5.250   5.205  16.121  0.00  0.00    +0.000 NA
ATOM     27  C   UNL     1       6.307   4.393  15.936  0.00  0.00    +0.000 A 
ATOM     28  C   UNL     1       7.432   4.423  16.728  0.00  0.00    +0.000 A 
ATOM     29  C   UNL     1       7.436   5.379  17.719  0.00  0.00    +0.000 A 
ATOM     30  N   UNL     1       6.427   6.247  17.920  0.00  0.00    +0.000 NA
ATOM     31  H   UNL     1       4.562   7.798  17.765  0.00  0.00    +0.000 HD
ENDBRANCH  21  24
ENDBRANCH   4  21
TORSDOF 5
ENDMDL
MODEL 5
REMARK VINA RESULT:      -7.8      1.048      1.753
REMARK  Name = 
REMARK  6 active torsions:
REMARK  status: ('A' for Active; 'I' for Inactive)
REMARK    1  A    between atoms: C_1  and  C_2
REMARK    2  A    between atoms: C_5  and  N_6
REMARK    3  A    between atoms: C_7  and  S_8
REMARK    4  A    between atoms: N_9  and  C_10
REMARK    5  A    between atoms: C_13  and  S_14
REMARK    6  A    between atoms: S_14  and  N_17
REMARK                            x       y       z     vdW  Elec       q    Type
REMARK                         _______ _______ _______ _____ _____    ______ ____
ROOT
ATOM      1  C   UNL     1       0.340   9.795  19.856  0.00  0.00    +0.000 A 
ATOM      2  C   UNL     1       0.808   9.747  18.541  0.00  0.00    +0.000 A 
ATOM      3  C   UNL     1       1.661   8.730  18.117  0.00  0.00    +0.000 A 
ATOM      4  C   UNL     1       2.148   7.803  19.037  0.00  0.00    +0.000 A 
ATOM      5  C   UNL     1       1.719   7.840  20.366  0.00  0.00    +0.000 A 
ATOM      6  C   UNL     1       0.814   8.834  20.763  0.00  0.00    +0.000 A 
ENDROOT
BRANCH   1   9
ATOM      7  N   UNL     1      -0.849  13.033  21.174  0.00  0.00    +0.000 N 
ATOM      8  C   UNL     1      -0.058  12.036  20.664  0.00  0.00    +0.000 C 
ATOM      9  N   UNL     1      -0.449  10.840  20.353  0.00  0.00    +0.000 NA
ATOM     10  H   UNL     1      -0.360  13.899  21.363  0.00  0.00    +0.000 HD
BRANCH   7  15
ATOM     11  C   UNL     1      -6.431  12.857  22.546  0.00  0.00    +0.000 C 
ATOM     12  C   UNL     1      -4.969  12.920  22.208  0.00  0.00    +0.000 A 
ATOM     13  C   UNL     1      -4.583  13.206  20.895  0.00  0.00    +0.000 A 
ATOM     14  C   UNL     1      -3.229  13.257  20.543  0.00  0.00    +0.000 A 
ATOM     15  C   UNL     1      -2.220  13.038  21.484  0.00  0.00    +0.000 A 
ATOM     16  C   UNL     1      -2.613  12.760  22.801  0.00  0.00    +0.000 A 
ATOM     17  C   UNL     1      -3.967  12.708  23.160  0.00  0.00    +0.000 A 
ATOM     18 CL   UNL     1      -4.350  12.370  24.812  0.00  0.00    +0.000 Cl
ENDBRANCH   7  15
BRANCH   8  19
ATOM     19  S   UNL     1       1.601  12.625  20.518  0.00  0.00    +0.000 S 
ATOM     20  H   UNL     1       1.526  13.459  21.565  0.00  0.00    +0.000 HD
ENDBRANCH   8  19
ENDBRANCH   1   9
BRANCH   4  21
ATOM     21  S   UNL     1       3.257   6.539  18.470  0.00  0.00    +0.000 S 
ATOM     22  O   UNL     1       4.113   7.140  17.467  0.00  0.00    +0.000 OA
ATOM     23  O   UNL     1       3.839   5.904  19.634  0.00  0.00    +0.000 OA
BRANCH  21  24
ATOM     24  N   UNL     1       2.270   5.466  17.641  0.00  0.00    +0.000 N 
ATOM     25  C   UNL     1       2.390   4.143  18.063  0.00  0.00    +0.000 A 
ATOM     26  N   UNL     1       1.639   3.757  19.096  0.00  0.00    +0.000 NA
ATOM     27  C   UNL     1       1.850   2.498  19.521  0.00  0.00    +0.000 A 
ATOM     28  C   UNL     1       2.798   1.664  18.976  0.00  0.00    +0.000 A 
ATOM     29  C   UNL     1       3.511   2.185  17.920  0.00  0.00    +0.000 A 
ATOM     30  N   UNL     1       3.310   3.420  17.423  0.00  0.00    +0.000 NA
ATOM     31  H   UNL     1       2.451   5.556  16.647  0.00  0.00    +0.000 HD
ENDBRANCH  21  24
ENDBRANCH   4  21
TORSDOF 5
ENDMDL
MODEL 6
REMARK VINA RESULT:      -7.7      1.256      1.537
REMARK  Name = 
REMARK  6 active torsions:
REMARK  status: ('A' for Active; 'I' for Inactive)
REMARK    1  A    between atoms: C_1  and  C_2
REMARK    2  A    between atoms: C_5  and  N_6
REMARK    3  A    between atoms: C_7  and  S_8
REMARK    4  A    between atoms: N_9  and  C_10
REMARK    5  A    between atoms: C_13  and  S_14
REMARK    6  A    between atoms: S_14  and  N_17
REMARK                            x       y       z     vdW  Elec       q    Type
REMARK                         _______ _______ _______ _____ _____    ______ ____
ROOT
ATOM      1  C   UNL     1       0.542   9.847  19.808  0.00  0.00    +0.000 A 
ATOM      2  C   UNL     1       1.049   8.885  20.684  0.00  0.00    +0.000 A 
ATOM      3  C   UNL     1       1.908   7.883  20.234  0.00  0.00    +0.000 A 
ATOM      4  C   UNL     1       2.184   7.765  18.873  0.00  0.00    +0.000 A 
ATOM      5  C   UNL     1       1.669   8.695  17.968  0.00  0.00    +0.000 A 
ATOM      6  C   UNL     1       0.856   9.733  18.445  0.00  0.00    +0.000 A 
ENDROOT
BRANCH   1   9
ATOM      7  N   UNL     1      -1.078  12.991  20.872  0.00  0.00    +0.000 N 
ATOM      8  C   UNL     1      -0.149  12.064  20.472  0.00  0.00    +0.000 C 
ATOM      9  N   UNL     1      -0.388  10.821  20.193  0.00  0.00    +0.000 NA
ATOM     10  H   UNL     1      -0.698  13.911  21.054  0.00  0.00    +0.000 HD
BRANCH   7  15
ATOM     11  C   UNL     1      -6.773  12.611  21.567  0.00  0.00    +0.000 C 
ATOM     12  C   UNL     1      -5.287  12.687  21.371  0.00  0.00    +0.000 A 
ATOM     13  C   UNL     1      -4.458  12.847  22.485  0.00  0.00    +0.000 A 
ATOM     14  C   UNL     1      -3.069  12.938  22.337  0.00  0.00    +0.000 A 
ATOM     15  C   UNL     1      -2.462  12.861  21.081  0.00  0.00    +0.000 A 
ATOM     16  C   UNL     1      -3.297  12.692  19.968  0.00  0.00    +0.000 A 
ATOM     17  C   UNL     1      -4.688  12.600  20.110  0.00  0.00    +0.000 A 
ATOM     18 CL   UNL     1      -5.632  12.380  18.678  0.00  0.00    +0.000 Cl
ENDBRANCH   7  15
BRANCH   8  19
ATOM     19  S   UNL     1       1.445  12.821  20.420  0.00  0.00    +0.000 S 
ATOM     20  H   UNL     1       1.688  12.505  19.140  0.00  0.00    +0.000 HD
ENDBRANCH   8  19
ENDBRANCH   1   9
BRANCH   4  21
ATOM     21  S   UNL     1       3.256   6.459  18.330  0.00  0.00    +0.000 S 
ATOM     22  O   UNL     1       2.426   5.472  17.669  0.00  0.00    +0.000 OA
ATOM     23  O   UNL     1       4.367   7.061  17.625  0.00  0.00    +0.000 OA
BRANCH  21  24
ATOM     24  N   UNL     1       3.776   5.736  19.751  0.00  0.00    +0.000 N 
ATOM     25  C   UNL     1       3.145   4.526  20.036  0.00  0.00    +0.000 A 
ATOM     26  N   UNL     1       3.664   3.421  19.495  0.00  0.00    +0.000 NA
ATOM     27  C   UNL     1       2.974   2.289  19.728  0.00  0.00    +0.000 A 
ATOM     28  C   UNL     1       1.793   2.253  20.431  0.00  0.00    +0.000 A 
ATOM     29  C   UNL     1       1.362   3.462  20.930  0.00  0.00    +0.000 A 
ATOM     30  N   UNL     1       2.035   4.617  20.768  0.00  0.00    +0.000 NA
ATOM     31  H   UNL     1       3.668   6.397  20.513  0.00  0.00    +0.000 HD
ENDBRANCH  21  24
ENDBRANCH   4  21
TORSDOF 5
ENDMDL
MODEL 7
REMARK VINA RESULT:      -7.7      3.156      3.755
REMARK  Name = 
REMARK  6 active torsions:
REMARK  status: ('A' for Active; 'I' for Inactive)
REMARK    1  A    between atoms: C_1  and  C_2
REMARK    2  A    between atoms: C_5  and  N_6
REMARK    3  A    between atoms: C_7  and  S_8
REMARK    4  A    between atoms: N_9  and  C_10
REMARK    5  A    between atoms: C_13  and  S_14
REMARK    6  A    between atoms: S_14  and  N_17
REMARK                            x       y       z     vdW  Elec       q    Type
REMARK                         _______ _______ _______ _____ _____    ______ ____
ROOT
ATOM      1  C   UNL     1       0.799   9.421  19.271  0.00  0.00    +0.000 A 
ATOM      2  C   UNL     1       1.153   8.493  20.253  0.00  0.00    +0.000 A 
ATOM      3  C   UNL     1       2.076   7.482  19.989  0.00  0.00    +0.000 A 
ATOM      4  C   UNL     1       2.576   7.318  18.699  0.00  0.00    +0.000 A 
ATOM      5  C   UNL     1       2.221   8.214  17.688  0.00  0.00    +0.000 A 
ATOM      6  C   UNL     1       1.338   9.262  17.984  0.00  0.00    +0.000 A 
ENDROOT
BRANCH   1   9
ATOM      7  N   UNL     1      -0.984  12.568  20.014  0.00  0.00    +0.000 N 
ATOM      8  C   UNL     1       0.001  11.635  19.811  0.00  0.00    +0.000 C 
ATOM      9  N   UNL     1      -0.183  10.402  19.459  0.00  0.00    +0.000 NA
ATOM     10  H   UNL     1      -0.645  13.479  20.296  0.00  0.00    +0.000 HD
BRANCH   7  15
ATOM     11  C   UNL     1      -6.686  12.194  19.366  0.00  0.00    +0.000 C 
ATOM     12  C   UNL     1      -5.195  12.265  19.529  0.00  0.00    +0.000 A 
ATOM     13  C   UNL     1      -4.661  12.834  20.689  0.00  0.00    +0.000 A 
ATOM     14  C   UNL     1      -3.276  12.931  20.867  0.00  0.00    +0.000 A 
ATOM     15  C   UNL     1      -2.381  12.455  19.905  0.00  0.00    +0.000 A 
ATOM     16  C   UNL     1      -2.921  11.877  18.748  0.00  0.00    +0.000 A 
ATOM     17  C   UNL     1      -4.308  11.777  18.565  0.00  0.00    +0.000 A 
ATOM     18 CL   UNL     1      -4.877  11.038  17.109  0.00  0.00    +0.000 Cl
ENDBRANCH   7  15
BRANCH   8  19
ATOM     19  S   UNL     1       1.574  12.369  20.132  0.00  0.00    +0.000 S 
ATOM     20  H   UNL     1       1.901  11.528  21.123  0.00  0.00    +0.000 HD
ENDBRANCH   8  19
ENDBRANCH   1   9
BRANCH   4  21
ATOM     21  S   UNL     1       3.725   6.001  18.390  0.00  0.00    +0.000 S 
ATOM     22  O   UNL     1       4.180   5.521  19.680  0.00  0.00    +0.000 OA
ATOM     23  O   UNL     1       3.110   5.087  17.451  0.00  0.00    +0.000 OA
BRANCH  21  24
ATOM     24  N   UNL     1       5.048   6.763  17.697  0.00  0.00    +0.000 N 
ATOM     25  C   UNL     1       5.677   6.014  16.703  0.00  0.00    +0.000 A 
ATOM     26  N   UNL     1       5.195   6.114  15.462  0.00  0.00    +0.000 NA
ATOM     27  C   UNL     1       5.778   5.310  14.553  0.00  0.00    +0.000 A 
ATOM     28  C   UNL     1       6.770   4.410  14.865  0.00  0.00    +0.000 A 
ATOM     29  C   UNL     1       7.173   4.401  16.181  0.00  0.00    +0.000 A 
ATOM     30  N   UNL     1       6.658   5.214  17.122  0.00  0.00    +0.000 NA
ATOM     31  H   UNL     1       5.698   7.023  18.431  0.00  0.00    +0.000 HD
ENDBRANCH  21  24
ENDBRANCH   4  21
TORSDOF 5
ENDMDL
MODEL 8
REMARK VINA RESULT:      -7.7      1.976      2.752
REMARK  Name = 
REMARK  6 active torsions:
REMARK  status: ('A' for Active; 'I' for Inactive)
REMARK    1  A    between atoms: C_1  and  C_2
REMARK    2  A    between atoms: C_5  and  N_6
REMARK    3  A    between atoms: C_7  and  S_8
REMARK    4  A    between atoms: N_9  and  C_10
REMARK    5  A    between atoms: C_13  and  S_14
REMARK    6  A    between atoms: S_14  and  N_17
REMARK                            x       y       z     vdW  Elec       q    Type
REMARK                         _______ _______ _______ _____ _____    ______ ____
ROOT
ATOM      1  C   UNL     1       0.989   9.299  19.528  0.00  0.00    +0.000 A 
ATOM      2  C   UNL     1       1.652   9.365  18.300  0.00  0.00    +0.000 A 
ATOM      3  C   UNL     1       2.536   8.363  17.904  0.00  0.00    +0.000 A 
ATOM      4  C   UNL     1       2.855   7.330  18.784  0.00  0.00    +0.000 A 
ATOM      5  C   UNL     1       2.229   7.250  20.029  0.00  0.00    +0.000 A 
ATOM      6  C   UNL     1       1.296   8.233  20.389  0.00  0.00    +0.000 A 
ENDROOT
BRANCH   1   9
ATOM      7  N   UNL     1      -1.677  11.825  19.912  0.00  0.00    +0.000 N 
ATOM      8  C   UNL     1      -0.895  10.806  19.430  0.00  0.00    +0.000 C 
ATOM      9  N   UNL     1       0.158  10.318  20.008  0.00  0.00    +0.000 NA
ATOM     10  H   UNL     1      -2.453  12.074  19.314  0.00  0.00    +0.000 HD
BRANCH   7  15
ATOM     11  C   UNL     1      -1.418  14.972  24.718  0.00  0.00    +0.000 C 
ATOM     12  C   UNL     1      -1.488  14.128  23.479  0.00  0.00    +0.000 A 
ATOM     13  C   UNL     1      -0.499  14.267  22.500  0.00  0.00    +0.000 A 
ATOM     14  C   UNL     1      -0.542  13.507  21.325  0.00  0.00    +0.000 A 
ATOM     15  C   UNL     1      -1.562  12.580  21.093  0.00  0.00    +0.000 A 
ATOM     16  C   UNL     1      -2.546  12.438  22.081  0.00  0.00    +0.000 A 
ATOM     17  C   UNL     1      -2.507  13.196  23.259  0.00  0.00    +0.000 A 
ATOM     18 CL   UNL     1      -3.760  12.940  24.424  0.00  0.00    +0.000 Cl
ENDBRANCH   7  15
BRANCH   8  19
ATOM     19  S   UNL     1      -1.531  10.270  17.873  0.00  0.00    +0.000 S 
ATOM     20  H   UNL     1      -0.351  10.310  17.239  0.00  0.00    +0.000 HD
ENDBRANCH   8  19
ENDBRANCH   1   9
BRANCH   4  21
ATOM     21  S   UNL     1       4.008   6.088  18.259  0.00  0.00    +0.000 S 
ATOM     22  O   UNL     1       4.962   6.734  17.380  0.00  0.00    +0.000 OA
ATOM     23  O   UNL     1       4.470   5.385  19.438  0.00  0.00    +0.000 OA
BRANCH  21  24
ATOM     24  N   UNL     1       3.102   5.072  17.280  0.00  0.00    +0.000 N 
ATOM     25  C   UNL     1       2.611   3.943  17.934  0.00  0.00    +0.000 A 
ATOM     26  N   UNL     1       1.449   4.064  18.578  0.00  0.00    +0.000 NA
ATOM     27  C   UNL     1       1.056   2.975  19.265  0.00  0.00    +0.000 A 
ATOM     28  C   UNL     1       1.803   1.823  19.349  0.00  0.00    +0.000 A 
ATOM     29  C   UNL     1       2.986   1.829  18.644  0.00  0.00    +0.000 A 
ATOM     30  N   UNL     1       3.406   2.873  17.903  0.00  0.00    +0.000 NA
ATOM     31  H   UNL     1       3.657   4.818  16.470  0.00  0.00    +0.000 HD
ENDBRANCH  21  24
ENDBRANCH   4  21
TORSDOF 5
ENDMDL
MODEL 9
REMARK VINA RESULT:      -7.7      1.564      2.071
REMARK  Name = 
REMARK  6 active torsions:
REMARK  status: ('A' for Active; 'I' for Inactive)
REMARK    1  A    between atoms: C_1  and  C_2
REMARK    2  A    between atoms: C_5  and  N_6
REMARK    3  A    between atoms: C_7  and  S_8
REMARK    4  A    between atoms: N_9  and  C_10
REMARK    5  A    between atoms: C_13  and  S_14
REMARK    6  A    between atoms: S_14  and  N_17
REMARK                            x       y       z     vdW  Elec       q    Type
REMARK                         _______ _______ _______ _____ _____    ______ ____
ROOT
ATOM      1  C   UNL     1       0.589   9.829  19.954  0.00  0.00    +0.000 A 
ATOM      2  C   UNL     1       1.014   8.800  20.797  0.00  0.00    +0.000 A 
ATOM      3  C   UNL     1       1.859   7.792  20.335  0.00  0.00    +0.000 A 
ATOM      4  C   UNL     1       2.204   7.740  18.985  0.00  0.00    +0.000 A 
ATOM      5  C   UNL     1       1.773   8.740  18.111  0.00  0.00    +0.000 A 
ATOM      6  C   UNL     1       0.973   9.780  18.604  0.00  0.00    +0.000 A 
ENDROOT
BRANCH   1   9
ATOM      7  N   UNL     1      -0.981  12.998  21.016  0.00  0.00    +0.000 N 
ATOM      8  C   UNL     1      -0.069  12.059  20.608  0.00  0.00    +0.000 C 
ATOM      9  N   UNL     1      -0.325  10.816  20.346  0.00  0.00    +0.000 NA
ATOM     10  H   UNL     1      -0.590  13.916  21.182  0.00  0.00    +0.000 HD
BRANCH   7  15
ATOM     11  C   UNL     1      -6.666  12.687  21.828  0.00  0.00    +0.000 C 
ATOM     12  C   UNL     1      -5.183  12.745  21.600  0.00  0.00    +0.000 A 
ATOM     13  C   UNL     1      -4.326  12.842  22.701  0.00  0.00    +0.000 A 
ATOM     14  C   UNL     1      -2.939  12.916  22.524  0.00  0.00    +0.000 A 
ATOM     15  C   UNL     1      -2.363  12.883  21.251  0.00  0.00    +0.000 A 
ATOM     16  C   UNL     1      -3.226  12.777  20.152  0.00  0.00    +0.000 A 
ATOM     17  C   UNL     1      -4.615  12.703  20.323  0.00  0.00    +0.000 A 
ATOM     18 CL   UNL     1      -5.595  12.562  18.905  0.00  0.00    +0.000 Cl
ENDBRANCH   7  15
BRANCH   8  19
ATOM     19  S   UNL     1       1.531  12.801  20.519  0.00  0.00    +0.000 S 
ATOM     20  H   UNL     1       1.995  12.225  21.637  0.00  0.00    +0.000 HD
ENDBRANCH   8  19
ENDBRANCH   1   9
BRANCH   4  21
ATOM     21  S   UNL     1       3.256   6.426  18.424  0.00  0.00    +0.000 S 
ATOM     22  O   UNL     1       4.152   6.990  17.435  0.00  0.00    +0.000 OA
ATOM     23  O   UNL     1       3.791   5.757  19.591  0.00  0.00    +0.000 OA
BRANCH  21  24
ATOM     24  N   UNL     1       2.227   5.408  17.577  0.00  0.00    +0.000 N 
ATOM     25  C   UNL     1       2.131   4.125  18.114  0.00  0.00    +0.000 A 
ATOM     26  N   UNL     1       1.234   3.931  19.083  0.00  0.00    +0.000 NA
ATOM     27  C   UNL     1       1.235   2.700  19.628  0.00  0.00    +0.000 A 
ATOM     28  C   UNL     1       2.117   1.711  19.262  0.00  0.00    +0.000 A 
ATOM     29  C   UNL     1       2.995   2.041  18.254  0.00  0.00    +0.000 A 
ATOM     30  N   UNL     1       3.009   3.240  17.641  0.00  0.00    +0.000 NA
ATOM     31  H   UNL     1       2.518   5.382  16.606  0.00  0.00    +0.000 HD
ENDBRANCH  21  24
ENDBRANCH   4  21
TORSDOF 5
ENDMDL
