MODEL 1
REMARK VINA RESULT:      -9.1      0.000      0.000
REMARK  Name = 
REMARK  3 active torsions:
REMARK  status: ('A' for Active; 'I' for Inactive)
REMARK    1  A    between atoms: C_2  and  C_3
REMARK    2  A    between atoms: C_3  and  C_4
REMARK    3  A    between atoms: C_18  and  C_19
REMARK                            x       y       z     vdW  Elec       q    Type
REMARK                         _______ _______ _______ _____ _____    ______ ____
ROOT
ATOM      1  O   UNL     1       5.662   6.184  15.398  0.00  0.00    +0.000 OA
ATOM      2  C   UNL     1       5.708   5.312  16.263  0.00  0.00    +0.000 C 
ATOM      3  N   UNL     1       6.486   5.332  17.402  0.00  0.00    +0.000 N 
ATOM      4  C   UNL     1       7.228   6.402  17.847  0.00  0.00    +0.000 A 
ATOM      5  N   UNL     1       8.129   6.302  18.798  0.00  0.00    +0.000 NA
ATOM      6  N   UNL     1       8.726   7.524  19.077  0.00  0.00    +0.000 NA
ATOM      7  C   UNL     1       8.198   8.513  18.380  0.00  0.00    +0.000 A 
ATOM      8  S   UNL     1       6.975   7.991  17.287  0.00  0.00    +0.000 S 
ATOM      9  H   UNL     1       6.661   4.470  17.902  0.00  0.00    +0.000 HD
ENDROOT
BRANCH   7  10
ATOM     10  C   UNL     1       8.606   9.922  18.451  0.00  0.00    +0.000 A 
ATOM     11  C   UNL     1       8.117  10.840  17.506  0.00  0.00    +0.000 A 
ATOM     12  C   UNL     1       8.484  12.190  17.557  0.00  0.00    +0.000 A 
ATOM     13  C   UNL     1       9.361  12.635  18.541  0.00  0.00    +0.000 A 
ATOM     14  C   UNL     1       9.850  11.738  19.493  0.00  0.00    +0.000 A 
ATOM     15  C   UNL     1       9.487  10.391  19.441  0.00  0.00    +0.000 A 
ATOM     16  O   UNL     1      10.703  12.101  20.504  0.00  0.00    +0.000 OA
ATOM     17  C   UNL     1      10.749  13.524  20.667  0.00  0.00    +0.000 C 
ATOM     18  C   UNL     1      10.860  14.217  19.320  0.00  0.00    +0.000 C 
ATOM     19  O   UNL     1       9.699  13.964  18.520  0.00  0.00    +0.000 OA
ENDBRANCH   7  10
BRANCH   2  20
ATOM     20  C   UNL     1       4.855   4.058  16.132  0.00  0.00    +0.000 C 
BRANCH  20  21
ATOM     21  C   UNL     1       3.811   3.911  17.211  0.00  0.00    +0.000 A 
ATOM     22  C   UNL     1       2.519   4.420  17.030  0.00  0.00    +0.000 A 
ATOM     23  C   UNL     1       1.560   4.299  18.040  0.00  0.00    +0.000 A 
ATOM     24  C   UNL     1       1.870   3.672  19.256  0.00  0.00    +0.000 A 
ATOM     25  C   UNL     1       0.911   3.528  20.273  0.00  0.00    +0.000 A 
ATOM     26  C   UNL     1       1.237   2.902  21.477  0.00  0.00    +0.000 A 
ATOM     27  C   UNL     1       2.525   2.420  21.682  0.00  0.00    +0.000 A 
ATOM     28  C   UNL     1       3.490   2.558  20.682  0.00  0.00    +0.000 A 
ATOM     29  C   UNL     1       3.176   3.175  19.460  0.00  0.00    +0.000 A 
ATOM     30  C   UNL     1       4.131   3.305  18.435  0.00  0.00    +0.000 A 
ENDBRANCH  20  21
ENDBRANCH   2  20
TORSDOF 3
ENDMDL
MODEL 2
REMARK VINA RESULT:      -9.0      0.786      1.236
REMARK  Name = 
REMARK  3 active torsions:
REMARK  status: ('A' for Active; 'I' for Inactive)
REMARK    1  A    between atoms: C_2  and  C_3
REMARK    2  A    between atoms: C_3  and  C_4
REMARK    3  A    between atoms: C_18  and  C_19
REMARK                            x       y       z     vdW  Elec       q    Type
REMARK                         _______ _______ _______ _____ _____    ______ ____
ROOT
ATOM      1  O   UNL     1       6.094   6.154  15.154  0.00  0.00    +0.000 OA
ATOM      2  C   UNL     1       6.006   5.283  16.016  0.00  0.00    +0.000 C 
ATOM      3  N   UNL     1       6.623   5.291  17.250  0.00  0.00    +0.000 N 
ATOM      4  C   UNL     1       7.319   6.346  17.792  0.00  0.00    +0.000 A 
ATOM      5  N   UNL     1       8.081   6.231  18.856  0.00  0.00    +0.000 NA
ATOM      6  N   UNL     1       8.658   7.442  19.215  0.00  0.00    +0.000 NA
ATOM      7  C   UNL     1       8.249   8.439  18.453  0.00  0.00    +0.000 A 
ATOM      8  S   UNL     1       7.175   7.939  17.204  0.00  0.00    +0.000 S 
ATOM      9  H   UNL     1       6.712   4.426  17.768  0.00  0.00    +0.000 HD
ENDROOT
BRANCH   7  10
ATOM     10  C   UNL     1       8.671   9.840  18.580  0.00  0.00    +0.000 A 
ATOM     11  C   UNL     1       8.350  10.761  17.568  0.00  0.00    +0.000 A 
ATOM     12  C   UNL     1       8.734  12.104  17.668  0.00  0.00    +0.000 A 
ATOM     13  C   UNL     1       9.460  12.538  18.772  0.00  0.00    +0.000 A 
ATOM     14  C   UNL     1       9.780  11.637  19.791  0.00  0.00    +0.000 A 
ATOM     15  C   UNL     1       9.401  10.298  19.690  0.00  0.00    +0.000 A 
ATOM     16  O   UNL     1      10.478  11.991  20.918  0.00  0.00    +0.000 OA
ATOM     17  C   UNL     1      10.529  13.413  21.081  0.00  0.00    +0.000 C 
ATOM     18  C   UNL     1      10.858  14.095  19.764  0.00  0.00    +0.000 C 
ATOM     19  O   UNL     1       9.826  13.859  18.798  0.00  0.00    +0.000 OA
ENDBRANCH   7  10
BRANCH   2  20
ATOM     20  C   UNL     1       5.155   4.046  15.771  0.00  0.00    +0.000 C 
BRANCH  20  21
ATOM     21  C   UNL     1       4.267   3.671  16.932  0.00  0.00    +0.000 A 
ATOM     22  C   UNL     1       3.999   2.328  17.224  0.00  0.00    +0.000 A 
ATOM     23  C   UNL     1       3.159   1.986  18.288  0.00  0.00    +0.000 A 
ATOM     24  C   UNL     1       2.565   2.977  19.083  0.00  0.00    +0.000 A 
ATOM     25  C   UNL     1       1.733   2.648  20.167  0.00  0.00    +0.000 A 
ATOM     26  C   UNL     1       1.148   3.648  20.947  0.00  0.00    +0.000 A 
ATOM     27  C   UNL     1       1.380   4.986  20.648  0.00  0.00    +0.000 A 
ATOM     28  C   UNL     1       2.203   5.329  19.572  0.00  0.00    +0.000 A 
ATOM     29  C   UNL     1       2.809   4.337  18.785  0.00  0.00    +0.000 A 
ATOM     30  C   UNL     1       3.654   4.665  17.709  0.00  0.00    +0.000 A 
ENDBRANCH  20  21
ENDBRANCH   2  20
TORSDOF 3
ENDMDL
MODEL 3
REMARK VINA RESULT:      -8.9      8.496     10.038
REMARK  Name = 
REMARK  3 active torsions:
REMARK  status: ('A' for Active; 'I' for Inactive)
REMARK    1  A    between atoms: C_2  and  C_3
REMARK    2  A    between atoms: C_3  and  C_4
REMARK    3  A    between atoms: C_18  and  C_19
REMARK                            x       y       z     vdW  Elec       q    Type
REMARK                         _______ _______ _______ _____ _____    ______ ____
ROOT
ATOM      1  O   UNL     1       0.549   9.669  17.735  0.00  0.00    +0.000 OA
ATOM      2  C   UNL     1       1.454   9.403  18.523  0.00  0.00    +0.000 C 
ATOM      3  N   UNL     1       1.620   9.934  19.785  0.00  0.00    +0.000 N 
ATOM      4  C   UNL     1       0.717  10.739  20.442  0.00  0.00    +0.000 A 
ATOM      5  N   UNL     1       1.015  11.406  21.533  0.00  0.00    +0.000 NA
ATOM      6  N   UNL     1      -0.071  12.127  22.013  0.00  0.00    +0.000 NA
ATOM      7  C   UNL     1      -1.167  11.914  21.308  0.00  0.00    +0.000 A 
ATOM      8  S   UNL     1      -0.915  10.861  19.970  0.00  0.00    +0.000 S 
ATOM      9  H   UNL     1       2.521   9.866  20.240  0.00  0.00    +0.000 HD
ENDROOT
BRANCH   7  10
ATOM     10  C   UNL     1      -2.479  12.523  21.563  0.00  0.00    +0.000 A 
ATOM     11  C   UNL     1      -3.040  13.397  20.616  0.00  0.00    +0.000 A 
ATOM     12  C   UNL     1      -4.292  13.985  20.832  0.00  0.00    +0.000 A 
ATOM     13  C   UNL     1      -4.990  13.722  22.006  0.00  0.00    +0.000 A 
ATOM     14  C   UNL     1      -4.450  12.849  22.954  0.00  0.00    +0.000 A 
ATOM     15  C   UNL     1      -3.201  12.266  22.741  0.00  0.00    +0.000 A 
ATOM     16  O   UNL     1      -5.083  12.526  24.127  0.00  0.00    +0.000 OA
ATOM     17  C   UNL     1      -6.465  12.901  24.101  0.00  0.00    +0.000 C 
ATOM     18  C   UNL     1      -6.633  14.300  23.531  0.00  0.00    +0.000 C 
ATOM     19  O   UNL     1      -6.199  14.348  22.166  0.00  0.00    +0.000 OA
ENDBRANCH   7  10
BRANCH   2  20
ATOM     20  C   UNL     1       2.532   8.400  18.139  0.00  0.00    +0.000 C 
BRANCH  20  21
ATOM     21  C   UNL     1       2.307   7.015  18.691  0.00  0.00    +0.000 A 
ATOM     22  C   UNL     1       2.060   6.818  20.055  0.00  0.00    +0.000 A 
ATOM     23  C   UNL     1       1.873   5.530  20.566  0.00  0.00    +0.000 A 
ATOM     24  C   UNL     1       1.931   4.408  19.726  0.00  0.00    +0.000 A 
ATOM     25  C   UNL     1       1.727   3.109  20.222  0.00  0.00    +0.000 A 
ATOM     26  C   UNL     1       1.790   2.003  19.373  0.00  0.00    +0.000 A 
ATOM     27  C   UNL     1       2.067   2.181  18.021  0.00  0.00    +0.000 A 
ATOM     28  C   UNL     1       2.275   3.465  17.514  0.00  0.00    +0.000 A 
ATOM     29  C   UNL     1       2.202   4.590  18.352  0.00  0.00    +0.000 A 
ATOM     30  C   UNL     1       2.392   5.892  17.853  0.00  0.00    +0.000 A 
ENDBRANCH  20  21
ENDBRANCH   2  20
TORSDOF 3
ENDMDL
MODEL 4
REMARK VINA RESULT:      -8.8      8.153      9.039
REMARK  Name = 
REMARK  3 active torsions:
REMARK  status: ('A' for Active; 'I' for Inactive)
REMARK    1  A    between atoms: C_2  and  C_3
REMARK    2  A    between atoms: C_3  and  C_4
REMARK    3  A    between atoms: C_18  and  C_19
REMARK                            x       y       z     vdW  Elec       q    Type
REMARK                         _______ _______ _______ _____ _____    ______ ____
ROOT
ATOM      1  O   UNL     1       1.703   8.491  19.827  0.00  0.00    +0.000 OA
ATOM      2  C   UNL     1       1.716   8.910  18.672  0.00  0.00    +0.000 C 
ATOM      3  N   UNL     1       0.920   9.911  18.157  0.00  0.00    +0.000 N 
ATOM      4  C   UNL     1       0.081  10.723  18.886  0.00  0.00    +0.000 A 
ATOM      5  N   UNL     1      -0.825  11.497  18.332  0.00  0.00    +0.000 NA
ATOM      6  N   UNL     1      -1.529  12.230  19.278  0.00  0.00    +0.000 NA
ATOM      7  C   UNL     1      -1.076  12.037  20.504  0.00  0.00    +0.000 A 
ATOM      8  S   UNL     1       0.207  10.891  20.576  0.00  0.00    +0.000 S 
ATOM      9  H   UNL     1       0.811   9.996  17.155  0.00  0.00    +0.000 HD
ENDROOT
BRANCH   7  10
ATOM     10  C   UNL     1      -1.605  12.668  21.719  0.00  0.00    +0.000 A 
ATOM     11  C   UNL     1      -2.865  12.288  22.212  0.00  0.00    +0.000 A 
ATOM     12  C   UNL     1      -3.389  12.869  23.374  0.00  0.00    +0.000 A 
ATOM     13  C   UNL     1      -2.668  13.852  24.045  0.00  0.00    +0.000 A 
ATOM     14  C   UNL     1      -1.410  14.235  23.573  0.00  0.00    +0.000 A 
ATOM     15  C   UNL     1      -0.889  13.659  22.414  0.00  0.00    +0.000 A 
ATOM     16  O   UNL     1      -0.631  15.182  24.187  0.00  0.00    +0.000 OA
ATOM     17  C   UNL     1      -1.092  15.464  25.514  0.00  0.00    +0.000 C 
ATOM     18  C   UNL     1      -2.603  15.621  25.536  0.00  0.00    +0.000 C 
ATOM     19  O   UNL     1      -3.247  14.397  25.161  0.00  0.00    +0.000 OA
ENDBRANCH   7  10
BRANCH   2  20
ATOM     20  C   UNL     1       2.676   8.312  17.653  0.00  0.00    +0.000 C 
BRANCH  20  21
ATOM     21  C   UNL     1       3.014   6.864  17.903  0.00  0.00    +0.000 A 
ATOM     22  C   UNL     1       4.346   6.440  17.967  0.00  0.00    +0.000 A 
ATOM     23  C   UNL     1       4.654   5.092  18.179  0.00  0.00    +0.000 A 
ATOM     24  C   UNL     1       3.639   4.137  18.328  0.00  0.00    +0.000 A 
ATOM     25  C   UNL     1       3.933   2.782  18.560  0.00  0.00    +0.000 A 
ATOM     26  C   UNL     1       2.910   1.844  18.706  0.00  0.00    +0.000 A 
ATOM     27  C   UNL     1       1.582   2.247  18.613  0.00  0.00    +0.000 A 
ATOM     28  C   UNL     1       1.273   3.589  18.381  0.00  0.00    +0.000 A 
ATOM     29  C   UNL     1       2.290   4.548  18.244  0.00  0.00    +0.000 A 
ATOM     30  C   UNL     1       1.995   5.906  18.028  0.00  0.00    +0.000 A 
ENDBRANCH  20  21
ENDBRANCH   2  20
TORSDOF 3
ENDMDL
MODEL 5
REMARK VINA RESULT:      -8.8      5.842      8.128
REMARK  Name = 
REMARK  3 active torsions:
REMARK  status: ('A' for Active; 'I' for Inactive)
REMARK    1  A    between atoms: C_2  and  C_3
REMARK    2  A    between atoms: C_3  and  C_4
REMARK    3  A    between atoms: C_18  and  C_19
REMARK                            x       y       z     vdW  Elec       q    Type
REMARK                         _______ _______ _______ _____ _____    ______ ____
ROOT
ATOM      1  O   UNL     1       2.719   4.863  19.306  0.00  0.00    +0.000 OA
ATOM      2  C   UNL     1       3.662   5.171  18.581  0.00  0.00    +0.000 C 
ATOM      3  N   UNL     1       3.811   6.359  17.897  0.00  0.00    +0.000 N 
ATOM      4  C   UNL     1       3.005   7.466  18.027  0.00  0.00    +0.000 A 
ATOM      5  N   UNL     1       3.041   8.481  17.193  0.00  0.00    +0.000 NA
ATOM      6  N   UNL     1       2.146   9.480  17.552  0.00  0.00    +0.000 NA
ATOM      7  C   UNL     1       1.524   9.214  18.686  0.00  0.00    +0.000 A 
ATOM      8  S   UNL     1       1.955   7.686  19.351  0.00  0.00    +0.000 S 
ATOM      9  H   UNL     1       4.466   6.413  17.128  0.00  0.00    +0.000 HD
ENDROOT
BRANCH   7  10
ATOM     10  C   UNL     1       0.523  10.073  19.333  0.00  0.00    +0.000 A 
ATOM     11  C   UNL     1      -0.525  10.619  18.573  0.00  0.00    +0.000 A 
ATOM     12  C   UNL     1      -1.496  11.435  19.166  0.00  0.00    +0.000 A 
ATOM     13  C   UNL     1      -1.420  11.730  20.524  0.00  0.00    +0.000 A 
ATOM     14  C   UNL     1      -0.389  11.188  21.296  0.00  0.00    +0.000 A 
ATOM     15  C   UNL     1       0.581  10.378  20.704  0.00  0.00    +0.000 A 
ATOM     16  O   UNL     1      -0.255  11.417  22.642  0.00  0.00    +0.000 OA
ATOM     17  C   UNL     1      -1.451  11.969  23.203  0.00  0.00    +0.000 C 
ATOM     18  C   UNL     1      -2.003  13.073  22.316  0.00  0.00    +0.000 C 
ATOM     19  O   UNL     1      -2.388  12.553  21.038  0.00  0.00    +0.000 OA
ENDBRANCH   7  10
BRANCH   2  20
ATOM     20  C   UNL     1       4.814   4.200  18.370  0.00  0.00    +0.000 C 
BRANCH  20  21
ATOM     21  C   UNL     1       5.557   4.401  17.072  0.00  0.00    +0.000 A 
ATOM     22  C   UNL     1       6.731   5.162  17.029  0.00  0.00    +0.000 A 
ATOM     23  C   UNL     1       7.404   5.362  15.820  0.00  0.00    +0.000 A 
ATOM     24  C   UNL     1       6.918   4.811  14.625  0.00  0.00    +0.000 A 
ATOM     25  C   UNL     1       7.593   4.990  13.406  0.00  0.00    +0.000 A 
ATOM     26  C   UNL     1       7.094   4.435  12.226  0.00  0.00    +0.000 A 
ATOM     27  C   UNL     1       5.911   3.703  12.249  0.00  0.00    +0.000 A 
ATOM     28  C   UNL     1       5.227   3.519  13.453  0.00  0.00    +0.000 A 
ATOM     29  C   UNL     1       5.721   4.060  14.651  0.00  0.00    +0.000 A 
ATOM     30  C   UNL     1       5.054   3.869  15.874  0.00  0.00    +0.000 A 
ENDBRANCH  20  21
ENDBRANCH   2  20
TORSDOF 3
ENDMDL
MODEL 6
REMARK VINA RESULT:      -8.7      8.266     10.465
REMARK  Name = 
REMARK  3 active torsions:
REMARK  status: ('A' for Active; 'I' for Inactive)
REMARK    1  A    between atoms: C_2  and  C_3
REMARK    2  A    between atoms: C_3  and  C_4
REMARK    3  A    between atoms: C_18  and  C_19
REMARK                            x       y       z     vdW  Elec       q    Type
REMARK                         _______ _______ _______ _____ _____    ______ ____
ROOT
ATOM      1  O   UNL     1       1.193   9.197  17.102  0.00  0.00    +0.000 OA
ATOM      2  C   UNL     1       1.626   9.087  18.247  0.00  0.00    +0.000 C 
ATOM      3  N   UNL     1       1.110   9.688  19.376  0.00  0.00    +0.000 N 
ATOM      4  C   UNL     1      -0.071  10.392  19.442  0.00  0.00    +0.000 A 
ATOM      5  N   UNL     1      -0.403  11.138  20.471  0.00  0.00    +0.000 NA
ATOM      6  N   UNL     1      -1.649  11.727  20.303  0.00  0.00    +0.000 NA
ATOM      7  C   UNL     1      -2.243  11.340  19.189  0.00  0.00    +0.000 A 
ATOM      8  S   UNL     1      -1.276  10.275  18.244  0.00  0.00    +0.000 S 
ATOM      9  H   UNL     1       1.682   9.760  20.208  0.00  0.00    +0.000 HD
ENDROOT
BRANCH   7  10
ATOM     10  C   UNL     1      -3.567  11.778  18.730  0.00  0.00    +0.000 A 
ATOM     11  C   UNL     1      -3.993  11.467  17.428  0.00  0.00    +0.000 A 
ATOM     12  C   UNL     1      -5.254  11.866  16.968  0.00  0.00    +0.000 A 
ATOM     13  C   UNL     1      -6.096  12.599  17.798  0.00  0.00    +0.000 A 
ATOM     14  C   UNL     1      -5.691  12.909  19.099  0.00  0.00    +0.000 A 
ATOM     15  C   UNL     1      -4.434  12.514  19.556  0.00  0.00    +0.000 A 
ATOM     16  O   UNL     1      -6.470  13.612  19.983  0.00  0.00    +0.000 OA
ATOM     17  C   UNL     1      -7.832  13.680  19.546  0.00  0.00    +0.000 C 
ATOM     18  C   UNL     1      -7.907  14.015  18.066  0.00  0.00    +0.000 C 
ATOM     19  O   UNL     1      -7.307  12.980  17.279  0.00  0.00    +0.000 OA
ENDBRANCH   7  10
BRANCH   2  20
ATOM     20  C   UNL     1       2.848   8.223  18.523  0.00  0.00    +0.000 C 
BRANCH  20  21
ATOM     21  C   UNL     1       2.519   6.808  18.931  0.00  0.00    +0.000 A 
ATOM     22  C   UNL     1       2.117   6.515  20.239  0.00  0.00    +0.000 A 
ATOM     23  C   UNL     1       1.833   5.200  20.618  0.00  0.00    +0.000 A 
ATOM     24  C   UNL     1       1.949   4.146  19.700  0.00  0.00    +0.000 A 
ATOM     25  C   UNL     1       1.651   2.821  20.062  0.00  0.00    +0.000 A 
ATOM     26  C   UNL     1       1.773   1.784  19.136  0.00  0.00    +0.000 A 
ATOM     27  C   UNL     1       2.203   2.056  17.842  0.00  0.00    +0.000 A 
ATOM     28  C   UNL     1       2.506   3.367  17.468  0.00  0.00    +0.000 A 
ATOM     29  C   UNL     1       2.377   4.424  18.383  0.00  0.00    +0.000 A 
ATOM     30  C   UNL     1       2.661   5.753  18.017  0.00  0.00    +0.000 A 
ENDBRANCH  20  21
ENDBRANCH   2  20
TORSDOF 3
ENDMDL
MODEL 7
REMARK VINA RESULT:      -8.6      8.588     10.201
REMARK  Name = 
REMARK  3 active torsions:
REMARK  status: ('A' for Active; 'I' for Inactive)
REMARK    1  A    between atoms: C_2  and  C_3
REMARK    2  A    between atoms: C_3  and  C_4
REMARK    3  A    between atoms: C_18  and  C_19
REMARK                            x       y       z     vdW  Elec       q    Type
REMARK                         _______ _______ _______ _____ _____    ______ ____
ROOT
ATOM      1  O   UNL     1       0.213   9.629  17.956  0.00  0.00    +0.000 OA
ATOM      2  C   UNL     1       1.231   9.486  18.630  0.00  0.00    +0.000 C 
ATOM      3  N   UNL     1       1.510  10.109  19.828  0.00  0.00    +0.000 N 
ATOM      4  C   UNL     1       0.633  10.881  20.554  0.00  0.00    +0.000 A 
ATOM      5  N   UNL     1       1.009  11.640  21.559  0.00  0.00    +0.000 NA
ATOM      6  N   UNL     1      -0.064  12.303  22.139  0.00  0.00    +0.000 NA
ATOM      7  C   UNL     1      -1.219  11.960  21.598  0.00  0.00    +0.000 A 
ATOM      8  S   UNL     1      -1.050  10.845  20.297  0.00  0.00    +0.000 S 
ATOM      9  H   UNL     1       2.465  10.141  20.163  0.00  0.00    +0.000 HD
ENDROOT
BRANCH   7  10
ATOM     10  C   UNL     1      -2.535  12.480  21.992  0.00  0.00    +0.000 A 
ATOM     11  C   UNL     1      -2.973  12.338  23.320  0.00  0.00    +0.000 A 
ATOM     12  C   UNL     1      -4.220  12.831  23.723  0.00  0.00    +0.000 A 
ATOM     13  C   UNL     1      -5.052  13.456  22.799  0.00  0.00    +0.000 A 
ATOM     14  C   UNL     1      -4.628  13.613  21.477  0.00  0.00    +0.000 A 
ATOM     15  C   UNL     1      -3.387  13.117  21.074  0.00  0.00    +0.000 A 
ATOM     16  O   UNL     1      -5.381  14.231  20.512  0.00  0.00    +0.000 OA
ATOM     17  C   UNL     1      -6.460  14.978  21.086  0.00  0.00    +0.000 C 
ATOM     18  C   UNL     1      -7.160  14.170  22.166  0.00  0.00    +0.000 C 
ATOM     19  O   UNL     1      -6.269  13.895  23.253  0.00  0.00    +0.000 OA
ENDBRANCH   7  10
BRANCH   2  20
ATOM     20  C   UNL     1       2.334   8.548  18.162  0.00  0.00    +0.000 C 
BRANCH  20  21
ATOM     21  C   UNL     1       2.208   7.140  18.689  0.00  0.00    +0.000 A 
ATOM     22  C   UNL     1       1.995   6.903  20.052  0.00  0.00    +0.000 A 
ATOM     23  C   UNL     1       1.900   5.596  20.540  0.00  0.00    +0.000 A 
ATOM     24  C   UNL     1       2.020   4.496  19.678  0.00  0.00    +0.000 A 
ATOM     25  C   UNL     1       1.908   3.177  20.151  0.00  0.00    +0.000 A 
ATOM     26  C   UNL     1       2.031   2.094  19.280  0.00  0.00    +0.000 A 
ATOM     27  C   UNL     1       2.276   2.315  17.928  0.00  0.00    +0.000 A 
ATOM     28  C   UNL     1       2.391   3.619  17.443  0.00  0.00    +0.000 A 
ATOM     29  C   UNL     1       2.258   4.721  18.304  0.00  0.00    +0.000 A 
ATOM     30  C   UNL     1       2.354   6.041  17.829  0.00  0.00    +0.000 A 
ENDBRANCH  20  21
ENDBRANCH   2  20
TORSDOF 3
ENDMDL
MODEL 8
REMARK VINA RESULT:      -8.6      7.252      9.799
REMARK  Name = 
REMARK  3 active torsions:
REMARK  status: ('A' for Active; 'I' for Inactive)
REMARK    1  A    between atoms: C_2  and  C_3
REMARK    2  A    between atoms: C_3  and  C_4
REMARK    3  A    between atoms: C_18  and  C_19
REMARK                            x       y       z     vdW  Elec       q    Type
REMARK                         _______ _______ _______ _____ _____    ______ ____
ROOT
ATOM      1  O   UNL     1      -0.355  10.903  17.933  0.00  0.00    +0.000 OA
ATOM      2  C   UNL     1      -0.274  11.155  19.133  0.00  0.00    +0.000 C 
ATOM      3  N   UNL     1       0.297  10.352  20.099  0.00  0.00    +0.000 N 
ATOM      4  C   UNL     1       1.013   9.200  19.863  0.00  0.00    +0.000 A 
ATOM      5  N   UNL     1       1.333   8.350  20.813  0.00  0.00    +0.000 NA
ATOM      6  N   UNL     1       2.071   7.280  20.323  0.00  0.00    +0.000 NA
ATOM      7  C   UNL     1       2.344   7.404  19.037  0.00  0.00    +0.000 A 
ATOM      8  S   UNL     1       1.655   8.816  18.333  0.00  0.00    +0.000 S 
ATOM      9  H   UNL     1       0.077  10.511  21.073  0.00  0.00    +0.000 HD
ENDROOT
BRANCH   7  10
ATOM     10  C   UNL     1       3.109   6.445  18.231  0.00  0.00    +0.000 A 
ATOM     11  C   UNL     1       2.749   5.086  18.234  0.00  0.00    +0.000 A 
ATOM     12  C   UNL     1       3.457   4.152  17.468  0.00  0.00    +0.000 A 
ATOM     13  C   UNL     1       4.545   4.561  16.705  0.00  0.00    +0.000 A 
ATOM     14  C   UNL     1       4.911   5.909  16.684  0.00  0.00    +0.000 A 
ATOM     15  C   UNL     1       4.208   6.840  17.450  0.00  0.00    +0.000 A 
ATOM     16  O   UNL     1       5.960   6.395  15.944  0.00  0.00    +0.000 OA
ATOM     17  C   UNL     1       6.395   5.446  14.963  0.00  0.00    +0.000 C 
ATOM     18  C   UNL     1       6.496   4.055  15.565  0.00  0.00    +0.000 C 
ATOM     19  O   UNL     1       5.210   3.593  15.997  0.00  0.00    +0.000 OA
ENDBRANCH   7  10
BRANCH   2  20
ATOM     20  C   UNL     1      -0.837  12.458  19.682  0.00  0.00    +0.000 C 
BRANCH  20  21
ATOM     21  C   UNL     1      -2.335  12.452  19.862  0.00  0.00    +0.000 A 
ATOM     22  C   UNL     1      -2.916  12.941  21.038  0.00  0.00    +0.000 A 
ATOM     23  C   UNL     1      -4.304  12.914  21.208  0.00  0.00    +0.000 A 
ATOM     24  C   UNL     1      -5.142  12.394  20.211  0.00  0.00    +0.000 A 
ATOM     25  C   UNL     1      -6.539  12.377  20.362  0.00  0.00    +0.000 A 
ATOM     26  C   UNL     1      -7.358  11.855  19.359  0.00  0.00    +0.000 A 
ATOM     27  C   UNL     1      -6.792  11.337  18.200  0.00  0.00    +0.000 A 
ATOM     28  C   UNL     1      -5.405  11.344  18.036  0.00  0.00    +0.000 A 
ATOM     29  C   UNL     1      -4.566  11.877  19.030  0.00  0.00    +0.000 A 
ATOM     30  C   UNL     1      -3.169  11.908  18.873  0.00  0.00    +0.000 A 
ENDBRANCH  20  21
ENDBRANCH   2  20
TORSDOF 3
ENDMDL
MODEL 9
REMARK VINA RESULT:      -8.6      8.341      9.830
REMARK  Name = 
REMARK  3 active torsions:
REMARK  status: ('A' for Active; 'I' for Inactive)
REMARK    1  A    between atoms: C_2  and  C_3
REMARK    2  A    between atoms: C_3  and  C_4
REMARK    3  A    between atoms: C_18  and  C_19
REMARK                            x       y       z     vdW  Elec       q    Type
REMARK                         _______ _______ _______ _____ _____    ______ ____
ROOT
ATOM      1  O   UNL     1       1.663   8.583  19.791  0.00  0.00    +0.000 OA
ATOM      2  C   UNL     1       1.707   8.860  18.594  0.00  0.00    +0.000 C 
ATOM      3  N   UNL     1       0.804   9.641  17.904  0.00  0.00    +0.000 N 
ATOM      4  C   UNL     1      -0.216  10.374  18.466  0.00  0.00    +0.000 A 
ATOM      5  N   UNL     1      -1.186  10.910  17.759  0.00  0.00    +0.000 NA
ATOM      6  N   UNL     1      -2.079  11.614  18.555  0.00  0.00    +0.000 NA
ATOM      7  C   UNL     1      -1.707  11.648  19.821  0.00  0.00    +0.000 A 
ATOM      8  S   UNL     1      -0.264  10.758  20.124  0.00  0.00    +0.000 S 
ATOM      9  H   UNL     1       0.768   9.587  16.894  0.00  0.00    +0.000 HD
ENDROOT
BRANCH   7  10
ATOM     10  C   UNL     1      -2.434  12.316  20.908  0.00  0.00    +0.000 A 
ATOM     11  C   UNL     1      -2.018  12.139  22.239  0.00  0.00    +0.000 A 
ATOM     12  C   UNL     1      -2.689  12.771  23.293  0.00  0.00    +0.000 A 
ATOM     13  C   UNL     1      -3.796  13.571  23.031  0.00  0.00    +0.000 A 
ATOM     14  C   UNL     1      -4.218  13.764  21.713  0.00  0.00    +0.000 A 
ATOM     15  C   UNL     1      -3.551  13.131  20.663  0.00  0.00    +0.000 A 
ATOM     16  O   UNL     1      -5.288  14.551  21.372  0.00  0.00    +0.000 OA
ATOM     17  C   UNL     1      -5.687  15.396  22.457  0.00  0.00    +0.000 C 
ATOM     18  C   UNL     1      -5.728  14.617  23.761  0.00  0.00    +0.000 C 
ATOM     19  O   UNL     1      -4.422  14.141  24.109  0.00  0.00    +0.000 OA
ENDBRANCH   7  10
BRANCH   2  20
ATOM     20  C   UNL     1       2.835   8.323  17.725  0.00  0.00    +0.000 C 
BRANCH  20  21
ATOM     21  C   UNL     1       3.113   6.853  17.920  0.00  0.00    +0.000 A 
ATOM     22  C   UNL     1       4.426   6.365  17.910  0.00  0.00    +0.000 A 
ATOM     23  C   UNL     1       4.678   4.999  18.071  0.00  0.00    +0.000 A 
ATOM     24  C   UNL     1       3.625   4.089  18.241  0.00  0.00    +0.000 A 
ATOM     25  C   UNL     1       3.864   2.715  18.421  0.00  0.00    +0.000 A 
ATOM     26  C   UNL     1       2.804   1.823  18.588  0.00  0.00    +0.000 A 
ATOM     27  C   UNL     1       1.494   2.289  18.568  0.00  0.00    +0.000 A 
ATOM     28  C   UNL     1       1.240   3.650  18.387  0.00  0.00    +0.000 A 
ATOM     29  C   UNL     1       2.295   4.564  18.230  0.00  0.00    +0.000 A 
ATOM     30  C   UNL     1       2.057   5.941  18.065  0.00  0.00    +0.000 A 
ENDBRANCH  20  21
ENDBRANCH   2  20
TORSDOF 3
ENDMDL
