MODEL 1
REMARK VINA RESULT:      -9.8      0.000      0.000
REMARK  Name = 
REMARK  4 active torsions:
REMARK  status: ('A' for Active; 'I' for Inactive)
REMARK    1  A    between atoms: C_1  and  C_2
REMARK    2  A    between atoms: C_5  and  C_6
REMARK    3  A    between atoms: N_8  and  C_9
REMARK    4  A    between atoms: C_14  and  C_15
REMARK                            x       y       z     vdW  Elec       q    Type
REMARK                         _______ _______ _______ _____ _____    ______ ____
ROOT
ATOM      1  C   UNL     1       1.011   4.508  19.641  0.00  0.00    +0.000 C 
ATOM      2  C   UNL     1       2.279   4.587  18.827  0.00  0.00    +0.000 A 
ATOM      3  C   UNL     1       2.827   3.343  18.455  0.00  0.00    +0.000 A 
ATOM      4  C   UNL     1       3.951   3.259  17.646  0.00  0.00    +0.000 A 
ATOM      5  C   UNL     1       4.571   4.421  17.197  0.00  0.00    +0.000 A 
ATOM      6  C   UNL     1       4.054   5.670  17.583  0.00  0.00    +0.000 A 
ATOM      7  C   UNL     1       2.909   5.799  18.417  0.00  0.00    +0.000 A 
ENDROOT
BRANCH   7   8
ATOM      8  C   UNL     1       2.395   7.168  18.763  0.00  0.00    +0.000 A 
ATOM      9  C   UNL     1       2.026   7.518  20.089  0.00  0.00    +0.000 A 
ATOM     10  C   UNL     1       1.323   8.692  20.405  0.00  0.00    +0.000 A 
ATOM     11  C   UNL     1       1.068   9.596  19.390  0.00  0.00    +0.000 A 
ATOM     12  C   UNL     1       1.712   9.393  18.191  0.00  0.00    +0.000 A 
ATOM     13  C   UNL     1       2.294   8.199  17.810  0.00  0.00    +0.000 A 
ATOM     14  N   UNL     1       1.983  10.653  17.684  0.00  0.00    +0.000 N 
ATOM     15  C   UNL     1       1.631  11.530  18.699  0.00  0.00    +0.000 C 
ATOM     16  O   UNL     1       2.250  12.546  18.978  0.00  0.00    +0.000 OA
ATOM     17  C   UNL     1       0.334  10.976  19.483  0.00  0.00    +0.000 C 
ATOM     18  C   UNL     1      -1.048  10.175  19.463  0.00  0.00    +0.000 C 
ATOM     19  C   UNL     1      -1.621  10.156  18.056  0.00  0.00    +0.000 C 
ATOM     20  C   UNL     1      -1.665  11.619  17.787  0.00  0.00    +0.000 C 
ATOM     21  C   UNL     1      -0.437  12.135  18.528  0.00  0.00    +0.000 C 
ATOM     22  H   UNL     1       2.797  10.832  17.113  0.00  0.00    +0.000 HD
ENDBRANCH   7   8
BRANCH   5  23
ATOM     23  C   UNL     1       5.736   4.262  16.283  0.00  0.00    +0.000 C 
ATOM     24  O   UNL     1       6.870   4.495  16.695  0.00  0.00    +0.000 OA
ATOM     25  N   UNL     1       5.476   3.890  14.978  0.00  0.00    +0.000 N 
ATOM     26  H   UNL     1       4.515   3.853  14.670  0.00  0.00    +0.000 HD
BRANCH  25  27
ATOM     27  C   UNL     1       6.567   3.794  13.992  0.00  0.00    +0.000 C 
ATOM     28  C   UNL     1       6.108   3.486  12.547  0.00  0.00    +0.000 C 
ATOM     29  C   UNL     1       7.188   4.482  12.072  0.00  0.00    +0.000 C 
ATOM     30  C   UNL     1       7.066   5.158  13.453  0.00  0.00    +0.000 C 
ENDBRANCH  25  27
ENDBRANCH   5  23
TORSDOF 3
ENDMDL
MODEL 2
REMARK VINA RESULT:      -8.7      3.036      8.484
REMARK  Name = 
REMARK  4 active torsions:
REMARK  status: ('A' for Active; 'I' for Inactive)
REMARK    1  A    between atoms: C_1  and  C_2
REMARK    2  A    between atoms: C_5  and  C_6
REMARK    3  A    between atoms: N_8  and  C_9
REMARK    4  A    between atoms: C_14  and  C_15
REMARK                            x       y       z     vdW  Elec       q    Type
REMARK                         _______ _______ _______ _____ _____    ______ ____
ROOT
ATOM      1  C   UNL     1      -0.304   8.292  21.613  0.00  0.00    +0.000 C 
ATOM      2  C   UNL     1       0.053   9.498  20.779  0.00  0.00    +0.000 A 
ATOM      3  C   UNL     1      -0.622  10.685  21.128  0.00  0.00    +0.000 A 
ATOM      4  C   UNL     1      -0.344  11.889  20.498  0.00  0.00    +0.000 A 
ATOM      5  C   UNL     1       0.610  11.938  19.486  0.00  0.00    +0.000 A 
ATOM      6  C   UNL     1       1.272  10.756  19.106  0.00  0.00    +0.000 A 
ATOM      7  C   UNL     1       1.010   9.502  19.721  0.00  0.00    +0.000 A 
ENDROOT
BRANCH   7   8
ATOM      8  C   UNL     1       1.779   8.287  19.285  0.00  0.00    +0.000 A 
ATOM      9  C   UNL     1       2.271   8.146  17.960  0.00  0.00    +0.000 A 
ATOM     10  C   UNL     1       2.776   6.938  17.454  0.00  0.00    +0.000 A 
ATOM     11  C   UNL     1       2.893   5.863  18.318  0.00  0.00    +0.000 A 
ATOM     12  C   UNL     1       2.719   6.114  19.659  0.00  0.00    +0.000 A 
ATOM     13  C   UNL     1       2.103   7.240  20.169  0.00  0.00    +0.000 A 
ATOM     14  N   UNL     1       3.590   5.267  20.323  0.00  0.00    +0.000 N 
ATOM     15  C   UNL     1       4.352   4.683  19.323  0.00  0.00    +0.000 C 
ATOM     16  O   UNL     1       5.548   4.443  19.415  0.00  0.00    +0.000 OA
ATOM     17  C   UNL     1       3.444   4.431  18.012  0.00  0.00    +0.000 C 
ATOM     18  C   UNL     1       2.024   4.086  17.368  0.00  0.00    +0.000 C 
ATOM     19  C   UNL     1       1.156   3.353  18.378  0.00  0.00    +0.000 C 
ATOM     20  C   UNL     1       2.061   2.219  18.706  0.00  0.00    +0.000 C 
ATOM     21  C   UNL     1       3.444   2.853  18.614  0.00  0.00    +0.000 C 
ATOM     22  H   UNL     1       4.014   5.525  21.203  0.00  0.00    +0.000 HD
ENDBRANCH   7   8
BRANCH   5  23
ATOM     23  C   UNL     1       0.906  13.271  18.891  0.00  0.00    +0.000 C 
ATOM     24  O   UNL     1      -0.014  13.970  18.474  0.00  0.00    +0.000 OA
ATOM     25  N   UNL     1       2.232  13.648  18.801  0.00  0.00    +0.000 N 
ATOM     26  H   UNL     1       2.943  12.968  19.032  0.00  0.00    +0.000 HD
BRANCH  25  27
ATOM     27  C   UNL     1       2.611  14.915  18.149  0.00  0.00    +0.000 C 
ATOM     28  C   UNL     1       2.766  16.116  19.111  0.00  0.00    +0.000 C 
ATOM     29  C   UNL     1       3.986  16.540  18.265  0.00  0.00    +0.000 C 
ATOM     30  C   UNL     1       4.127  15.058  17.862  0.00  0.00    +0.000 C 
ENDBRANCH  25  27
ENDBRANCH   5  23
TORSDOF 3
ENDMDL
MODEL 3
REMARK VINA RESULT:      -8.5      3.069      9.010
REMARK  Name = 
REMARK  4 active torsions:
REMARK  status: ('A' for Active; 'I' for Inactive)
REMARK    1  A    between atoms: C_1  and  C_2
REMARK    2  A    between atoms: C_5  and  C_6
REMARK    3  A    between atoms: N_8  and  C_9
REMARK    4  A    between atoms: C_14  and  C_15
REMARK                            x       y       z     vdW  Elec       q    Type
REMARK                         _______ _______ _______ _____ _____    ______ ____
ROOT
ATOM      1  C   UNL     1      -0.312   8.400  21.585  0.00  0.00    +0.000 C 
ATOM      2  C   UNL     1       0.050   9.595  20.736  0.00  0.00    +0.000 A 
ATOM      3  C   UNL     1      -0.619  10.789  21.072  0.00  0.00    +0.000 A 
ATOM      4  C   UNL     1      -0.337  11.984  20.427  0.00  0.00    +0.000 A 
ATOM      5  C   UNL     1       0.615  12.016  19.412  0.00  0.00    +0.000 A 
ATOM      6  C   UNL     1       1.270  10.826  19.044  0.00  0.00    +0.000 A 
ATOM      7  C   UNL     1       1.003   9.581  19.676  0.00  0.00    +0.000 A 
ENDROOT
BRANCH   7   8
ATOM      8  C   UNL     1       1.765   8.357  19.252  0.00  0.00    +0.000 A 
ATOM      9  C   UNL     1       2.242   8.192  17.924  0.00  0.00    +0.000 A 
ATOM     10  C   UNL     1       2.739   6.974  17.434  0.00  0.00    +0.000 A 
ATOM     11  C   UNL     1       2.864   5.915  18.315  0.00  0.00    +0.000 A 
ATOM     12  C   UNL     1       2.706   6.189  19.654  0.00  0.00    +0.000 A 
ATOM     13  C   UNL     1       2.097   7.326  20.151  0.00  0.00    +0.000 A 
ATOM     14  N   UNL     1       3.583   5.353  20.323  0.00  0.00    +0.000 N 
ATOM     15  C   UNL     1       4.333   4.750  19.324  0.00  0.00    +0.000 C 
ATOM     16  O   UNL     1       5.529   4.509  19.407  0.00  0.00    +0.000 OA
ATOM     17  C   UNL     1       3.409   4.476  18.029  0.00  0.00    +0.000 C 
ATOM     18  C   UNL     1       1.981   4.122  17.408  0.00  0.00    +0.000 C 
ATOM     19  C   UNL     1       1.124   3.409  18.440  0.00  0.00    +0.000 C 
ATOM     20  C   UNL     1       2.031   2.279  18.778  0.00  0.00    +0.000 C 
ATOM     21  C   UNL     1       3.413   2.909  18.659  0.00  0.00    +0.000 C 
ATOM     22  H   UNL     1       4.018   5.625  21.193  0.00  0.00    +0.000 HD
ENDBRANCH   7   8
BRANCH   5  23
ATOM     23  C   UNL     1       0.915  13.340  18.800  0.00  0.00    +0.000 C 
ATOM     24  O   UNL     1       1.863  13.454  18.027  0.00  0.00    +0.000 OA
ATOM     25  N   UNL     1       0.119  14.407  19.169  0.00  0.00    +0.000 N 
ATOM     26  H   UNL     1      -0.551  14.274  19.914  0.00  0.00    +0.000 HD
BRANCH  25  27
ATOM     27  C   UNL     1       0.403  15.766  18.673  0.00  0.00    +0.000 C 
ATOM     28  C   UNL     1      -0.752  16.777  18.858  0.00  0.00    +0.000 C 
ATOM     29  C   UNL     1       0.323  17.825  19.217  0.00  0.00    +0.000 C 
ATOM     30  C   UNL     1       1.219  16.647  19.652  0.00  0.00    +0.000 C 
ENDBRANCH  25  27
ENDBRANCH   5  23
TORSDOF 3
ENDMDL
MODEL 4
REMARK VINA RESULT:      -8.4      2.832      8.331
REMARK  Name = 
REMARK  4 active torsions:
REMARK  status: ('A' for Active; 'I' for Inactive)
REMARK    1  A    between atoms: C_1  and  C_2
REMARK    2  A    between atoms: C_5  and  C_6
REMARK    3  A    between atoms: N_8  and  C_9
REMARK    4  A    between atoms: C_14  and  C_15
REMARK                            x       y       z     vdW  Elec       q    Type
REMARK                         _______ _______ _______ _____ _____    ______ ____
ROOT
ATOM      1  C   UNL     1       1.812   9.159  22.101  0.00  0.00    +0.000 C 
ATOM      2  C   UNL     1       0.923   9.527  20.938  0.00  0.00    +0.000 A 
ATOM      3  C   UNL     1      -0.055  10.501  21.222  0.00  0.00    +0.000 A 
ATOM      4  C   UNL     1      -0.897  10.992  20.235  0.00  0.00    +0.000 A 
ATOM      5  C   UNL     1      -0.796  10.508  18.934  0.00  0.00    +0.000 A 
ATOM      6  C   UNL     1       0.155   9.514  18.641  0.00  0.00    +0.000 A 
ATOM      7  C   UNL     1       1.031   8.981  19.626  0.00  0.00    +0.000 A 
ENDROOT
BRANCH   7   8
ATOM      8  C   UNL     1       2.043   7.943  19.233  0.00  0.00    +0.000 A 
ATOM      9  C   UNL     1       2.851   8.083  18.072  0.00  0.00    +0.000 A 
ATOM     10  C   UNL     1       3.625   7.037  17.547  0.00  0.00    +0.000 A 
ATOM     11  C   UNL     1       3.684   5.847  18.250  0.00  0.00    +0.000 A 
ATOM     12  C   UNL     1       3.164   5.844  19.524  0.00  0.00    +0.000 A 
ATOM     13  C   UNL     1       2.292   6.797  20.013  0.00  0.00    +0.000 A 
ATOM     14  N   UNL     1       3.962   4.987  20.261  0.00  0.00    +0.000 N 
ATOM     15  C   UNL     1       5.014   4.663  19.417  0.00  0.00    +0.000 C 
ATOM     16  O   UNL     1       6.175   4.532  19.778  0.00  0.00    +0.000 OA
ATOM     17  C   UNL     1       4.487   4.551  17.895  0.00  0.00    +0.000 C 
ATOM     18  C   UNL     1       3.322   4.181  16.867  0.00  0.00    +0.000 C 
ATOM     19  C   UNL     1       2.352   3.202  17.506  0.00  0.00    +0.000 C 
ATOM     20  C   UNL     1       3.304   2.125  17.890  0.00  0.00    +0.000 C 
ATOM     21  C   UNL     1       4.566   2.901  18.248  0.00  0.00    +0.000 C 
ATOM     22  H   UNL     1       4.125   5.130  21.248  0.00  0.00    +0.000 HD
ENDBRANCH   7   8
BRANCH   5  23
ATOM     23  C   UNL     1      -1.688  11.118  17.908  0.00  0.00    +0.000 C 
ATOM     24  O   UNL     1      -2.307  12.146  18.172  0.00  0.00    +0.000 OA
ATOM     25  N   UNL     1      -1.807  10.463  16.698  0.00  0.00    +0.000 N 
ATOM     26  H   UNL     1      -1.382   9.552  16.599  0.00  0.00    +0.000 HD
BRANCH  25  27
ATOM     27  C   UNL     1      -2.733  10.957  15.663  0.00  0.00    +0.000 C 
ATOM     28  C   UNL     1      -2.787  10.097  14.379  0.00  0.00    +0.000 C 
ATOM     29  C   UNL     1      -4.309  10.348  14.363  0.00  0.00    +0.000 C 
ATOM     30  C   UNL     1      -4.214  10.562  15.888  0.00  0.00    +0.000 C 
ENDBRANCH  25  27
ENDBRANCH   5  23
TORSDOF 3
ENDMDL
MODEL 5
REMARK VINA RESULT:      -8.3      3.156      9.092
REMARK  Name = 
REMARK  4 active torsions:
REMARK  status: ('A' for Active; 'I' for Inactive)
REMARK    1  A    between atoms: C_1  and  C_2
REMARK    2  A    between atoms: C_5  and  C_6
REMARK    3  A    between atoms: N_8  and  C_9
REMARK    4  A    between atoms: C_14  and  C_15
REMARK                            x       y       z     vdW  Elec       q    Type
REMARK                         _______ _______ _______ _____ _____    ______ ____
ROOT
ATOM      1  C   UNL     1       1.755   9.256  22.570  0.00  0.00    +0.000 C 
ATOM      2  C   UNL     1       0.789   9.750  21.522  0.00  0.00    +0.000 A 
ATOM      3  C   UNL     1      -0.054  10.801  21.937  0.00  0.00    +0.000 A 
ATOM      4  C   UNL     1      -0.943  11.406  21.061  0.00  0.00    +0.000 A 
ATOM      5  C   UNL     1      -1.027  10.966  19.744  0.00  0.00    +0.000 A 
ATOM      6  C   UNL     1      -0.214   9.899  19.322  0.00  0.00    +0.000 A 
ATOM      7  C   UNL     1       0.705   9.248  20.190  0.00  0.00    +0.000 A 
ENDROOT
BRANCH   7   8
ATOM      8  C   UNL     1       1.564   8.135  19.661  0.00  0.00    +0.000 A 
ATOM      9  C   UNL     1       2.116   8.170  18.352  0.00  0.00    +0.000 A 
ATOM     10  C   UNL     1       2.715   7.056  17.743  0.00  0.00    +0.000 A 
ATOM     11  C   UNL     1       2.865   5.901  18.490  0.00  0.00    +0.000 A 
ATOM     12  C   UNL     1       2.623   5.992  19.842  0.00  0.00    +0.000 A 
ATOM     13  C   UNL     1       1.918   7.018  20.441  0.00  0.00    +0.000 A 
ATOM     14  N   UNL     1       3.519   5.129  20.450  0.00  0.00    +0.000 N 
ATOM     15  C   UNL     1       4.355   4.704  19.428  0.00  0.00    +0.000 C 
ATOM     16  O   UNL     1       5.558   4.524  19.550  0.00  0.00    +0.000 OA
ATOM     17  C   UNL     1       3.517   4.545  18.058  0.00  0.00    +0.000 C 
ATOM     18  C   UNL     1       2.147   4.192  17.316  0.00  0.00    +0.000 C 
ATOM     19  C   UNL     1       1.288   3.304  18.200  0.00  0.00    +0.000 C 
ATOM     20  C   UNL     1       2.249   2.194  18.444  0.00  0.00    +0.000 C 
ATOM     21  C   UNL     1       3.591   2.914  18.486  0.00  0.00    +0.000 C 
ATOM     22  H   UNL     1       3.890   5.311  21.371  0.00  0.00    +0.000 HD
ENDBRANCH   7   8
BRANCH   5  23
ATOM     23  C   UNL     1      -1.957  11.696  18.838  0.00  0.00    +0.000 C 
ATOM     24  O   UNL     1      -1.507  12.457  17.986  0.00  0.00    +0.000 OA
ATOM     25  N   UNL     1      -3.312  11.506  19.030  0.00  0.00    +0.000 N 
ATOM     26  H   UNL     1      -3.615  10.979  19.837  0.00  0.00    +0.000 HD
BRANCH  25  27
ATOM     27  C   UNL     1      -4.298  12.256  18.231  0.00  0.00    +0.000 C 
ATOM     28  C   UNL     1      -4.939  11.454  17.075  0.00  0.00    +0.000 C 
ATOM     29  C   UNL     1      -6.270  12.149  17.429  0.00  0.00    +0.000 C 
ATOM     30  C   UNL     1      -5.714  12.322  18.858  0.00  0.00    +0.000 C 
ENDBRANCH  25  27
ENDBRANCH   5  23
TORSDOF 3
ENDMDL
MODEL 6
REMARK VINA RESULT:      -8.2      2.240      8.476
REMARK  Name = 
REMARK  4 active torsions:
REMARK  status: ('A' for Active; 'I' for Inactive)
REMARK    1  A    between atoms: C_1  and  C_2
REMARK    2  A    between atoms: C_5  and  C_6
REMARK    3  A    between atoms: N_8  and  C_9
REMARK    4  A    between atoms: C_14  and  C_15
REMARK                            x       y       z     vdW  Elec       q    Type
REMARK                         _______ _______ _______ _____ _____    ______ ____
ROOT
ATOM      1  C   UNL     1       1.143   7.314  21.083  0.00  0.00    +0.000 C 
ATOM      2  C   UNL     1       1.159   8.589  20.276  0.00  0.00    +0.000 A 
ATOM      3  C   UNL     1       0.458   9.668  20.852  0.00  0.00    +0.000 A 
ATOM      4  C   UNL     1       0.445  10.923  20.262  0.00  0.00    +0.000 A 
ATOM      5  C   UNL     1       1.123  11.132  19.065  0.00  0.00    +0.000 A 
ATOM      6  C   UNL     1       1.803  10.059  18.461  0.00  0.00    +0.000 A 
ATOM      7  C   UNL     1       1.833   8.757  19.031  0.00  0.00    +0.000 A 
ENDROOT
BRANCH   7   8
ATOM      8  C   UNL     1       2.607   7.666  18.346  0.00  0.00    +0.000 A 
ATOM      9  C   UNL     1       2.149   6.322  18.323  0.00  0.00    +0.000 A 
ATOM     10  C   UNL     1       2.951   5.246  17.909  0.00  0.00    +0.000 A 
ATOM     11  C   UNL     1       4.209   5.522  17.404  0.00  0.00    +0.000 A 
ATOM     12  C   UNL     1       4.503   6.838  17.135  0.00  0.00    +0.000 A 
ATOM     13  C   UNL     1       3.802   7.915  17.644  0.00  0.00    +0.000 A 
ATOM     14  N   UNL     1       5.316   6.828  16.014  0.00  0.00    +0.000 N 
ATOM     15  C   UNL     1       5.317   5.509  15.586  0.00  0.00    +0.000 C 
ATOM     16  O   UNL     1       5.303   5.162  14.414  0.00  0.00    +0.000 OA
ATOM     17  C   UNL     1       5.276   4.515  16.858  0.00  0.00    +0.000 C 
ATOM     18  C   UNL     1       5.671   4.203  18.374  0.00  0.00    +0.000 C 
ATOM     19  C   UNL     1       6.891   5.017  18.773  0.00  0.00    +0.000 C 
ATOM     20  C   UNL     1       7.836   4.586  17.709  0.00  0.00    +0.000 C 
ATOM     21  C   UNL     1       6.922   4.389  16.505  0.00  0.00    +0.000 C 
ATOM     22  H   UNL     1       5.306   7.582  15.343  0.00  0.00    +0.000 HD
ENDBRANCH   7   8
BRANCH   5  23
ATOM     23  C   UNL     1       1.121  12.516  18.513  0.00  0.00    +0.000 C 
ATOM     24  O   UNL     1       0.084  12.987  18.051  0.00  0.00    +0.000 OA
ATOM     25  N   UNL     1       2.319  13.203  18.513  0.00  0.00    +0.000 N 
ATOM     26  H   UNL     1       3.159  12.706  18.776  0.00  0.00    +0.000 HD
BRANCH  25  27
ATOM     27  C   UNL     1       2.418  14.544  17.909  0.00  0.00    +0.000 C 
ATOM     28  C   UNL     1       2.219  15.716  18.898  0.00  0.00    +0.000 C 
ATOM     29  C   UNL     1       3.348  16.448  18.141  0.00  0.00    +0.000 C 
ATOM     30  C   UNL     1       3.868  15.058  17.723  0.00  0.00    +0.000 C 
ENDBRANCH  25  27
ENDBRANCH   5  23
TORSDOF 3
ENDMDL
MODEL 7
REMARK VINA RESULT:      -8.1      3.366      9.801
REMARK  Name = 
REMARK  4 active torsions:
REMARK  status: ('A' for Active; 'I' for Inactive)
REMARK    1  A    between atoms: C_1  and  C_2
REMARK    2  A    between atoms: C_5  and  C_6
REMARK    3  A    between atoms: N_8  and  C_9
REMARK    4  A    between atoms: C_14  and  C_15
REMARK                            x       y       z     vdW  Elec       q    Type
REMARK                         _______ _______ _______ _____ _____    ______ ____
ROOT
ATOM      1  C   UNL     1      -1.143   9.708  17.139  0.00  0.00    +0.000 C 
ATOM      2  C   UNL     1      -0.884  10.301  18.503  0.00  0.00    +0.000 A 
ATOM      3  C   UNL     1      -1.758  11.341  18.876  0.00  0.00    +0.000 A 
ATOM      4  C   UNL     1      -1.688  11.933  20.129  0.00  0.00    +0.000 A 
ATOM      5  C   UNL     1      -0.727  11.510  21.042  0.00  0.00    +0.000 A 
ATOM      6  C   UNL     1       0.172  10.493  20.674  0.00  0.00    +0.000 A 
ATOM      7  C   UNL     1       0.137   9.867  19.398  0.00  0.00    +0.000 A 
ENDROOT
BRANCH   7   8
ATOM      8  C   UNL     1       1.109   8.765  19.087  0.00  0.00    +0.000 A 
ATOM      9  C   UNL     1       1.790   8.694  17.842  0.00  0.00    +0.000 A 
ATOM     10  C   UNL     1       2.512   7.563  17.427  0.00  0.00    +0.000 A 
ATOM     11  C   UNL     1       2.651   6.511  18.314  0.00  0.00    +0.000 A 
ATOM     12  C   UNL     1       2.266   6.733  19.616  0.00  0.00    +0.000 A 
ATOM     13  C   UNL     1       1.445   7.767  20.022  0.00  0.00    +0.000 A 
ATOM     14  N   UNL     1       3.143   6.006  20.403  0.00  0.00    +0.000 N 
ATOM     15  C   UNL     1       4.102   5.530  19.523  0.00  0.00    +0.000 C 
ATOM     16  O   UNL     1       5.295   5.448  19.778  0.00  0.00    +0.000 OA
ATOM     17  C   UNL     1       3.420   5.164  18.106  0.00  0.00    +0.000 C 
ATOM     18  C   UNL     1       2.156   4.637  17.283  0.00  0.00    +0.000 C 
ATOM     19  C   UNL     1       1.264   3.795  18.178  0.00  0.00    +0.000 C 
ATOM     20  C   UNL     1       2.257   2.788  18.641  0.00  0.00    +0.000 C 
ATOM     21  C   UNL     1       3.544   3.599  18.726  0.00  0.00    +0.000 C 
ATOM     22  H   UNL     1       3.407   6.314  21.328  0.00  0.00    +0.000 HD
ENDBRANCH   7   8
BRANCH   5  23
ATOM     23  C   UNL     1      -0.743  12.144  22.390  0.00  0.00    +0.000 C 
ATOM     24  O   UNL     1      -0.555  11.455  23.390  0.00  0.00    +0.000 OA
ATOM     25  N   UNL     1      -1.011  13.497  22.454  0.00  0.00    +0.000 N 
ATOM     26  H   UNL     1      -1.295  13.973  21.609  0.00  0.00    +0.000 HD
BRANCH  25  27
ATOM     27  C   UNL     1      -1.126  14.181  23.755  0.00  0.00    +0.000 C 
ATOM     28  C   UNL     1      -1.088  15.725  23.681  0.00  0.00    +0.000 C 
ATOM     29  C   UNL     1      -2.179  15.730  24.773  0.00  0.00    +0.000 C 
ATOM     30  C   UNL     1      -2.579  14.326  24.276  0.00  0.00    +0.000 C 
ENDBRANCH  25  27
ENDBRANCH   5  23
TORSDOF 3
ENDMDL
MODEL 8
REMARK VINA RESULT:      -8.1      3.166      8.573
REMARK  Name = 
REMARK  4 active torsions:
REMARK  status: ('A' for Active; 'I' for Inactive)
REMARK    1  A    between atoms: C_1  and  C_2
REMARK    2  A    between atoms: C_5  and  C_6
REMARK    3  A    between atoms: N_8  and  C_9
REMARK    4  A    between atoms: C_14  and  C_15
REMARK                            x       y       z     vdW  Elec       q    Type
REMARK                         _______ _______ _______ _____ _____    ______ ____
ROOT
ATOM      1  C   UNL     1      -0.730   8.231  21.606  0.00  0.00    +0.000 C 
ATOM      2  C   UNL     1      -0.072   9.531  21.214  0.00  0.00    +0.000 A 
ATOM      3  C   UNL     1      -0.627  10.683  21.806  0.00  0.00    +0.000 A 
ATOM      4  C   UNL     1      -0.082  11.941  21.597  0.00  0.00    +0.000 A 
ATOM      5  C   UNL     1       1.030  12.086  20.772  0.00  0.00    +0.000 A 
ATOM      6  C   UNL     1       1.578  10.950  20.149  0.00  0.00    +0.000 A 
ATOM      7  C   UNL     1       1.044   9.645  20.333  0.00  0.00    +0.000 A 
ENDROOT
BRANCH   7   8
ATOM      8  C   UNL     1       1.702   8.474  19.661  0.00  0.00    +0.000 A 
ATOM      9  C   UNL     1       1.866   8.413  18.251  0.00  0.00    +0.000 A 
ATOM     10  C   UNL     1       2.251   7.244  17.575  0.00  0.00    +0.000 A 
ATOM     11  C   UNL     1       2.585   6.131  18.325  0.00  0.00    +0.000 A 
ATOM     12  C   UNL     1       2.733   6.310  19.682  0.00  0.00    +0.000 A 
ATOM     13  C   UNL     1       2.241   7.393  20.384  0.00  0.00    +0.000 A 
ATOM     14  N   UNL     1       3.748   5.454  20.072  0.00  0.00    +0.000 N 
ATOM     15  C   UNL     1       4.257   4.940  18.889  0.00  0.00    +0.000 C 
ATOM     16  O   UNL     1       5.443   4.726  18.682  0.00  0.00    +0.000 OA
ATOM     17  C   UNL     1       3.066   4.730  17.820  0.00  0.00    +0.000 C 
ATOM     18  C   UNL     1       1.538   4.381  17.514  0.00  0.00    +0.000 C 
ATOM     19  C   UNL     1       0.946   3.577  18.660  0.00  0.00    +0.000 C 
ATOM     20  C   UNL     1       1.918   2.452  18.700  0.00  0.00    +0.000 C 
ATOM     21  C   UNL     1       3.230   3.125  18.318  0.00  0.00    +0.000 C 
ATOM     22  H   UNL     1       4.366   5.678  20.839  0.00  0.00    +0.000 HD
ENDBRANCH   7   8
BRANCH   5  23
ATOM     23  C   UNL     1       1.603  13.454  20.636  0.00  0.00    +0.000 C 
ATOM     24  O   UNL     1       1.557  14.232  21.585  0.00  0.00    +0.000 OA
ATOM     25  N   UNL     1       2.137  13.801  19.409  0.00  0.00    +0.000 N 
ATOM     26  H   UNL     1       2.014  13.165  18.633  0.00  0.00    +0.000 HD
BRANCH  25  27
ATOM     27  C   UNL     1       2.647  15.162  19.169  0.00  0.00    +0.000 C 
ATOM     28  C   UNL     1       3.394  15.346  17.827  0.00  0.00    +0.000 C 
ATOM     29  C   UNL     1       2.706  16.724  17.719  0.00  0.00    +0.000 C 
ATOM     30  C   UNL     1       1.591  16.155  18.620  0.00  0.00    +0.000 C 
ENDBRANCH  25  27
ENDBRANCH   5  23
TORSDOF 3
ENDMDL
MODEL 9
REMARK VINA RESULT:      -8.0      1.625      2.335
REMARK  Name = 
REMARK  4 active torsions:
REMARK  status: ('A' for Active; 'I' for Inactive)
REMARK    1  A    between atoms: C_1  and  C_2
REMARK    2  A    between atoms: C_5  and  C_6
REMARK    3  A    between atoms: N_8  and  C_9
REMARK    4  A    between atoms: C_14  and  C_15
REMARK                            x       y       z     vdW  Elec       q    Type
REMARK                         _______ _______ _______ _____ _____    ______ ____
ROOT
ATOM      1  C   UNL     1       1.475   5.471  20.892  0.00  0.00    +0.000 C 
ATOM      2  C   UNL     1       2.631   5.434  19.921  0.00  0.00    +0.000 A 
ATOM      3  C   UNL     1       3.398   4.252  19.953  0.00  0.00    +0.000 A 
ATOM      4  C   UNL     1       4.447   4.045  19.069  0.00  0.00    +0.000 A 
ATOM      5  C   UNL     1       4.770   5.025  18.135  0.00  0.00    +0.000 A 
ATOM      6  C   UNL     1       4.033   6.222  18.110  0.00  0.00    +0.000 A 
ATOM      7  C   UNL     1       2.956   6.476  19.004  0.00  0.00    +0.000 A 
ENDROOT
BRANCH   7   8
ATOM      8  C   UNL     1       2.193   7.765  18.898  0.00  0.00    +0.000 A 
ATOM      9  C   UNL     1       2.143   8.511  17.690  0.00  0.00    +0.000 A 
ATOM     10  C   UNL     1       1.649   9.824  17.619  0.00  0.00    +0.000 A 
ATOM     11  C   UNL     1       1.093  10.377  18.758  0.00  0.00    +0.000 A 
ATOM     12  C   UNL     1       0.857   9.531  19.817  0.00  0.00    +0.000 A 
ATOM     13  C   UNL     1       1.441   8.288  19.967  0.00  0.00    +0.000 A 
ATOM     14  N   UNL     1      -0.302   9.986  20.421  0.00  0.00    +0.000 N 
ATOM     15  C   UNL     1      -0.778  10.978  19.577  0.00  0.00    +0.000 C 
ATOM     16  O   UNL     1      -1.961  11.165  19.328  0.00  0.00    +0.000 OA
ATOM     17  C   UNL     1       0.456  11.796  18.934  0.00  0.00    +0.000 C 
ATOM     18  C   UNL     1       1.937  12.380  19.065  0.00  0.00    +0.000 C 
ATOM     19  C   UNL     1       2.304  12.548  20.530  0.00  0.00    +0.000 C 
ATOM     20  C   UNL     1       1.178  13.415  20.970  0.00  0.00    +0.000 C 
ATOM     21  C   UNL     1       0.016  12.915  20.119  0.00  0.00    +0.000 C 
ATOM     22  H   UNL     1      -0.944   9.357  20.881  0.00  0.00    +0.000 HD
ENDBRANCH   7   8
BRANCH   5  23
ATOM     23  C   UNL     1       5.867   4.717  17.176  0.00  0.00    +0.000 C 
ATOM     24  O   UNL     1       7.035   4.917  17.501  0.00  0.00    +0.000 OA
ATOM     25  N   UNL     1       5.508   4.247  15.927  0.00  0.00    +0.000 N 
ATOM     26  H   UNL     1       4.529   4.241  15.679  0.00  0.00    +0.000 HD
BRANCH  25  27
ATOM     27  C   UNL     1       6.530   3.999  14.895  0.00  0.00    +0.000 C 
ATOM     28  C   UNL     1       5.966   3.662  13.494  0.00  0.00    +0.000 C 
ATOM     29  C   UNL     1       7.104   4.527  12.910  0.00  0.00    +0.000 C 
ATOM     30  C   UNL     1       7.120   5.281  14.256  0.00  0.00    +0.000 C 
ENDBRANCH  25  27
ENDBRANCH   5  23
TORSDOF 3
ENDMDL
