MODEL 1
REMARK VINA RESULT:      -8.2      0.000      0.000
REMARK  Name = 
REMARK  5 active torsions:
REMARK  status: ('A' for Active; 'I' for Inactive)
REMARK    1  A    between atoms: N_4  and  C_5
REMARK    2  A    between atoms: C_5  and  C_6
REMARK    3  A    between atoms: C_6  and  C_7
REMARK    4  A    between atoms: C_7  and  N_8
REMARK    5  A    between atoms: N_20  and  C_21
REMARK                            x       y       z     vdW  Elec       q    Type
REMARK                         _______ _______ _______ _____ _____    ______ ____
ROOT
ATOM      1  O   UNL     1       5.167   6.930  15.271  0.00  0.00    +0.000 OA
ATOM      2  C   UNL     1       5.790   6.274  16.113  0.00  0.00    +0.000 C 
ATOM      3  C   UNL     1       5.675   6.669  17.599  0.00  0.00    +0.000 C 
ATOM      4  N   UNL     1       6.140   5.663  18.587  0.00  0.00    +0.000 NA
ATOM      5  C   UNL     1       7.420   5.112  18.123  0.00  0.00    +0.000 C 
ATOM      6  C   UNL     1       7.264   4.376  16.794  0.00  0.00    +0.000 C 
ATOM      7  N   UNL     1       6.646   5.224  15.779  0.00  0.00    +0.000 N 
ENDROOT
BRANCH   7   8
ATOM      8  C   UNL     1       6.846   4.860  14.423  0.00  0.00    +0.000 A 
ATOM      9  C   UNL     1       7.807   5.520  13.648  0.00  0.00    +0.000 A 
ATOM     10  C   UNL     1       7.968   5.196  12.300  0.00  0.00    +0.000 A 
ATOM     11  C   UNL     1       7.135   4.246  11.711  0.00  0.00    +0.000 A 
ATOM     12  C   UNL     1       6.165   3.603  12.479  0.00  0.00    +0.000 A 
ATOM     13 CL   UNL     1       5.098   2.478  11.732  0.00  0.00    +0.000 Cl
ATOM     14  C   UNL     1       6.032   3.886  13.837  0.00  0.00    +0.000 A 
ENDBRANCH   7   8
BRANCH   4  15
ATOM     15  C   UNL     1       5.103   4.652  18.867  0.00  0.00    +0.000 C 
BRANCH  15  16
ATOM     16  C   UNL     1       3.925   5.219  19.672  0.00  0.00    +0.000 C 
BRANCH  16  17
ATOM     17  C   UNL     1       2.819   5.746  18.762  0.00  0.00    +0.000 C 
BRANCH  17  18
ATOM     18  N   UNL     1       2.274   6.990  19.256  0.00  0.00    +0.000 N 
ATOM     19  N   UNL     1       1.745   7.122  20.525  0.00  0.00    +0.000 NA
ATOM     20  C   UNL     1       1.320   8.349  20.551  0.00  0.00    +0.000 A 
ATOM     21  C   UNL     1       0.675   9.056  21.677  0.00  0.00    +0.000 A 
ATOM     22  C   UNL     1       0.322  10.340  21.491  0.00  0.00    +0.000 A 
ATOM     23  C   UNL     1       0.550  11.011  20.223  0.00  0.00    +0.000 A 
ATOM     24  C   UNL     1       1.131  10.350  19.212  0.00  0.00    +0.000 A 
ATOM     25  N   UNL     1       1.501   9.046  19.399  0.00  0.00    +0.000 N 
ATOM     26  C   UNL     1       2.104   8.176  18.522  0.00  0.00    +0.000 A 
ATOM     27  O   UNL     1       2.419   8.372  17.358  0.00  0.00    +0.000 OA
ENDBRANCH  17  18
ENDBRANCH  16  17
ENDBRANCH  15  16
ENDBRANCH   4  15
TORSDOF 5
ENDMDL
MODEL 2
REMARK VINA RESULT:      -8.2      5.395      7.472
REMARK  Name = 
REMARK  5 active torsions:
REMARK  status: ('A' for Active; 'I' for Inactive)
REMARK    1  A    between atoms: N_4  and  C_5
REMARK    2  A    between atoms: C_5  and  C_6
REMARK    3  A    between atoms: C_6  and  C_7
REMARK    4  A    between atoms: C_7  and  N_8
REMARK    5  A    between atoms: N_20  and  C_21
REMARK                            x       y       z     vdW  Elec       q    Type
REMARK                         _______ _______ _______ _____ _____    ______ ____
ROOT
ATOM      1  O   UNL     1       3.046   6.658  17.803  0.00  0.00    +0.000 OA
ATOM      2  C   UNL     1       4.138   6.228  17.416  0.00  0.00    +0.000 C 
ATOM      3  C   UNL     1       5.086   7.178  16.657  0.00  0.00    +0.000 C 
ATOM      4  N   UNL     1       6.498   6.737  16.528  0.00  0.00    +0.000 NA
ATOM      5  C   UNL     1       6.509   5.317  16.153  0.00  0.00    +0.000 C 
ATOM      6  C   UNL     1       5.880   4.446  17.239  0.00  0.00    +0.000 C 
ATOM      7  N   UNL     1       4.534   4.900  17.579  0.00  0.00    +0.000 N 
ENDROOT
BRANCH   7   8
ATOM      8  C   UNL     1       3.676   3.963  18.207  0.00  0.00    +0.000 A 
ATOM      9  C   UNL     1       2.886   3.100  17.437  0.00  0.00    +0.000 A 
ATOM     10  C   UNL     1       2.003   2.214  18.055  0.00  0.00    +0.000 A 
ATOM     11  C   UNL     1       1.872   2.220  19.443  0.00  0.00    +0.000 A 
ATOM     12  C   UNL     1       2.644   3.093  20.208  0.00  0.00    +0.000 A 
ATOM     13 CL   UNL     1       2.432   3.141  21.916  0.00  0.00    +0.000 Cl
ATOM     14  C   UNL     1       3.564   3.946  19.601  0.00  0.00    +0.000 A 
ENDBRANCH   7   8
BRANCH   4  15
ATOM     15  C   UNL     1       7.284   7.059  17.734  0.00  0.00    +0.000 C 
BRANCH  15  16
ATOM     16  C   UNL     1       7.955   8.438  17.654  0.00  0.00    +0.000 C 
BRANCH  16  17
ATOM     17  C   UNL     1       8.688   8.787  18.946  0.00  0.00    +0.000 C 
BRANCH  17  18
ATOM     18  N   UNL     1       9.172  10.148  18.929  0.00  0.00    +0.000 N 
ATOM     19  N   UNL     1       9.565  10.787  17.769  0.00  0.00    +0.000 NA
ATOM     20  C   UNL     1       9.979  11.945  18.185  0.00  0.00    +0.000 A 
ATOM     21  C   UNL     1      10.500  13.063  17.370  0.00  0.00    +0.000 A 
ATOM     22  C   UNL     1      10.865  14.188  18.009  0.00  0.00    +0.000 A 
ATOM     23  C   UNL     1      10.767  14.303  19.454  0.00  0.00    +0.000 A 
ATOM     24  C   UNL     1      10.298  13.275  20.176  0.00  0.00    +0.000 A 
ATOM     25  N   UNL     1       9.916  12.131  19.529  0.00  0.00    +0.000 N 
ATOM     26  C   UNL     1       9.412  10.962  20.049  0.00  0.00    +0.000 A 
ATOM     27  O   UNL     1       9.220  10.677  21.221  0.00  0.00    +0.000 OA
ENDBRANCH  17  18
ENDBRANCH  16  17
ENDBRANCH  15  16
ENDBRANCH   4  15
TORSDOF 5
ENDMDL
MODEL 3
REMARK VINA RESULT:      -8.1      5.420      7.475
REMARK  Name = 
REMARK  5 active torsions:
REMARK  status: ('A' for Active; 'I' for Inactive)
REMARK    1  A    between atoms: N_4  and  C_5
REMARK    2  A    between atoms: C_5  and  C_6
REMARK    3  A    between atoms: C_6  and  C_7
REMARK    4  A    between atoms: C_7  and  N_8
REMARK    5  A    between atoms: N_20  and  C_21
REMARK                            x       y       z     vdW  Elec       q    Type
REMARK                         _______ _______ _______ _____ _____    ______ ____
ROOT
ATOM      1  O   UNL     1       3.380   6.382  17.272  0.00  0.00    +0.000 OA
ATOM      2  C   UNL     1       4.556   6.004  17.221  0.00  0.00    +0.000 C 
ATOM      3  C   UNL     1       5.604   6.919  16.555  0.00  0.00    +0.000 C 
ATOM      4  N   UNL     1       7.028   6.598  16.826  0.00  0.00    +0.000 NA
ATOM      5  C   UNL     1       7.209   5.146  16.701  0.00  0.00    +0.000 C 
ATOM      6  C   UNL     1       6.388   4.387  17.741  0.00  0.00    +0.000 C 
ATOM      7  N   UNL     1       4.976   4.757  17.685  0.00  0.00    +0.000 N 
ENDROOT
BRANCH   7   8
ATOM      8  C   UNL     1       4.046   3.845  18.244  0.00  0.00    +0.000 A 
ATOM      9  C   UNL     1       3.374   2.928  17.426  0.00  0.00    +0.000 A 
ATOM     10  C   UNL     1       2.422   2.066  17.970  0.00  0.00    +0.000 A 
ATOM     11  C   UNL     1       2.102   2.149  19.324  0.00  0.00    +0.000 A 
ATOM     12  C   UNL     1       2.758   3.076  20.134  0.00  0.00    +0.000 A 
ATOM     13 CL   UNL     1       2.314   3.218  21.792  0.00  0.00    +0.000 Cl
ATOM     14  C   UNL     1       3.746   3.906  19.609  0.00  0.00    +0.000 A 
ENDBRANCH   7   8
BRANCH   4  15
ATOM     15  C   UNL     1       7.480   7.164  18.111  0.00  0.00    +0.000 C 
BRANCH  15  16
ATOM     16  C   UNL     1       8.518   8.283  17.933  0.00  0.00    +0.000 C 
BRANCH  16  17
ATOM     17  C   UNL     1       7.875   9.666  17.995  0.00  0.00    +0.000 C 
BRANCH  17  18
ATOM     18  N   UNL     1       8.858  10.695  18.244  0.00  0.00    +0.000 N 
ATOM     19  N   UNL     1       9.968  10.492  19.040  0.00  0.00    +0.000 NA
ATOM     20  C   UNL     1      10.549  11.652  19.054  0.00  0.00    +0.000 A 
ATOM     21  C   UNL     1      11.805  12.024  19.738  0.00  0.00    +0.000 A 
ATOM     22  C   UNL     1      12.238  13.291  19.609  0.00  0.00    +0.000 A 
ATOM     23  C   UNL     1      11.493  14.270  18.837  0.00  0.00    +0.000 A 
ATOM     24  C   UNL     1      10.352  13.915  18.230  0.00  0.00    +0.000 A 
ATOM     25  N   UNL     1       9.912  12.624  18.350  0.00  0.00    +0.000 N 
ATOM     26  C   UNL     1       8.786  12.035  17.825  0.00  0.00    +0.000 A 
ATOM     27  O   UNL     1       7.907  12.549  17.151  0.00  0.00    +0.000 OA
ENDBRANCH  17  18
ENDBRANCH  16  17
ENDBRANCH  15  16
ENDBRANCH   4  15
TORSDOF 5
ENDMDL
MODEL 4
REMARK VINA RESULT:      -8.1      2.623      3.855
REMARK  Name = 
REMARK  5 active torsions:
REMARK  status: ('A' for Active; 'I' for Inactive)
REMARK    1  A    between atoms: N_4  and  C_5
REMARK    2  A    between atoms: C_5  and  C_6
REMARK    3  A    between atoms: C_6  and  C_7
REMARK    4  A    between atoms: C_7  and  N_8
REMARK    5  A    between atoms: N_20  and  C_21
REMARK                            x       y       z     vdW  Elec       q    Type
REMARK                         _______ _______ _______ _____ _____    ______ ____
ROOT
ATOM      1  O   UNL     1       5.124   3.399  19.796  0.00  0.00    +0.000 OA
ATOM      2  C   UNL     1       3.989   3.397  19.308  0.00  0.00    +0.000 C 
ATOM      3  C   UNL     1       2.821   2.831  20.141  0.00  0.00    +0.000 C 
ATOM      4  N   UNL     1       1.453   3.168  19.673  0.00  0.00    +0.000 NA
ATOM      5  C   UNL     1       1.402   2.989  18.217  0.00  0.00    +0.000 C 
ATOM      6  C   UNL     1       2.353   3.946  17.501  0.00  0.00    +0.000 C 
ATOM      7  N   UNL     1       3.717   3.828  18.009  0.00  0.00    +0.000 N 
ENDROOT
BRANCH   7   8
ATOM      8  C   UNL     1       4.761   4.293  17.170  0.00  0.00    +0.000 A 
ATOM      9  C   UNL     1       5.121   3.575  16.023  0.00  0.00    +0.000 A 
ATOM     10  C   UNL     1       6.183   4.006  15.227  0.00  0.00    +0.000 A 
ATOM     11  C   UNL     1       6.919   5.129  15.600  0.00  0.00    +0.000 A 
ATOM     12  C   UNL     1       6.572   5.833  16.753  0.00  0.00    +0.000 A 
ATOM     13 CL   UNL     1       7.524   7.182  17.243  0.00  0.00    +0.000 Cl
ATOM     14  C   UNL     1       5.483   5.438  17.526  0.00  0.00    +0.000 A 
ENDBRANCH   7   8
BRANCH   4  15
ATOM     15  C   UNL     1       1.027   4.499  20.143  0.00  0.00    +0.000 C 
BRANCH  15  16
ATOM     16  C   UNL     1       2.197   5.347  20.662  0.00  0.00    +0.000 C 
BRANCH  16  17
ATOM     17  C   UNL     1       2.396   6.610  19.828  0.00  0.00    +0.000 C 
BRANCH  17  18
ATOM     18  N   UNL     1       1.677   7.732  20.387  0.00  0.00    +0.000 N 
ATOM     19  N   UNL     1       1.136   7.715  21.659  0.00  0.00    +0.000 NA
ATOM     20  C   UNL     1       0.538   8.863  21.750  0.00  0.00    +0.000 A 
ATOM     21  C   UNL     1      -0.202   9.405  22.909  0.00  0.00    +0.000 A 
ATOM     22  C   UNL     1      -0.739  10.632  22.792  0.00  0.00    +0.000 A 
ATOM     23  C   UNL     1      -0.612  11.400  21.565  0.00  0.00    +0.000 A 
ATOM     24  C   UNL     1       0.057  10.888  20.523  0.00  0.00    +0.000 A 
ATOM     25  N   UNL     1       0.613   9.642  20.640  0.00  0.00    +0.000 N 
ATOM     26  C   UNL     1       1.335   8.920  19.719  0.00  0.00    +0.000 A 
ATOM     27  O   UNL     1       1.617   9.225  18.571  0.00  0.00    +0.000 OA
ENDBRANCH  17  18
ENDBRANCH  16  17
ENDBRANCH  15  16
ENDBRANCH   4  15
TORSDOF 5
ENDMDL
MODEL 5
REMARK VINA RESULT:      -8.0      5.320      7.633
REMARK  Name = 
REMARK  5 active torsions:
REMARK  status: ('A' for Active; 'I' for Inactive)
REMARK    1  A    between atoms: N_4  and  C_5
REMARK    2  A    between atoms: C_5  and  C_6
REMARK    3  A    between atoms: C_6  and  C_7
REMARK    4  A    between atoms: C_7  and  N_8
REMARK    5  A    between atoms: N_20  and  C_21
REMARK                            x       y       z     vdW  Elec       q    Type
REMARK                         _______ _______ _______ _____ _____    ______ ____
ROOT
ATOM      1  O   UNL     1       3.876   7.413  17.207  0.00  0.00    +0.000 OA
ATOM      2  C   UNL     1       4.862   6.695  17.407  0.00  0.00    +0.000 C 
ATOM      3  C   UNL     1       6.187   7.033  16.693  0.00  0.00    +0.000 C 
ATOM      4  N   UNL     1       7.408   6.377  17.224  0.00  0.00    +0.000 NA
ATOM      5  C   UNL     1       7.107   4.961  17.470  0.00  0.00    +0.000 C 
ATOM      6  C   UNL     1       6.027   4.796  18.538  0.00  0.00    +0.000 C 
ATOM      7  N   UNL     1       4.822   5.551  18.205  0.00  0.00    +0.000 N 
ENDROOT
BRANCH   7   8
ATOM      8  C   UNL     1       3.615   5.150  18.831  0.00  0.00    +0.000 A 
ATOM      9  C   UNL     1       3.139   5.836  19.955  0.00  0.00    +0.000 A 
ATOM     10  C   UNL     1       1.978   5.409  20.602  0.00  0.00    +0.000 A 
ATOM     11  C   UNL     1       1.317   4.266  20.156  0.00  0.00    +0.000 A 
ATOM     12  C   UNL     1       1.802   3.572  19.048  0.00  0.00    +0.000 A 
ATOM     13 CL   UNL     1       1.018   2.125  18.541  0.00  0.00    +0.000 Cl
ATOM     14  C   UNL     1       2.932   4.021  18.368  0.00  0.00    +0.000 A 
ENDBRANCH   7   8
BRANCH   4  15
ATOM     15  C   UNL     1       7.955   7.099  18.388  0.00  0.00    +0.000 C 
BRANCH  15  16
ATOM     16  C   UNL     1       8.297   8.563  18.071  0.00  0.00    +0.000 C 
BRANCH  16  17
ATOM     17  C   UNL     1       8.933   9.268  19.266  0.00  0.00    +0.000 C 
BRANCH  17  18
ATOM     18  N   UNL     1       9.388  10.594  18.917  0.00  0.00    +0.000 N 
ATOM     19  N   UNL     1      10.000  10.881  17.713  0.00  0.00    +0.000 NA
ATOM     20  C   UNL     1      10.301  12.140  17.818  0.00  0.00    +0.000 A 
ATOM     21  C   UNL     1      10.960  12.997  16.810  0.00  0.00    +0.000 A 
ATOM     22  C   UNL     1      11.167  14.288  17.124  0.00  0.00    +0.000 A 
ATOM     23  C   UNL     1      10.772  14.825  18.414  0.00  0.00    +0.000 A 
ATOM     24  C   UNL     1      10.182  14.030  19.318  0.00  0.00    +0.000 A 
ATOM     25  N   UNL     1       9.960  12.717  18.999  0.00  0.00    +0.000 N 
ATOM     26  C   UNL     1       9.379  11.724  19.752  0.00  0.00    +0.000 A 
ATOM     27  O   UNL     1       8.954  11.791  20.895  0.00  0.00    +0.000 OA
ENDBRANCH  17  18
ENDBRANCH  16  17
ENDBRANCH  15  16
ENDBRANCH   4  15
TORSDOF 5
ENDMDL
MODEL 6
REMARK VINA RESULT:      -8.0      2.072      3.085
REMARK  Name = 
REMARK  5 active torsions:
REMARK  status: ('A' for Active; 'I' for Inactive)
REMARK    1  A    between atoms: N_4  and  C_5
REMARK    2  A    between atoms: C_5  and  C_6
REMARK    3  A    between atoms: C_6  and  C_7
REMARK    4  A    between atoms: C_7  and  N_8
REMARK    5  A    between atoms: N_20  and  C_21
REMARK                            x       y       z     vdW  Elec       q    Type
REMARK                         _______ _______ _______ _____ _____    ______ ____
ROOT
ATOM      1  O   UNL     1       5.662   4.218  19.393  0.00  0.00    +0.000 OA
ATOM      2  C   UNL     1       4.574   3.828  18.957  0.00  0.00    +0.000 C 
ATOM      3  C   UNL     1       3.508   3.327  19.952  0.00  0.00    +0.000 C 
ATOM      4  N   UNL     1       2.123   3.208  19.431  0.00  0.00    +0.000 NA
ATOM      5  C   UNL     1       2.176   2.571  18.109  0.00  0.00    +0.000 C 
ATOM      6  C   UNL     1       2.945   3.427  17.105  0.00  0.00    +0.000 C 
ATOM      7  N   UNL     1       4.280   3.760  17.594  0.00  0.00    +0.000 N 
ENDROOT
BRANCH   7   8
ATOM      8  C   UNL     1       5.246   4.140  16.628  0.00  0.00    +0.000 A 
ATOM      9  C   UNL     1       6.203   5.117  16.930  0.00  0.00    +0.000 A 
ATOM     10  C   UNL     1       7.120   5.527  15.961  0.00  0.00    +0.000 A 
ATOM     11  C   UNL     1       7.053   4.997  14.674  0.00  0.00    +0.000 A 
ATOM     12  C   UNL     1       6.087   4.039  14.368  0.00  0.00    +0.000 A 
ATOM     13 CL   UNL     1       5.968   3.435  12.760  0.00  0.00    +0.000 Cl
ATOM     14  C   UNL     1       5.200   3.588  15.344  0.00  0.00    +0.000 A 
ENDBRANCH   7   8
BRANCH   4  15
ATOM     15  C   UNL     1       1.415   4.502  19.460  0.00  0.00    +0.000 C 
BRANCH  15  16
ATOM     16  C   UNL     1       2.018   5.486  20.473  0.00  0.00    +0.000 C 
BRANCH  16  17
ATOM     17  C   UNL     1       2.369   6.823  19.825  0.00  0.00    +0.000 C 
BRANCH  17  18
ATOM     18  N   UNL     1       1.620   7.909  20.415  0.00  0.00    +0.000 N 
ATOM     19  N   UNL     1       1.198   7.898  21.730  0.00  0.00    +0.000 NA
ATOM     20  C   UNL     1       0.526   9.003  21.843  0.00  0.00    +0.000 A 
ATOM     21  C   UNL     1      -0.146   9.531  23.048  0.00  0.00    +0.000 A 
ATOM     22  C   UNL     1      -0.781  10.712  22.945  0.00  0.00    +0.000 A 
ATOM     23  C   UNL     1      -0.822  11.442  21.690  0.00  0.00    +0.000 A 
ATOM     24  C   UNL     1      -0.212  10.942  20.606  0.00  0.00    +0.000 A 
ATOM     25  N   UNL     1       0.444   9.745  20.708  0.00  0.00    +0.000 N 
ATOM     26  C   UNL     1       1.133   9.045  19.746  0.00  0.00    +0.000 A 
ATOM     27  O   UNL     1       1.287   9.328  18.569  0.00  0.00    +0.000 OA
ENDBRANCH  17  18
ENDBRANCH  16  17
ENDBRANCH  15  16
ENDBRANCH   4  15
TORSDOF 5
ENDMDL
MODEL 7
REMARK VINA RESULT:      -8.0      5.146      7.594
REMARK  Name = 
REMARK  5 active torsions:
REMARK  status: ('A' for Active; 'I' for Inactive)
REMARK    1  A    between atoms: N_4  and  C_5
REMARK    2  A    between atoms: C_5  and  C_6
REMARK    3  A    between atoms: C_6  and  C_7
REMARK    4  A    between atoms: C_7  and  N_8
REMARK    5  A    between atoms: N_20  and  C_21
REMARK                            x       y       z     vdW  Elec       q    Type
REMARK                         _______ _______ _______ _____ _____    ______ ____
ROOT
ATOM      1  O   UNL     1       3.685   6.737  16.844  0.00  0.00    +0.000 OA
ATOM      2  C   UNL     1       4.692   6.187  17.303  0.00  0.00    +0.000 C 
ATOM      3  C   UNL     1       6.052   6.431  16.618  0.00  0.00    +0.000 C 
ATOM      4  N   UNL     1       7.259   6.050  17.394  0.00  0.00    +0.000 NA
ATOM      5  C   UNL     1       7.026   4.734  18.001  0.00  0.00    +0.000 C 
ATOM      6  C   UNL     1       5.867   4.772  18.994  0.00  0.00    +0.000 C 
ATOM      7  N   UNL     1       4.652   5.303  18.382  0.00  0.00    +0.000 N 
ENDROOT
BRANCH   7   8
ATOM      8  C   UNL     1       3.420   4.985  19.009  0.00  0.00    +0.000 A 
ATOM      9  C   UNL     1       2.991   5.703  20.132  0.00  0.00    +0.000 A 
ATOM     10  C   UNL     1       1.805   5.356  20.779  0.00  0.00    +0.000 A 
ATOM     11  C   UNL     1       1.068   4.259  20.334  0.00  0.00    +0.000 A 
ATOM     12  C   UNL     1       1.505   3.533  19.228  0.00  0.00    +0.000 A 
ATOM     13 CL   UNL     1       0.625   2.142  18.722  0.00  0.00    +0.000 Cl
ATOM     14  C   UNL     1       2.663   3.904  18.546  0.00  0.00    +0.000 A 
ENDBRANCH   7   8
BRANCH   4  15
ATOM     15  C   UNL     1       7.651   7.105  18.348  0.00  0.00    +0.000 C 
BRANCH  15  16
ATOM     16  C   UNL     1       8.461   8.230  17.687  0.00  0.00    +0.000 C 
BRANCH  16  17
ATOM     17  C   UNL     1       7.846   9.602  17.952  0.00  0.00    +0.000 C 
BRANCH  17  18
ATOM     18  N   UNL     1       8.860  10.593  18.225  0.00  0.00    +0.000 N 
ATOM     19  N   UNL     1       9.973  10.330  19.001  0.00  0.00    +0.000 NA
ATOM     20  C   UNL     1      10.588  11.473  19.048  0.00  0.00    +0.000 A 
ATOM     21  C   UNL     1      11.861  11.784  19.730  0.00  0.00    +0.000 A 
ATOM     22  C   UNL     1      12.329  13.042  19.640  0.00  0.00    +0.000 A 
ATOM     23  C   UNL     1      11.604  14.068  18.912  0.00  0.00    +0.000 A 
ATOM     24  C   UNL     1      10.447  13.768  18.306  0.00  0.00    +0.000 A 
ATOM     25  N   UNL     1       9.971  12.487  18.387  0.00  0.00    +0.000 N 
ATOM     26  C   UNL     1       8.823  11.948  17.854  0.00  0.00    +0.000 A 
ATOM     27  O   UNL     1       7.952  12.510  17.209  0.00  0.00    +0.000 OA
ENDBRANCH  17  18
ENDBRANCH  16  17
ENDBRANCH  15  16
ENDBRANCH   4  15
TORSDOF 5
ENDMDL
MODEL 8
REMARK VINA RESULT:      -7.9      1.099      1.609
REMARK  Name = 
REMARK  5 active torsions:
REMARK  status: ('A' for Active; 'I' for Inactive)
REMARK    1  A    between atoms: N_4  and  C_5
REMARK    2  A    between atoms: C_5  and  C_6
REMARK    3  A    between atoms: C_6  and  C_7
REMARK    4  A    between atoms: C_7  and  N_8
REMARK    5  A    between atoms: N_20  and  C_21
REMARK                            x       y       z     vdW  Elec       q    Type
REMARK                         _______ _______ _______ _____ _____    ______ ____
ROOT
ATOM      1  O   UNL     1       5.211   6.871  15.238  0.00  0.00    +0.000 OA
ATOM      2  C   UNL     1       5.861   6.226  16.069  0.00  0.00    +0.000 C 
ATOM      3  C   UNL     1       5.760   6.615  17.558  0.00  0.00    +0.000 C 
ATOM      4  N   UNL     1       6.262   5.616  18.536  0.00  0.00    +0.000 NA
ATOM      5  C   UNL     1       7.546   5.094  18.051  0.00  0.00    +0.000 C 
ATOM      6  C   UNL     1       7.385   4.358  16.723  0.00  0.00    +0.000 C 
ATOM      7  N   UNL     1       6.734   5.195  15.719  0.00  0.00    +0.000 N 
ENDROOT
BRANCH   7   8
ATOM      8  C   UNL     1       6.922   4.839  14.360  0.00  0.00    +0.000 A 
ATOM      9  C   UNL     1       7.845   5.532  13.567  0.00  0.00    +0.000 A 
ATOM     10  C   UNL     1       7.992   5.214  12.217  0.00  0.00    +0.000 A 
ATOM     11  C   UNL     1       7.182   4.236  11.642  0.00  0.00    +0.000 A 
ATOM     12  C   UNL     1       6.249   3.560  12.427  0.00  0.00    +0.000 A 
ATOM     13 CL   UNL     1       5.207   2.398  11.698  0.00  0.00    +0.000 Cl
ATOM     14  C   UNL     1       6.131   3.837  13.788  0.00  0.00    +0.000 A 
ENDBRANCH   7   8
BRANCH   4  15
ATOM     15  C   UNL     1       5.251   4.583  18.829  0.00  0.00    +0.000 C 
BRANCH  15  16
ATOM     16  C   UNL     1       3.925   4.825  18.091  0.00  0.00    +0.000 C 
BRANCH  16  17
ATOM     17  C   UNL     1       2.759   4.993  19.063  0.00  0.00    +0.000 C 
BRANCH  17  18
ATOM     18  N   UNL     1       2.312   6.366  19.119  0.00  0.00    +0.000 N 
ATOM     19  N   UNL     1       2.511   7.260  18.085  0.00  0.00    +0.000 NA
ATOM     20  C   UNL     1       2.025   8.372  18.547  0.00  0.00    +0.000 A 
ATOM     21  C   UNL     1       1.948   9.678  17.859  0.00  0.00    +0.000 A 
ATOM     22  C   UNL     1       1.390  10.704  18.524  0.00  0.00    +0.000 A 
ATOM     23  C   UNL     1       0.890  10.547  19.878  0.00  0.00    +0.000 A 
ATOM     24  C   UNL     1       0.976   9.356  20.488  0.00  0.00    +0.000 A 
ATOM     25  N   UNL     1       1.535   8.305  19.812  0.00  0.00    +0.000 N 
ATOM     26  C   UNL     1       1.727   7.007  20.225  0.00  0.00    +0.000 A 
ATOM     27  O   UNL     1       1.465   6.511  21.309  0.00  0.00    +0.000 OA
ENDBRANCH  17  18
ENDBRANCH  16  17
ENDBRANCH  15  16
ENDBRANCH   4  15
TORSDOF 5
ENDMDL
MODEL 9
REMARK VINA RESULT:      -7.7      2.219      3.161
REMARK  Name = 
REMARK  5 active torsions:
REMARK  status: ('A' for Active; 'I' for Inactive)
REMARK    1  A    between atoms: N_4  and  C_5
REMARK    2  A    between atoms: C_5  and  C_6
REMARK    3  A    between atoms: C_6  and  C_7
REMARK    4  A    between atoms: C_7  and  N_8
REMARK    5  A    between atoms: N_20  and  C_21
REMARK                            x       y       z     vdW  Elec       q    Type
REMARK                         _______ _______ _______ _____ _____    ______ ____
ROOT
ATOM      1  O   UNL     1       5.581   3.908  19.367  0.00  0.00    +0.000 OA
ATOM      2  C   UNL     1       4.549   3.469  18.848  0.00  0.00    +0.000 C 
ATOM      3  C   UNL     1       3.484   2.810  19.747  0.00  0.00    +0.000 C 
ATOM      4  N   UNL     1       2.138   2.624  19.149  0.00  0.00    +0.000 NA
ATOM      5  C   UNL     1       2.303   2.099  17.788  0.00  0.00    +0.000 C 
ATOM      6  C   UNL     1       3.043   3.089  16.891  0.00  0.00    +0.000 C 
ATOM      7  N   UNL     1       4.323   3.486  17.471  0.00  0.00    +0.000 N 
ENDROOT
BRANCH   7   8
ATOM      8  C   UNL     1       5.296   4.016  16.586  0.00  0.00    +0.000 A 
ATOM      9  C   UNL     1       6.099   5.093  16.980  0.00  0.00    +0.000 A 
ATOM     10  C   UNL     1       7.021   5.646  16.090  0.00  0.00    +0.000 A 
ATOM     11  C   UNL     1       7.108   5.157  14.788  0.00  0.00    +0.000 A 
ATOM     12  C   UNL     1       6.295   4.097  14.390  0.00  0.00    +0.000 A 
ATOM     13 CL   UNL     1       6.362   3.538  12.763  0.00  0.00    +0.000 Cl
ATOM     14  C   UNL     1       5.407   3.506  15.288  0.00  0.00    +0.000 A 
ENDBRANCH   7   8
BRANCH   4  15
ATOM     15  C   UNL     1       1.326   3.852  19.239  0.00  0.00    +0.000 C 
BRANCH  15  16
ATOM     16  C   UNL     1       1.235   4.399  20.671  0.00  0.00    +0.000 C 
BRANCH  16  17
ATOM     17  C   UNL     1       2.348   5.401  20.966  0.00  0.00    +0.000 C 
BRANCH  17  18
ATOM     18  N   UNL     1       2.044   6.704  20.423  0.00  0.00    +0.000 N 
ATOM     19  N   UNL     1       1.228   7.612  21.070  0.00  0.00    +0.000 NA
ATOM     20  C   UNL     1       1.165   8.609  20.241  0.00  0.00    +0.000 A 
ATOM     21  C   UNL     1       0.440   9.884  20.417  0.00  0.00    +0.000 A 
ATOM     22  C   UNL     1       0.520  10.793  19.429  0.00  0.00    +0.000 A 
ATOM     23  C   UNL     1       1.279  10.530  18.219  0.00  0.00    +0.000 A 
ATOM     24  C   UNL     1       1.925   9.364  18.075  0.00  0.00    +0.000 A 
ATOM     25  N   UNL     1       1.854   8.439  19.082  0.00  0.00    +0.000 N 
ATOM     26  C   UNL     1       2.425   7.191  19.161  0.00  0.00    +0.000 A 
ATOM     27  O   UNL     1       3.104   6.615  18.325  0.00  0.00    +0.000 OA
ENDBRANCH  17  18
ENDBRANCH  16  17
ENDBRANCH  15  16
ENDBRANCH   4  15
TORSDOF 5
ENDMDL
