MODEL 1
REMARK VINA RESULT:      -8.0      0.000      0.000
REMARK  Name = 
REMARK  4 active torsions:
REMARK  status: ('A' for Active; 'I' for Inactive)
REMARK    1  A    between atoms: C_1  and  O_2
REMARK    2  A    between atoms: O_2  and  C_3
REMARK    3  A    between atoms: C_15  and  C_16
REMARK    4  A    between atoms: C_15  and  C_17
REMARK                            x       y       z     vdW  Elec       q    Type
REMARK                         _______ _______ _______ _____ _____    ______ ____
ROOT
ATOM      1  C   UNL     1       2.947   6.282  18.990  0.00  0.00    +0.000 A 
ATOM      2  C   UNL     1       3.643   6.843  17.908  0.00  0.00    +0.000 A 
ATOM      3  C   UNL     1       4.347   6.032  17.016  0.00  0.00    +0.000 A 
ATOM      4  C   UNL     1       5.081   6.576  15.885  0.00  0.00    +0.000 A 
ATOM      5  C   UNL     1       5.736   5.750  15.058  0.00  0.00    +0.000 A 
ATOM      6  C   UNL     1       5.744   4.290  15.240  0.00  0.00    +0.000 A 
ATOM      7  O   UNL     1       6.353   3.561  14.469  0.00  0.00    +0.000 OA
ATOM      8  O   UNL     1       5.029   3.798  16.322  0.00  0.00    +0.000 OA
ATOM      9  C   UNL     1       4.337   4.649  17.213  0.00  0.00    +0.000 A 
ATOM     10  C   UNL     1       3.645   4.056  18.276  0.00  0.00    +0.000 A 
ATOM     11  C   UNL     1       2.933   4.886  19.154  0.00  0.00    +0.000 A 
ATOM     12  O   UNL     1       2.196   4.380  20.184  0.00  0.00    +0.000 OA
ATOM     13  C   UNL     1       1.881   2.985  20.189  0.00  0.00    +0.000 C 
ATOM     14  C   UNL     1       1.504   2.674  21.643  0.00  0.00    +0.000 C 
ATOM     15  C   UNL     1       0.658   2.750  19.293  0.00  0.00    +0.000 C 
ATOM     16  C   UNL     1       3.105   2.156  19.796  0.00  0.00    +0.000 C 
ATOM     17  C   UNL     1       3.620   2.562  18.425  0.00  0.00    +0.000 C 
ENDROOT
BRANCH   1  19
ATOM     18  C   UNL     1       1.861   8.408  19.116  0.00  0.00    +0.000 C 
ATOM     19  O   UNL     1       2.260   7.195  19.752  0.00  0.00    +0.000 OA
ENDBRANCH   1  19
TORSDOF 1
ENDMDL
MODEL 2
REMARK VINA RESULT:      -7.5      1.369      1.369
REMARK  Name = 
REMARK  4 active torsions:
REMARK  status: ('A' for Active; 'I' for Inactive)
REMARK    1  A    between atoms: C_1  and  O_2
REMARK    2  A    between atoms: O_2  and  C_3
REMARK    3  A    between atoms: C_15  and  C_16
REMARK    4  A    between atoms: C_15  and  C_17
REMARK                            x       y       z     vdW  Elec       q    Type
REMARK                         _______ _______ _______ _____ _____    ______ ____
ROOT
ATOM      1  C   UNL     1       2.760   6.304  19.073  0.00  0.00    +0.000 A 
ATOM      2  C   UNL     1       3.690   6.923  18.224  0.00  0.00    +0.000 A 
ATOM      3  C   UNL     1       4.853   6.255  17.834  0.00  0.00    +0.000 A 
ATOM      4  C   UNL     1       5.841   6.864  16.957  0.00  0.00    +0.000 A 
ATOM      5  C   UNL     1       6.938   6.175  16.612  0.00  0.00    +0.000 A 
ATOM      6  C   UNL     1       7.193   4.806  17.084  0.00  0.00    +0.000 A 
ATOM      7  O   UNL     1       8.204   4.203  16.754  0.00  0.00    +0.000 OA
ATOM      8  O   UNL     1       6.230   4.247  17.913  0.00  0.00    +0.000 OA
ATOM      9  C   UNL     1       5.070   4.956  18.297  0.00  0.00    +0.000 A 
ATOM     10  C   UNL     1       4.158   4.306  19.137  0.00  0.00    +0.000 A 
ATOM     11  C   UNL     1       2.989   4.987  19.507  0.00  0.00    +0.000 A 
ATOM     12  O   UNL     1       2.031   4.404  20.283  0.00  0.00    +0.000 OA
ATOM     13  C   UNL     1       2.057   2.986  20.463  0.00  0.00    +0.000 C 
ATOM     14  C   UNL     1       1.204   2.734  21.714  0.00  0.00    +0.000 C 
ATOM     15  C   UNL     1       1.382   2.320  19.256  0.00  0.00    +0.000 C 
ATOM     16  C   UNL     1       3.485   2.501  20.720  0.00  0.00    +0.000 C 
ATOM     17  C   UNL     1       4.404   2.890  19.574  0.00  0.00    +0.000 C 
ENDROOT
BRANCH   1  19
ATOM     18  C   UNL     1       1.705   7.972  20.423  0.00  0.00    +0.000 C 
ATOM     19  O   UNL     1       1.641   7.060  19.329  0.00  0.00    +0.000 OA
ENDBRANCH   1  19
TORSDOF 1
ENDMDL
MODEL 3
REMARK VINA RESULT:      -7.4      2.108      2.910
REMARK  Name = 
REMARK  4 active torsions:
REMARK  status: ('A' for Active; 'I' for Inactive)
REMARK    1  A    between atoms: C_1  and  O_2
REMARK    2  A    between atoms: O_2  and  C_3
REMARK    3  A    between atoms: C_15  and  C_16
REMARK    4  A    between atoms: C_15  and  C_17
REMARK                            x       y       z     vdW  Elec       q    Type
REMARK                         _______ _______ _______ _____ _____    ______ ____
ROOT
ATOM      1  C   UNL     1       6.231   4.799  18.679  0.00  0.00    +0.000 A 
ATOM      2  C   UNL     1       7.033   4.996  17.544  0.00  0.00    +0.000 A 
ATOM      3  C   UNL     1       6.558   4.673  16.272  0.00  0.00    +0.000 A 
ATOM      4  C   UNL     1       7.360   4.861  15.073  0.00  0.00    +0.000 A 
ATOM      5  C   UNL     1       6.852   4.538  13.875  0.00  0.00    +0.000 A 
ATOM      6  C   UNL     1       5.494   3.996  13.712  0.00  0.00    +0.000 A 
ATOM      7  O   UNL     1       5.058   3.709  12.607  0.00  0.00    +0.000 OA
ATOM      8  O   UNL     1       4.749   3.835  14.872  0.00  0.00    +0.000 OA
ATOM      9  C   UNL     1       5.265   4.161  16.146  0.00  0.00    +0.000 A 
ATOM     10  C   UNL     1       4.435   3.961  17.256  0.00  0.00    +0.000 A 
ATOM     11  C   UNL     1       4.924   4.304  18.525  0.00  0.00    +0.000 A 
ATOM     12  O   UNL     1       4.160   4.183  19.647  0.00  0.00    +0.000 OA
ATOM     13  C   UNL     1       2.748   4.011  19.507  0.00  0.00    +0.000 C 
ATOM     14  C   UNL     1       2.286   3.439  20.853  0.00  0.00    +0.000 C 
ATOM     15  C   UNL     1       2.098   5.386  19.299  0.00  0.00    +0.000 C 
ATOM     16  C   UNL     1       2.436   3.005  18.397  0.00  0.00    +0.000 C 
ATOM     17  C   UNL     1       3.034   3.453  17.074  0.00  0.00    +0.000 C 
ENDROOT
BRANCH   1  19
ATOM     18  C   UNL     1       8.101   5.809  19.774  0.00  0.00    +0.000 C 
ATOM     19  O   UNL     1       6.810   5.209  19.856  0.00  0.00    +0.000 OA
ENDBRANCH   1  19
TORSDOF 1
ENDMDL
MODEL 4
REMARK VINA RESULT:      -7.4      1.813      1.840
REMARK  Name = 
REMARK  4 active torsions:
REMARK  status: ('A' for Active; 'I' for Inactive)
REMARK    1  A    between atoms: C_1  and  O_2
REMARK    2  A    between atoms: O_2  and  C_3
REMARK    3  A    between atoms: C_15  and  C_16
REMARK    4  A    between atoms: C_15  and  C_17
REMARK                            x       y       z     vdW  Elec       q    Type
REMARK                         _______ _______ _______ _____ _____    ______ ____
ROOT
ATOM      1  C   UNL     1       2.936   6.486  18.124  0.00  0.00    +0.000 A 
ATOM      2  C   UNL     1       4.108   6.973  17.526  0.00  0.00    +0.000 A 
ATOM      3  C   UNL     1       5.300   6.251  17.603  0.00  0.00    +0.000 A 
ATOM      4  C   UNL     1       6.535   6.725  16.998  0.00  0.00    +0.000 A 
ATOM      5  C   UNL     1       7.651   5.988  17.100  0.00  0.00    +0.000 A 
ATOM      6  C   UNL     1       7.685   4.697  17.804  0.00  0.00    +0.000 A 
ATOM      7  O   UNL     1       8.718   4.047  17.882  0.00  0.00    +0.000 OA
ATOM      8  O   UNL     1       6.491   4.266  18.364  0.00  0.00    +0.000 OA
ATOM      9  C   UNL     1       5.304   5.028  18.278  0.00  0.00    +0.000 A 
ATOM     10  C   UNL     1       4.150   4.508  18.877  0.00  0.00    +0.000 A 
ATOM     11  C   UNL     1       2.959   5.241  18.778  0.00  0.00    +0.000 A 
ATOM     12  O   UNL     1       1.784   4.778  19.293  0.00  0.00    +0.000 OA
ATOM     13  C   UNL     1       1.685   3.400  19.659  0.00  0.00    +0.000 C 
ATOM     14  C   UNL     1       0.484   3.332  20.611  0.00  0.00    +0.000 C 
ATOM     15  C   UNL     1       1.375   2.575  18.403  0.00  0.00    +0.000 C 
ATOM     16  C   UNL     1       2.944   2.948  20.402  0.00  0.00    +0.000 C 
ATOM     17  C   UNL     1       4.184   3.167  19.552  0.00  0.00    +0.000 C 
ENDROOT
BRANCH   1  19
ATOM     18  C   UNL     1       1.945   8.658  18.257  0.00  0.00    +0.000 C 
ATOM     19  O   UNL     1       1.830   7.276  17.923  0.00  0.00    +0.000 OA
ENDBRANCH   1  19
TORSDOF 1
ENDMDL
MODEL 5
REMARK VINA RESULT:      -6.7      1.681      5.670
REMARK  Name = 
REMARK  4 active torsions:
REMARK  status: ('A' for Active; 'I' for Inactive)
REMARK    1  A    between atoms: C_1  and  O_2
REMARK    2  A    between atoms: O_2  and  C_3
REMARK    3  A    between atoms: C_15  and  C_16
REMARK    4  A    between atoms: C_15  and  C_17
REMARK                            x       y       z     vdW  Elec       q    Type
REMARK                         _______ _______ _______ _____ _____    ______ ____
ROOT
ATOM      1  C   UNL     1       4.040   3.705  19.229  0.00  0.00    +0.000 A 
ATOM      2  C   UNL     1       3.003   4.126  20.075  0.00  0.00    +0.000 A 
ATOM      3  C   UNL     1       2.536   5.441  20.031  0.00  0.00    +0.000 A 
ATOM      4  C   UNL     1       1.465   5.914  20.894  0.00  0.00    +0.000 A 
ATOM      5  C   UNL     1       1.054   7.187  20.806  0.00  0.00    +0.000 A 
ATOM      6  C   UNL     1       1.643   8.145  19.858  0.00  0.00    +0.000 A 
ATOM      7  O   UNL     1       1.248   9.301  19.802  0.00  0.00    +0.000 OA
ATOM      8  O   UNL     1       2.657   7.664  19.042  0.00  0.00    +0.000 OA
ATOM      9  C   UNL     1       3.113   6.329  19.121  0.00  0.00    +0.000 A 
ATOM     10  C   UNL     1       4.143   5.940  18.256  0.00  0.00    +0.000 A 
ATOM     11  C   UNL     1       4.589   4.612  18.305  0.00  0.00    +0.000 A 
ATOM     12  O   UNL     1       5.554   4.145  17.462  0.00  0.00    +0.000 OA
ATOM     13  C   UNL     1       5.894   4.915  16.306  0.00  0.00    +0.000 C 
ATOM     14  C   UNL     1       7.272   4.393  15.879  0.00  0.00    +0.000 C 
ATOM     15  C   UNL     1       4.879   4.616  15.195  0.00  0.00    +0.000 C 
ATOM     16  C   UNL     1       6.004   6.399  16.662  0.00  0.00    +0.000 C 
ATOM     17  C   UNL     1       4.704   6.913  17.258  0.00  0.00    +0.000 C 
ENDROOT
BRANCH   1  19
ATOM     18  C   UNL     1       3.589   1.449  18.580  0.00  0.00    +0.000 C 
ATOM     19  O   UNL     1       4.358   2.373  19.346  0.00  0.00    +0.000 OA
ENDBRANCH   1  19
TORSDOF 1
ENDMDL
MODEL 6
REMARK VINA RESULT:      -6.6      1.722      5.091
REMARK  Name = 
REMARK  4 active torsions:
REMARK  status: ('A' for Active; 'I' for Inactive)
REMARK    1  A    between atoms: C_1  and  O_2
REMARK    2  A    between atoms: O_2  and  C_3
REMARK    3  A    between atoms: C_15  and  C_16
REMARK    4  A    between atoms: C_15  and  C_17
REMARK                            x       y       z     vdW  Elec       q    Type
REMARK                         _______ _______ _______ _____ _____    ______ ____
ROOT
ATOM      1  C   UNL     1       3.178   6.915  17.792  0.00  0.00    +0.000 A 
ATOM      2  C   UNL     1       2.407   6.742  18.952  0.00  0.00    +0.000 A 
ATOM      3  C   UNL     1       2.492   5.562  19.694  0.00  0.00    +0.000 A 
ATOM      4  C   UNL     1       1.707   5.345  20.899  0.00  0.00    +0.000 A 
ATOM      5  C   UNL     1       1.831   4.194  21.575  0.00  0.00    +0.000 A 
ATOM      6  C   UNL     1       2.743   3.121  21.149  0.00  0.00    +0.000 A 
ATOM      7  O   UNL     1       2.834   2.081  21.785  0.00  0.00    +0.000 OA
ATOM      8  O   UNL     1       3.484   3.358  20.001  0.00  0.00    +0.000 OA
ATOM      9  C   UNL     1       3.365   4.560  19.267  0.00  0.00    +0.000 A 
ATOM     10  C   UNL     1       4.156   4.704  18.120  0.00  0.00    +0.000 A 
ATOM     11  C   UNL     1       4.068   5.901  17.395  0.00  0.00    +0.000 A 
ATOM     12  O   UNL     1       4.840   6.136  16.296  0.00  0.00    +0.000 OA
ATOM     13  C   UNL     1       5.974   5.299  16.056  0.00  0.00    +0.000 C 
ATOM     14  C   UNL     1       6.302   5.499  14.571  0.00  0.00    +0.000 C 
ATOM     15  C   UNL     1       7.151   5.805  16.902  0.00  0.00    +0.000 C 
ATOM     16  C   UNL     1       5.621   3.831  16.302  0.00  0.00    +0.000 C 
ATOM     17  C   UNL     1       5.119   3.622  17.721  0.00  0.00    +0.000 C 
ENDROOT
BRANCH   1  19
ATOM     18  C   UNL     1       2.151   9.074  17.825  0.00  0.00    +0.000 C 
ATOM     19  O   UNL     1       3.030   8.144  17.195  0.00  0.00    +0.000 OA
ENDBRANCH   1  19
TORSDOF 1
ENDMDL
MODEL 7
REMARK VINA RESULT:      -6.6      2.107      3.456
REMARK  Name = 
REMARK  4 active torsions:
REMARK  status: ('A' for Active; 'I' for Inactive)
REMARK    1  A    between atoms: C_1  and  O_2
REMARK    2  A    between atoms: O_2  and  C_3
REMARK    3  A    between atoms: C_15  and  C_16
REMARK    4  A    between atoms: C_15  and  C_17
REMARK                            x       y       z     vdW  Elec       q    Type
REMARK                         _______ _______ _______ _____ _____    ______ ____
ROOT
ATOM      1  C   UNL     1       6.646   5.812  17.309  0.00  0.00    +0.000 A 
ATOM      2  C   UNL     1       7.329   5.758  16.084  0.00  0.00    +0.000 A 
ATOM      3  C   UNL     1       6.804   5.043  15.006  0.00  0.00    +0.000 A 
ATOM      4  C   UNL     1       7.484   4.963  13.723  0.00  0.00    +0.000 A 
ATOM      5  C   UNL     1       6.932   4.266  12.720  0.00  0.00    +0.000 A 
ATOM      6  C   UNL     1       5.644   3.568  12.857  0.00  0.00    +0.000 A 
ATOM      7  O   UNL     1       5.165   2.938  11.925  0.00  0.00    +0.000 OA
ATOM      8  O   UNL     1       5.013   3.669  14.089  0.00  0.00    +0.000 OA
ATOM      9  C   UNL     1       5.580   4.391  15.164  0.00  0.00    +0.000 A 
ATOM     10  C   UNL     1       4.867   4.432  16.368  0.00  0.00    +0.000 A 
ATOM     11  C   UNL     1       5.403   5.166  17.436  0.00  0.00    +0.000 A 
ATOM     12  O   UNL     1       4.746   5.293  18.624  0.00  0.00    +0.000 OA
ATOM     13  C   UNL     1       3.360   4.949  18.688  0.00  0.00    +0.000 C 
ATOM     14  C   UNL     1       3.076   4.738  20.181  0.00  0.00    +0.000 C 
ATOM     15  C   UNL     1       2.530   6.138  18.184  0.00  0.00    +0.000 C 
ATOM     16  C   UNL     1       3.094   3.644  17.934  0.00  0.00    +0.000 C 
ATOM     17  C   UNL     1       3.530   3.757  16.483  0.00  0.00    +0.000 C 
ENDROOT
BRANCH   1  19
ATOM     18  C   UNL     1       7.823   7.826  17.826  0.00  0.00    +0.000 C 
ATOM     19  O   UNL     1       7.255   6.593  18.261  0.00  0.00    +0.000 OA
ENDBRANCH   1  19
TORSDOF 1
ENDMDL
MODEL 8
REMARK VINA RESULT:      -6.5      1.674      5.511
REMARK  Name = 
REMARK  4 active torsions:
REMARK  status: ('A' for Active; 'I' for Inactive)
REMARK    1  A    between atoms: C_1  and  O_2
REMARK    2  A    between atoms: O_2  and  C_3
REMARK    3  A    between atoms: C_15  and  C_16
REMARK    4  A    between atoms: C_15  and  C_17
REMARK                            x       y       z     vdW  Elec       q    Type
REMARK                         _______ _______ _______ _____ _____    ______ ____
ROOT
ATOM      1  C   UNL     1       4.015   6.428  17.512  0.00  0.00    +0.000 A 
ATOM      2  C   UNL     1       4.246   5.087  17.857  0.00  0.00    +0.000 A 
ATOM      3  C   UNL     1       3.634   4.524  18.979  0.00  0.00    +0.000 A 
ATOM      4  C   UNL     1       3.850   3.139  19.368  0.00  0.00    +0.000 A 
ATOM      5  C   UNL     1       3.234   2.650  20.454  0.00  0.00    +0.000 A 
ATOM      6  C   UNL     1       2.329   3.461  21.282  0.00  0.00    +0.000 A 
ATOM      7  O   UNL     1       1.781   2.987  22.268  0.00  0.00    +0.000 OA
ATOM      8  O   UNL     1       2.134   4.775  20.883  0.00  0.00    +0.000 OA
ATOM      9  C   UNL     1       2.779   5.316  19.747  0.00  0.00    +0.000 A 
ATOM     10  C   UNL     1       2.519   6.654  19.427  0.00  0.00    +0.000 A 
ATOM     11  C   UNL     1       3.132   7.198  18.289  0.00  0.00    +0.000 A 
ATOM     12  O   UNL     1       2.891   8.478  17.884  0.00  0.00    +0.000 OA
ATOM     13  C   UNL     1       1.770   9.176  18.430  0.00  0.00    +0.000 C 
ATOM     14  C   UNL     1       2.064  10.659  18.166  0.00  0.00    +0.000 C 
ATOM     15  C   UNL     1       0.509   8.771  17.655  0.00  0.00    +0.000 C 
ATOM     16  C   UNL     1       1.671   8.942  19.938  0.00  0.00    +0.000 C 
ATOM     17  C   UNL     1       1.556   7.460  20.252  0.00  0.00    +0.000 C 
ENDROOT
BRANCH   1  19
ATOM     18  C   UNL     1       5.431   5.858  15.673  0.00  0.00    +0.000 C 
ATOM     19  O   UNL     1       4.642   6.828  16.357  0.00  0.00    +0.000 OA
ENDBRANCH   1  19
TORSDOF 1
ENDMDL
MODEL 9
REMARK VINA RESULT:      -6.4      1.790      4.205
REMARK  Name = 
REMARK  4 active torsions:
REMARK  status: ('A' for Active; 'I' for Inactive)
REMARK    1  A    between atoms: C_1  and  O_2
REMARK    2  A    between atoms: O_2  and  C_3
REMARK    3  A    between atoms: C_15  and  C_16
REMARK    4  A    between atoms: C_15  and  C_17
REMARK                            x       y       z     vdW  Elec       q    Type
REMARK                         _______ _______ _______ _____ _____    ______ ____
ROOT
ATOM      1  C   UNL     1       2.308   4.892  20.501  0.00  0.00    +0.000 A 
ATOM      2  C   UNL     1       3.250   4.242  19.689  0.00  0.00    +0.000 A 
ATOM      3  C   UNL     1       3.816   4.895  18.592  0.00  0.00    +0.000 A 
ATOM      4  C   UNL     1       4.793   4.253  17.726  0.00  0.00    +0.000 A 
ATOM      5  C   UNL     1       5.307   4.929  16.689  0.00  0.00    +0.000 A 
ATOM      6  C   UNL     1       4.926   6.316  16.381  0.00  0.00    +0.000 A 
ATOM      7  O   UNL     1       5.410   6.906  15.426  0.00  0.00    +0.000 OA
ATOM      8  O   UNL     1       3.998   6.905  17.228  0.00  0.00    +0.000 OA
ATOM      9  C   UNL     1       3.436   6.211  18.323  0.00  0.00    +0.000 A 
ATOM     10  C   UNL     1       2.507   6.892  19.118  0.00  0.00    +0.000 A 
ATOM     11  C   UNL     1       1.959   6.225  20.224  0.00  0.00    +0.000 A 
ATOM     12  O   UNL     1       1.085   6.837  21.073  0.00  0.00    +0.000 OA
ATOM     13  C   UNL     1       0.963   8.261  21.032  0.00  0.00    +0.000 C 
ATOM     14  C   UNL     1      -0.380   8.559  21.711  0.00  0.00    +0.000 C 
ATOM     15  C   UNL     1       2.094   8.880  21.865  0.00  0.00    +0.000 C 
ATOM     16  C   UNL     1       0.918   8.756  19.585  0.00  0.00    +0.000 C 
ATOM     17  C   UNL     1       2.160   8.324  18.824  0.00  0.00    +0.000 C 
ENDROOT
BRANCH   1  19
ATOM     18  C   UNL     1       1.746   2.740  21.377  0.00  0.00    +0.000 C 
ATOM     19  O   UNL     1       1.878   4.146  21.572  0.00  0.00    +0.000 OA
ENDBRANCH   1  19
TORSDOF 1
ENDMDL
