MODEL 1
REMARK VINA RESULT:      -8.4      0.000      0.000
REMARK  Name = 
REMARK  5 active torsions:
REMARK  status: ('A' for Active; 'I' for Inactive)
REMARK    1  A    between atoms: O_1  and  C_2
REMARK    2  A    between atoms: C_2  and  C_3
REMARK    3  A    between atoms: C_3  and  N_4
REMARK    4  A    between atoms: N_4  and  C_5
REMARK    5  A    between atoms: C_5  and  C_6
REMARK                            x       y       z     vdW  Elec       q    Type
REMARK                         _______ _______ _______ _____ _____    ______ ____
ROOT
ATOM      1  C   UNL     1       3.657   3.069  17.874  0.00  0.00    +0.000 C 
ATOM      2  C   UNL     1       2.088   3.191  17.840  0.00  0.00    +0.000 C 
ATOM      3  C   UNL     1       1.454   2.340  18.969  0.00  0.00    +0.000 C 
ATOM      4  C   UNL     1       1.945   2.842  20.340  0.00  0.00    +0.000 C 
ATOM      5  C   UNL     1       1.517   4.312  20.528  0.00  0.00    +0.000 C 
ATOM      6  C   UNL     1       2.145   5.175  19.412  0.00  0.00    +0.000 C 
ATOM      7  C   UNL     1       1.651   4.667  18.037  0.00  0.00    +0.000 C 
ATOM      8  C   UNL     1       3.684   5.073  19.495  0.00  0.00    +0.000 C 
ATOM      9  C   UNL     1       4.120   3.603  19.276  0.00  0.00    +0.000 C 
ATOM     10  C   UNL     1       3.485   2.740  20.404  0.00  0.00    +0.000 C 
ENDROOT
BRANCH   1  11
ATOM     11  O   UNL     1       4.044   1.711  17.794  0.00  0.00    +0.000 OA
ATOM     12  H   UNL     1       3.356   1.155  18.239  0.00  0.00    +0.000 HD
ENDBRANCH   1  11
BRANCH   1  13
ATOM     13  C   UNL     1       4.362   3.842  16.699  0.00  0.00    +0.000 C 
BRANCH  13  14
ATOM     14  N   UNL     1       5.675   3.252  16.374  0.00  0.00    +0.000 NA
ATOM     15  H   UNL     1       5.539   2.481  15.682  0.00  0.00    +0.000 HD
BRANCH  14  16
ATOM     16  C   UNL     1       6.577   4.231  15.758  0.00  0.00    +0.000 C 
BRANCH  16  17
ATOM     17  C   UNL     1       7.091   5.186  16.809  0.00  0.00    +0.000 A 
ATOM     18  C   UNL     1       7.569   4.705  18.042  0.00  0.00    +0.000 A 
ATOM     19  C   UNL     1       8.035   5.596  19.016  0.00  0.00    +0.000 A 
ATOM     20  C   UNL     1       8.035   6.970  18.766  0.00  0.00    +0.000 A 
ATOM     21  C   UNL     1       7.565   7.459  17.545  0.00  0.00    +0.000 A 
ATOM     22  C   UNL     1       7.093   6.571  16.569  0.00  0.00    +0.000 A 
ENDBRANCH  16  17
ENDBRANCH  14  16
ENDBRANCH  13  14
ENDBRANCH   1  13
TORSDOF 5
ENDMDL
MODEL 2
REMARK VINA RESULT:      -8.3      1.449      2.724
REMARK  Name = 
REMARK  5 active torsions:
REMARK  status: ('A' for Active; 'I' for Inactive)
REMARK    1  A    between atoms: O_1  and  C_2
REMARK    2  A    between atoms: C_2  and  C_3
REMARK    3  A    between atoms: C_3  and  N_4
REMARK    4  A    between atoms: N_4  and  C_5
REMARK    5  A    between atoms: C_5  and  C_6
REMARK                            x       y       z     vdW  Elec       q    Type
REMARK                         _______ _______ _______ _____ _____    ______ ____
ROOT
ATOM      1  C   UNL     1       4.341   3.855  19.359  0.00  0.00    +0.000 C 
ATOM      2  C   UNL     1       3.761   3.477  17.945  0.00  0.00    +0.000 C 
ATOM      3  C   UNL     1       3.162   2.048  17.969  0.00  0.00    +0.000 C 
ATOM      4  C   UNL     1       2.014   1.981  18.994  0.00  0.00    +0.000 C 
ATOM      5  C   UNL     1       0.907   2.973  18.586  0.00  0.00    +0.000 C 
ATOM      6  C   UNL     1       1.486   4.404  18.560  0.00  0.00    +0.000 C 
ATOM      7  C   UNL     1       2.640   4.469  17.532  0.00  0.00    +0.000 C 
ATOM      8  C   UNL     1       2.008   4.767  19.969  0.00  0.00    +0.000 C 
ATOM      9  C   UNL     1       3.142   3.791  20.370  0.00  0.00    +0.000 C 
ATOM     10  C   UNL     1       2.551   2.351  20.394  0.00  0.00    +0.000 C 
ENDROOT
BRANCH   1  11
ATOM     11  O   UNL     1       5.290   2.892  19.772  0.00  0.00    +0.000 OA
ATOM     12  H   UNL     1       5.256   2.121  19.150  0.00  0.00    +0.000 HD
ENDBRANCH   1  11
BRANCH   1  13
ATOM     13  C   UNL     1       5.042   5.263  19.382  0.00  0.00    +0.000 C 
BRANCH  13  14
ATOM     14  N   UNL     1       6.493   5.142  19.616  0.00  0.00    +0.000 NA
ATOM     15  H   UNL     1       6.766   4.135  19.551  0.00  0.00    +0.000 HD
BRANCH  14  16
ATOM     16  C   UNL     1       7.274   5.866  18.606  0.00  0.00    +0.000 C 
BRANCH  16  17
ATOM     17  C   UNL     1       6.722   5.578  17.230  0.00  0.00    +0.000 A 
ATOM     18  C   UNL     1       5.821   6.469  16.618  0.00  0.00    +0.000 A 
ATOM     19  C   UNL     1       5.306   6.192  15.346  0.00  0.00    +0.000 A 
ATOM     20  C   UNL     1       5.688   5.030  14.673  0.00  0.00    +0.000 A 
ATOM     21  C   UNL     1       6.584   4.139  15.270  0.00  0.00    +0.000 A 
ATOM     22  C   UNL     1       7.097   4.410  16.544  0.00  0.00    +0.000 A 
ENDBRANCH  16  17
ENDBRANCH  14  16
ENDBRANCH  13  14
ENDBRANCH   1  13
TORSDOF 5
ENDMDL
MODEL 3
REMARK VINA RESULT:      -8.3      1.450      2.591
REMARK  Name = 
REMARK  5 active torsions:
REMARK  status: ('A' for Active; 'I' for Inactive)
REMARK    1  A    between atoms: O_1  and  C_2
REMARK    2  A    between atoms: C_2  and  C_3
REMARK    3  A    between atoms: C_3  and  N_4
REMARK    4  A    between atoms: N_4  and  C_5
REMARK    5  A    between atoms: C_5  and  C_6
REMARK                            x       y       z     vdW  Elec       q    Type
REMARK                         _______ _______ _______ _____ _____    ______ ____
ROOT
ATOM      1  C   UNL     1       4.328   3.811  19.407  0.00  0.00    +0.000 C 
ATOM      2  C   UNL     1       3.775   3.487  17.969  0.00  0.00    +0.000 C 
ATOM      3  C   UNL     1       3.184   2.055  17.926  0.00  0.00    +0.000 C 
ATOM      4  C   UNL     1       2.019   1.940  18.926  0.00  0.00    +0.000 C 
ATOM      5  C   UNL     1       0.913   2.943  18.538  0.00  0.00    +0.000 C 
ATOM      6  C   UNL     1       1.484   4.377  18.580  0.00  0.00    +0.000 C 
ATOM      7  C   UNL     1       2.656   4.488  17.576  0.00  0.00    +0.000 C 
ATOM      8  C   UNL     1       1.979   4.685  20.011  0.00  0.00    +0.000 C 
ATOM      9  C   UNL     1       3.111   3.700  20.393  0.00  0.00    +0.000 C 
ATOM     10  C   UNL     1       2.528   2.257  20.349  0.00  0.00    +0.000 C 
ENDROOT
BRANCH   1  11
ATOM     11  O   UNL     1       5.275   2.836  19.798  0.00  0.00    +0.000 OA
ATOM     12  H   UNL     1       6.185   3.213  19.690  0.00  0.00    +0.000 HD
ENDBRANCH   1  11
BRANCH   1  13
ATOM     13  C   UNL     1       5.020   5.220  19.499  0.00  0.00    +0.000 C 
BRANCH  13  14
ATOM     14  N   UNL     1       6.488   5.099  19.574  0.00  0.00    +0.000 NA
ATOM     15  H   UNL     1       6.757   4.106  19.389  0.00  0.00    +0.000 HD
BRANCH  14  16
ATOM     16  C   UNL     1       7.158   5.923  18.562  0.00  0.00    +0.000 C 
BRANCH  16  17
ATOM     17  C   UNL     1       6.647   5.562  17.187  0.00  0.00    +0.000 A 
ATOM     18  C   UNL     1       7.075   4.383  16.551  0.00  0.00    +0.000 A 
ATOM     19  C   UNL     1       6.605   4.058  15.273  0.00  0.00    +0.000 A 
ATOM     20  C   UNL     1       5.702   4.902  14.623  0.00  0.00    +0.000 A 
ATOM     21  C   UNL     1       5.268   6.075  15.247  0.00  0.00    +0.000 A 
ATOM     22  C   UNL     1       5.740   6.406  16.524  0.00  0.00    +0.000 A 
ENDBRANCH  16  17
ENDBRANCH  14  16
ENDBRANCH  13  14
ENDBRANCH   1  13
TORSDOF 5
ENDMDL
MODEL 4
REMARK VINA RESULT:      -8.3      0.152      1.093
REMARK  Name = 
REMARK  5 active torsions:
REMARK  status: ('A' for Active; 'I' for Inactive)
REMARK    1  A    between atoms: O_1  and  C_2
REMARK    2  A    between atoms: C_2  and  C_3
REMARK    3  A    between atoms: C_3  and  N_4
REMARK    4  A    between atoms: N_4  and  C_5
REMARK    5  A    between atoms: C_5  and  C_6
REMARK                            x       y       z     vdW  Elec       q    Type
REMARK                         _______ _______ _______ _____ _____    ______ ____
ROOT
ATOM      1  C   UNL     1       3.742   3.204  17.826  0.00  0.00    +0.000 C 
ATOM      2  C   UNL     1       2.177   3.311  17.690  0.00  0.00    +0.000 C 
ATOM      3  C   UNL     1       1.478   2.424  18.751  0.00  0.00    +0.000 C 
ATOM      4  C   UNL     1       1.871   2.893  20.164  0.00  0.00    +0.000 C 
ATOM      5  C   UNL     1       1.415   4.352  20.362  0.00  0.00    +0.000 C 
ATOM      6  C   UNL     1       2.105   5.252  19.315  0.00  0.00    +0.000 C 
ATOM      7  C   UNL     1       1.711   4.777  17.896  0.00  0.00    +0.000 C 
ATOM      8  C   UNL     1       3.637   5.163  19.498  0.00  0.00    +0.000 C 
ATOM      9  C   UNL     1       4.103   3.704  19.270  0.00  0.00    +0.000 C 
ATOM     10  C   UNL     1       3.404   2.804  20.329  0.00  0.00    +0.000 C 
ENDROOT
BRANCH   1  11
ATOM     11  O   UNL     1       4.149   1.852  17.736  0.00  0.00    +0.000 OA
ATOM     12  H   UNL     1       3.424   1.275  18.087  0.00  0.00    +0.000 HD
ENDBRANCH   1  11
BRANCH   1  13
ATOM     13  C   UNL     1       4.515   4.015  16.723  0.00  0.00    +0.000 C 
BRANCH  13  14
ATOM     14  N   UNL     1       5.695   3.276  16.234  0.00  0.00    +0.000 NA
ATOM     15  H   UNL     1       5.402   2.641  15.458  0.00  0.00    +0.000 HD
BRANCH  14  16
ATOM     16  C   UNL     1       6.719   4.177  15.693  0.00  0.00    +0.000 C 
BRANCH  16  17
ATOM     17  C   UNL     1       7.149   5.161  16.755  0.00  0.00    +0.000 A 
ATOM     18  C   UNL     1       7.080   6.546  16.518  0.00  0.00    +0.000 A 
ATOM     19  C   UNL     1       7.488   7.453  17.503  0.00  0.00    +0.000 A 
ATOM     20  C   UNL     1       7.961   6.988  18.731  0.00  0.00    +0.000 A 
ATOM     21  C   UNL     1       8.032   5.615  18.978  0.00  0.00    +0.000 A 
ATOM     22  C   UNL     1       7.629   4.704  17.994  0.00  0.00    +0.000 A 
ENDBRANCH  16  17
ENDBRANCH  14  16
ENDBRANCH  13  14
ENDBRANCH   1  13
TORSDOF 5
ENDMDL
MODEL 5
REMARK VINA RESULT:      -7.9      1.817      3.199
REMARK  Name = 
REMARK  5 active torsions:
REMARK  status: ('A' for Active; 'I' for Inactive)
REMARK    1  A    between atoms: O_1  and  C_2
REMARK    2  A    between atoms: C_2  and  C_3
REMARK    3  A    between atoms: C_3  and  N_4
REMARK    4  A    between atoms: N_4  and  C_5
REMARK    5  A    between atoms: C_5  and  C_6
REMARK                            x       y       z     vdW  Elec       q    Type
REMARK                         _______ _______ _______ _____ _____    ______ ____
ROOT
ATOM      1  C   UNL     1       4.485   3.654  18.793  0.00  0.00    +0.000 C 
ATOM      2  C   UNL     1       3.721   2.731  17.772  0.00  0.00    +0.000 C 
ATOM      3  C   UNL     1       2.953   1.613  18.521  0.00  0.00    +0.000 C 
ATOM      4  C   UNL     1       1.915   2.239  19.471  0.00  0.00    +0.000 C 
ATOM      5  C   UNL     1       0.907   3.068  18.650  0.00  0.00    +0.000 C 
ATOM      6  C   UNL     1       1.656   4.190  17.900  0.00  0.00    +0.000 C 
ATOM      7  C   UNL     1       2.699   3.558  16.948  0.00  0.00    +0.000 C 
ATOM      8  C   UNL     1       2.359   5.106  18.926  0.00  0.00    +0.000 C 
ATOM      9  C   UNL     1       3.395   4.284  19.731  0.00  0.00    +0.000 C 
ATOM     10  C   UNL     1       2.633   3.156  20.485  0.00  0.00    +0.000 C 
ENDROOT
BRANCH   1  11
ATOM     11  O   UNL     1       5.342   2.878  19.608  0.00  0.00    +0.000 OA
ATOM     12  H   UNL     1       4.987   1.954  19.658  0.00  0.00    +0.000 HD
ENDBRANCH   1  11
BRANCH   1  13
ATOM     13  C   UNL     1       5.356   4.761  18.093  0.00  0.00    +0.000 C 
BRANCH  13  14
ATOM     14  N   UNL     1       6.206   4.189  17.032  0.00  0.00    +0.000 NA
ATOM     15  H   UNL     1       5.619   3.585  16.413  0.00  0.00    +0.000 HD
BRANCH  14  16
ATOM     16  C   UNL     1       6.797   5.230  16.183  0.00  0.00    +0.000 C 
BRANCH  16  17
ATOM     17  C   UNL     1       6.765   4.792  14.738  0.00  0.00    +0.000 A 
ATOM     18  C   UNL     1       5.816   3.852  14.295  0.00  0.00    +0.000 A 
ATOM     19  C   UNL     1       5.798   3.443  12.956  0.00  0.00    +0.000 A 
ATOM     20  C   UNL     1       6.720   3.970  12.049  0.00  0.00    +0.000 A 
ATOM     21  C   UNL     1       7.665   4.905  12.478  0.00  0.00    +0.000 A 
ATOM     22  C   UNL     1       7.690   5.314  13.818  0.00  0.00    +0.000 A 
ENDBRANCH  16  17
ENDBRANCH  14  16
ENDBRANCH  13  14
ENDBRANCH   1  13
TORSDOF 5
ENDMDL
MODEL 6
REMARK VINA RESULT:      -7.8      1.718      3.220
REMARK  Name = 
REMARK  5 active torsions:
REMARK  status: ('A' for Active; 'I' for Inactive)
REMARK    1  A    between atoms: O_1  and  C_2
REMARK    2  A    between atoms: C_2  and  C_3
REMARK    3  A    between atoms: C_3  and  N_4
REMARK    4  A    between atoms: N_4  and  C_5
REMARK    5  A    between atoms: C_5  and  C_6
REMARK                            x       y       z     vdW  Elec       q    Type
REMARK                         _______ _______ _______ _____ _____    ______ ____
ROOT
ATOM      1  C   UNL     1       4.007   4.481  19.412  0.00  0.00    +0.000 C 
ATOM      2  C   UNL     1       3.238   3.493  20.367  0.00  0.00    +0.000 C 
ATOM      3  C   UNL     1       1.746   3.896  20.475  0.00  0.00    +0.000 C 
ATOM      4  C   UNL     1       1.086   3.834  19.086  0.00  0.00    +0.000 C 
ATOM      5  C   UNL     1       1.170   2.392  18.545  0.00  0.00    +0.000 C 
ATOM      6  C   UNL     1       2.652   1.975  18.426  0.00  0.00    +0.000 C 
ATOM      7  C   UNL     1       3.313   2.041  19.823  0.00  0.00    +0.000 C 
ATOM      8  C   UNL     1       3.373   2.933  17.451  0.00  0.00    +0.000 C 
ATOM      9  C   UNL     1       3.317   4.378  18.006  0.00  0.00    +0.000 C 
ATOM     10  C   UNL     1       1.821   4.791  18.123  0.00  0.00    +0.000 C 
ENDROOT
BRANCH   1  11
ATOM     11  O   UNL     1       3.851   5.814  19.860  0.00  0.00    +0.000 OA
ATOM     12  H   UNL     1       4.477   6.396  19.357  0.00  0.00    +0.000 HD
ENDBRANCH   1  11
BRANCH   1  13
ATOM     13  C   UNL     1       5.548   4.180  19.324  0.00  0.00    +0.000 C 
BRANCH  13  14
ATOM     14  N   UNL     1       6.353   5.372  19.649  0.00  0.00    +0.000 NA
ATOM     15  H   UNL     1       6.854   5.209  20.552  0.00  0.00    +0.000 HD
BRANCH  14  16
ATOM     16  C   UNL     1       7.376   5.638  18.631  0.00  0.00    +0.000 C 
BRANCH  16  17
ATOM     17  C   UNL     1       6.769   5.518  17.253  0.00  0.00    +0.000 A 
ATOM     18  C   UNL     1       5.855   6.480  16.786  0.00  0.00    +0.000 A 
ATOM     19  C   UNL     1       5.289   6.358  15.511  0.00  0.00    +0.000 A 
ATOM     20  C   UNL     1       5.634   5.281  14.692  0.00  0.00    +0.000 A 
ATOM     21  C   UNL     1       6.542   4.321  15.145  0.00  0.00    +0.000 A 
ATOM     22  C   UNL     1       7.106   4.436  16.421  0.00  0.00    +0.000 A 
ENDBRANCH  16  17
ENDBRANCH  14  16
ENDBRANCH  13  14
ENDBRANCH   1  13
TORSDOF 5
ENDMDL
MODEL 7
REMARK VINA RESULT:      -7.8      1.104      1.887
REMARK  Name = 
REMARK  5 active torsions:
REMARK  status: ('A' for Active; 'I' for Inactive)
REMARK    1  A    between atoms: O_1  and  C_2
REMARK    2  A    between atoms: C_2  and  C_3
REMARK    3  A    between atoms: C_3  and  N_4
REMARK    4  A    between atoms: N_4  and  C_5
REMARK    5  A    between atoms: C_5  and  C_6
REMARK                            x       y       z     vdW  Elec       q    Type
REMARK                         _______ _______ _______ _____ _____    ______ ____
ROOT
ATOM      1  C   UNL     1       3.719   4.298  18.519  0.00  0.00    +0.000 C 
ATOM      2  C   UNL     1       3.608   2.868  19.169  0.00  0.00    +0.000 C 
ATOM      3  C   UNL     1       3.172   2.980  20.652  0.00  0.00    +0.000 C 
ATOM      4  C   UNL     1       1.792   3.657  20.741  0.00  0.00    +0.000 C 
ATOM      5  C   UNL     1       0.755   2.803  19.985  0.00  0.00    +0.000 C 
ATOM      6  C   UNL     1       1.172   2.685  18.503  0.00  0.00    +0.000 C 
ATOM      7  C   UNL     1       2.559   2.006  18.417  0.00  0.00    +0.000 C 
ATOM      8  C   UNL     1       1.230   4.096  17.877  0.00  0.00    +0.000 C 
ATOM      9  C   UNL     1       2.293   4.948  18.614  0.00  0.00    +0.000 C 
ATOM     10  C   UNL     1       1.866   5.063  20.107  0.00  0.00    +0.000 C 
ENDROOT
BRANCH   1  11
ATOM     11  O   UNL     1       4.601   5.110  19.269  0.00  0.00    +0.000 OA
ATOM     12  H   UNL     1       5.488   5.112  18.827  0.00  0.00    +0.000 HD
ENDBRANCH   1  11
BRANCH   1  13
ATOM     13  C   UNL     1       4.240   4.262  17.035  0.00  0.00    +0.000 C 
BRANCH  13  14
ATOM     14  N   UNL     1       5.497   3.498  16.921  0.00  0.00    +0.000 NA
ATOM     15  H   UNL     1       5.313   2.617  16.391  0.00  0.00    +0.000 HD
BRANCH  14  16
ATOM     16  C   UNL     1       6.524   4.241  16.181  0.00  0.00    +0.000 C 
BRANCH  16  17
ATOM     17  C   UNL     1       7.107   5.322  17.060  0.00  0.00    +0.000 A 
ATOM     18  C   UNL     1       7.668   5.004  18.310  0.00  0.00    +0.000 A 
ATOM     19  C   UNL     1       8.199   6.013  19.124  0.00  0.00    +0.000 A 
ATOM     20  C   UNL     1       8.179   7.342  18.696  0.00  0.00    +0.000 A 
ATOM     21  C   UNL     1       7.627   7.668  17.455  0.00  0.00    +0.000 A 
ATOM     22  C   UNL     1       7.090   6.663  16.640  0.00  0.00    +0.000 A 
ENDBRANCH  16  17
ENDBRANCH  14  16
ENDBRANCH  13  14
ENDBRANCH   1  13
TORSDOF 5
ENDMDL
MODEL 8
REMARK VINA RESULT:      -7.7      1.732      3.084
REMARK  Name = 
REMARK  5 active torsions:
REMARK  status: ('A' for Active; 'I' for Inactive)
REMARK    1  A    between atoms: O_1  and  C_2
REMARK    2  A    between atoms: C_2  and  C_3
REMARK    3  A    between atoms: C_3  and  N_4
REMARK    4  A    between atoms: N_4  and  C_5
REMARK    5  A    between atoms: C_5  and  C_6
REMARK                            x       y       z     vdW  Elec       q    Type
REMARK                         _______ _______ _______ _____ _____    ______ ____
ROOT
ATOM      1  C   UNL     1       4.031   4.498  19.369  0.00  0.00    +0.000 C 
ATOM      2  C   UNL     1       3.353   3.438  20.315  0.00  0.00    +0.000 C 
ATOM      3  C   UNL     1       1.867   3.804  20.561  0.00  0.00    +0.000 C 
ATOM      4  C   UNL     1       1.103   3.813  19.224  0.00  0.00    +0.000 C 
ATOM      5  C   UNL     1       1.168   2.410  18.590  0.00  0.00    +0.000 C 
ATOM      6  C   UNL     1       2.642   2.030  18.334  0.00  0.00    +0.000 C 
ATOM      7  C   UNL     1       3.407   2.024  19.678  0.00  0.00    +0.000 C 
ATOM      8  C   UNL     1       3.272   3.059  17.369  0.00  0.00    +0.000 C 
ATOM      9  C   UNL     1       3.237   4.466  18.015  0.00  0.00    +0.000 C 
ATOM     10  C   UNL     1       1.748   4.842  18.269  0.00  0.00    +0.000 C 
ENDROOT
BRANCH   1  11
ATOM     11  O   UNL     1       3.890   5.797  19.908  0.00  0.00    +0.000 OA
ATOM     12  H   UNL     1       4.430   5.861  20.737  0.00  0.00    +0.000 HD
ENDBRANCH   1  11
BRANCH   1  13
ATOM     13  C   UNL     1       5.566   4.232  19.145  0.00  0.00    +0.000 C 
BRANCH  13  14
ATOM     14  N   UNL     1       6.389   5.335  19.677  0.00  0.00    +0.000 NA
ATOM     15  H   UNL     1       6.973   4.975  20.466  0.00  0.00    +0.000 HD
BRANCH  14  16
ATOM     16  C   UNL     1       7.310   5.868  18.667  0.00  0.00    +0.000 C 
BRANCH  16  17
ATOM     17  C   UNL     1       6.748   5.629  17.285  0.00  0.00    +0.000 A 
ATOM     18  C   UNL     1       7.177   4.530  16.518  0.00  0.00    +0.000 A 
ATOM     19  C   UNL     1       6.659   4.319  15.235  0.00  0.00    +0.000 A 
ATOM     20  C   UNL     1       5.707   5.195  14.710  0.00  0.00    +0.000 A 
ATOM     21  C   UNL     1       5.272   6.288  15.464  0.00  0.00    +0.000 A 
ATOM     22  C   UNL     1       5.791   6.506  16.747  0.00  0.00    +0.000 A 
ENDBRANCH  16  17
ENDBRANCH  14  16
ENDBRANCH  13  14
ENDBRANCH   1  13
TORSDOF 5
ENDMDL
MODEL 9
REMARK VINA RESULT:      -7.7      2.048      3.409
REMARK  Name = 
REMARK  5 active torsions:
REMARK  status: ('A' for Active; 'I' for Inactive)
REMARK    1  A    between atoms: O_1  and  C_2
REMARK    2  A    between atoms: C_2  and  C_3
REMARK    3  A    between atoms: C_3  and  N_4
REMARK    4  A    between atoms: N_4  and  C_5
REMARK    5  A    between atoms: C_5  and  C_6
REMARK                            x       y       z     vdW  Elec       q    Type
REMARK                         _______ _______ _______ _____ _____    ______ ____
ROOT
ATOM      1  C   UNL     1       4.102   3.594  18.636  0.00  0.00    +0.000 C 
ATOM      2  C   UNL     1       3.399   2.395  19.375  0.00  0.00    +0.000 C 
ATOM      3  C   UNL     1       3.125   2.758  20.857  0.00  0.00    +0.000 C 
ATOM      4  C   UNL     1       2.193   3.981  20.932  0.00  0.00    +0.000 C 
ATOM      5  C   UNL     1       0.852   3.643  20.250  0.00  0.00    +0.000 C 
ATOM      6  C   UNL     1       1.106   3.283  18.770  0.00  0.00    +0.000 C 
ATOM      7  C   UNL     1       2.044   2.055  18.699  0.00  0.00    +0.000 C 
ATOM      8  C   UNL     1       1.755   4.490  18.057  0.00  0.00    +0.000 C 
ATOM      9  C   UNL     1       3.117   4.814  18.719  0.00  0.00    +0.000 C 
ATOM     10  C   UNL     1       2.853   5.176  20.210  0.00  0.00    +0.000 C 
ENDROOT
BRANCH   1  11
ATOM     11  O   UNL     1       5.285   3.963  19.316  0.00  0.00    +0.000 OA
ATOM     12  H   UNL     1       5.893   4.416  18.679  0.00  0.00    +0.000 HD
ENDBRANCH   1  11
BRANCH   1  13
ATOM     13  C   UNL     1       4.485   3.261  17.147  0.00  0.00    +0.000 C 
BRANCH  13  14
ATOM     14  N   UNL     1       5.779   3.864  16.773  0.00  0.00    +0.000 NA
ATOM     15  H   UNL     1       6.349   3.154  16.260  0.00  0.00    +0.000 HD
BRANCH  14  16
ATOM     16  C   UNL     1       5.610   5.012  15.876  0.00  0.00    +0.000 C 
BRANCH  16  17
ATOM     17  C   UNL     1       6.122   4.665  14.498  0.00  0.00    +0.000 A 
ATOM     18  C   UNL     1       5.420   3.761  13.679  0.00  0.00    +0.000 A 
ATOM     19  C   UNL     1       5.905   3.437  12.407  0.00  0.00    +0.000 A 
ATOM     20  C   UNL     1       7.088   4.014  11.939  0.00  0.00    +0.000 A 
ATOM     21  C   UNL     1       7.791   4.914  12.743  0.00  0.00    +0.000 A 
ATOM     22  C   UNL     1       7.312   5.238  14.019  0.00  0.00    +0.000 A 
ENDBRANCH  16  17
ENDBRANCH  14  16
ENDBRANCH  13  14
ENDBRANCH   1  13
TORSDOF 5
ENDMDL
