MODEL 1
REMARK VINA RESULT:      -8.6      0.000      0.000
REMARK  Name = 
REMARK  6 active torsions:
REMARK  status: ('A' for Active; 'I' for Inactive)
REMARK    1  A    between atoms: C_2  and  O_3
REMARK    2  A    between atoms: C_2  and  C_4
REMARK    3  A    between atoms: C_8  and  N_9
REMARK    4  A    between atoms: N_9  and  S_10
REMARK    5  A    between atoms: S_10  and  C_13
REMARK    6  A    between atoms: N_19  and  O_20
REMARK                            x       y       z     vdW  Elec       q    Type
REMARK                         _______ _______ _______ _____ _____    ______ ____
ROOT
ATOM      1  S   UNL     1       5.684   6.024  16.574  0.00  0.00    +0.000 S 
ATOM      2  O   UNL     1       6.424   6.640  17.655  0.00  0.00    +0.000 OA
ATOM      3  O   UNL     1       5.154   6.805  15.478  0.00  0.00    +0.000 OA
ENDROOT
BRANCH   1   4
ATOM      4  C   UNL     1       4.320   5.137  17.315  0.00  0.00    +0.000 A 
ATOM      5  C   UNL     1       3.174   5.840  17.714  0.00  0.00    +0.000 A 
ATOM      6  C   UNL     1       2.104   5.176  18.336  0.00  0.00    +0.000 A 
ATOM      7  C   UNL     1       2.212   3.794  18.557  0.00  0.00    +0.000 A 
ATOM      8  N   UNL     1       1.341   2.904  19.138  0.00  0.00    +0.000 NA
ATOM      9  N   UNL     1       1.910   1.703  19.120  0.00  0.00    +0.000 NA
ATOM     10  N   UNL     1       3.098   1.851  18.534  0.00  0.00    +0.000 N 
ATOM     11  C   UNL     1       3.365   3.130  18.161  0.00  0.00    +0.000 A 
ATOM     12  C   UNL     1       4.455   3.758  17.546  0.00  0.00    +0.000 A 
BRANCH  10  13
ATOM     13  O   UNL     1       3.905   0.751  18.375  0.00  0.00    +0.000 OA
ATOM     14  H   UNL     1       3.217   0.168  18.010  0.00  0.00    +0.000 HD
ENDBRANCH  10  13
ENDBRANCH   1   4
BRANCH   1  15
ATOM     15  N   UNL     1       6.667   4.805  15.964  0.00  0.00    +0.000 N 
ATOM     16  H   UNL     1       6.779   3.998  16.576  0.00  0.00    +0.000 HD
BRANCH  15  21
ATOM     17  C   UNL     1       6.220   3.601  12.482  0.00  0.00    +0.000 A 
ATOM     18  C   UNL     1       7.150   4.399  11.804  0.00  0.00    +0.000 A 
ATOM     19  C   UNL     1       7.940   5.305  12.515  0.00  0.00    +0.000 A 
ATOM     20  C   UNL     1       7.784   5.435  13.895  0.00  0.00    +0.000 A 
ATOM     21  C   UNL     1       6.850   4.648  14.569  0.00  0.00    +0.000 A 
ATOM     22  C   UNL     1       6.065   3.733  13.869  0.00  0.00    +0.000 A 
BRANCH  17  24
ATOM     23  O   UNL     1       4.238   2.971  11.330  0.00  0.00    +0.000 OA
ATOM     24  C   UNL     1       5.335   2.656  11.756  0.00  0.00    +0.000 C 
BRANCH  24  25
ATOM     25  O   UNL     1       5.849   1.414  11.631  0.00  0.00    +0.000 OA
ATOM     26  H   UNL     1       6.088   0.975  12.466  0.00  0.00    +0.000 HD
ENDBRANCH  24  25
ENDBRANCH  17  24
ENDBRANCH  15  21
ENDBRANCH   1  15
TORSDOF 6
ENDMDL
MODEL 2
REMARK VINA RESULT:      -8.3      1.584      1.984
REMARK  Name = 
REMARK  6 active torsions:
REMARK  status: ('A' for Active; 'I' for Inactive)
REMARK    1  A    between atoms: C_2  and  O_3
REMARK    2  A    between atoms: C_2  and  C_4
REMARK    3  A    between atoms: C_8  and  N_9
REMARK    4  A    between atoms: N_9  and  S_10
REMARK    5  A    between atoms: S_10  and  C_13
REMARK    6  A    between atoms: N_19  and  O_20
REMARK                            x       y       z     vdW  Elec       q    Type
REMARK                         _______ _______ _______ _____ _____    ______ ____
ROOT
ATOM      1  S   UNL     1       5.739   6.004  16.593  0.00  0.00    +0.000 S 
ATOM      2  O   UNL     1       6.557   6.625  17.613  0.00  0.00    +0.000 OA
ATOM      3  O   UNL     1       5.174   6.770  15.505  0.00  0.00    +0.000 OA
ENDROOT
BRANCH   1   4
ATOM      4  C   UNL     1       4.391   5.182  17.433  0.00  0.00    +0.000 A 
ATOM      5  C   UNL     1       3.893   3.975  16.922  0.00  0.00    +0.000 A 
ATOM      6  C   UNL     1       2.808   3.328  17.537  0.00  0.00    +0.000 A 
ATOM      7  C   UNL     1       2.230   3.923  18.669  0.00  0.00    +0.000 A 
ATOM      8  N   UNL     1       1.174   3.526  19.455  0.00  0.00    +0.000 NA
ATOM      9  N   UNL     1       1.006   4.439  20.406  0.00  0.00    +0.000 NA
ATOM     10  N   UNL     1       1.939   5.370  20.213  0.00  0.00    +0.000 N 
ATOM     11  C   UNL     1       2.739   5.124  19.142  0.00  0.00    +0.000 A 
ATOM     12  C   UNL     1       3.812   5.803  18.552  0.00  0.00    +0.000 A 
BRANCH  10  13
ATOM     13  O   UNL     1       2.000   6.442  21.070  0.00  0.00    +0.000 OA
ATOM     14  H   UNL     1       1.508   6.024  21.797  0.00  0.00    +0.000 HD
ENDBRANCH  10  13
ENDBRANCH   1   4
BRANCH   1  15
ATOM     15  N   UNL     1       6.649   4.737  15.967  0.00  0.00    +0.000 N 
ATOM     16  H   UNL     1       6.703   3.912  16.562  0.00  0.00    +0.000 HD
BRANCH  15  21
ATOM     17  C   UNL     1       6.216   3.573  12.469  0.00  0.00    +0.000 A 
ATOM     18  C   UNL     1       7.146   4.382  11.803  0.00  0.00    +0.000 A 
ATOM     19  C   UNL     1       7.930   5.282  12.528  0.00  0.00    +0.000 A 
ATOM     20  C   UNL     1       7.770   5.396  13.909  0.00  0.00    +0.000 A 
ATOM     21  C   UNL     1       6.837   4.597  14.570  0.00  0.00    +0.000 A 
ATOM     22  C   UNL     1       6.057   3.687  13.857  0.00  0.00    +0.000 A 
BRANCH  17  24
ATOM     23  O   UNL     1       4.227   2.939  11.332  0.00  0.00    +0.000 OA
ATOM     24  C   UNL     1       5.337   2.633  11.730  0.00  0.00    +0.000 C 
BRANCH  24  25
ATOM     25  O   UNL     1       5.873   1.406  11.557  0.00  0.00    +0.000 OA
ATOM     26  H   UNL     1       6.011   0.892  12.372  0.00  0.00    +0.000 HD
ENDBRANCH  24  25
ENDBRANCH  17  24
ENDBRANCH  15  21
ENDBRANCH   1  15
TORSDOF 6
ENDMDL
MODEL 3
REMARK VINA RESULT:      -8.3      1.137      1.137
REMARK  Name = 
REMARK  6 active torsions:
REMARK  status: ('A' for Active; 'I' for Inactive)
REMARK    1  A    between atoms: C_2  and  O_3
REMARK    2  A    between atoms: C_2  and  C_4
REMARK    3  A    between atoms: C_8  and  N_9
REMARK    4  A    between atoms: N_9  and  S_10
REMARK    5  A    between atoms: S_10  and  C_13
REMARK    6  A    between atoms: N_19  and  O_20
REMARK                            x       y       z     vdW  Elec       q    Type
REMARK                         _______ _______ _______ _____ _____    ______ ____
ROOT
ATOM      1  S   UNL     1       5.888   6.413  16.330  0.00  0.00    +0.000 S 
ATOM      2  O   UNL     1       6.853   7.249  17.013  0.00  0.00    +0.000 OA
ATOM      3  O   UNL     1       5.070   6.924  15.254  0.00  0.00    +0.000 OA
ENDROOT
BRANCH   1   4
ATOM      4  C   UNL     1       4.788   5.759  17.580  0.00  0.00    +0.000 A 
ATOM      5  C   UNL     1       3.731   6.550  18.052  0.00  0.00    +0.000 A 
ATOM      6  C   UNL     1       2.877   6.079  19.062  0.00  0.00    +0.000 A 
ATOM      7  C   UNL     1       3.112   4.802  19.595  0.00  0.00    +0.000 A 
ATOM      8  N   UNL     1       2.454   4.101  20.577  0.00  0.00    +0.000 NA
ATOM      9  N   UNL     1       3.069   2.932  20.728  0.00  0.00    +0.000 NA
ATOM     10  N   UNL     1       4.076   2.914  19.855  0.00  0.00    +0.000 N 
ATOM     11  C   UNL     1       4.174   4.049  19.115  0.00  0.00    +0.000 A 
ATOM     12  C   UNL     1       5.052   4.487  18.115  0.00  0.00    +0.000 A 
BRANCH  10  13
ATOM     13  O   UNL     1       4.883   1.804  19.790  0.00  0.00    +0.000 OA
ATOM     14  H   UNL     1       5.624   2.184  20.292  0.00  0.00    +0.000 HD
ENDBRANCH  10  13
ENDBRANCH   1   4
BRANCH   1  15
ATOM     15  N   UNL     1       6.730   5.060  15.795  0.00  0.00    +0.000 N 
ATOM     16  H   UNL     1       6.752   4.281  16.452  0.00  0.00    +0.000 HD
BRANCH  15  21
ATOM     17  C   UNL     1       6.215   3.644  12.404  0.00  0.00    +0.000 A 
ATOM     18  C   UNL     1       7.161   4.368  11.667  0.00  0.00    +0.000 A 
ATOM     19  C   UNL     1       7.983   5.296  12.311  0.00  0.00    +0.000 A 
ATOM     20  C   UNL     1       7.845   5.521  13.681  0.00  0.00    +0.000 A 
ATOM     21  C   UNL     1       6.895   4.806  14.412  0.00  0.00    +0.000 A 
ATOM     22  C   UNL     1       6.078   3.870  13.781  0.00  0.00    +0.000 A 
BRANCH  17  24
ATOM     23  O   UNL     1       4.191   2.988  11.343  0.00  0.00    +0.000 OA
ATOM     24  C   UNL     1       5.297   2.678  11.749  0.00  0.00    +0.000 C 
BRANCH  24  25
ATOM     25  O   UNL     1       5.793   1.426  11.664  0.00  0.00    +0.000 OA
ATOM     26  H   UNL     1       5.635   0.860  12.441  0.00  0.00    +0.000 HD
ENDBRANCH  24  25
ENDBRANCH  17  24
ENDBRANCH  15  21
ENDBRANCH   1  15
TORSDOF 6
ENDMDL
MODEL 4
REMARK VINA RESULT:      -7.9      4.250      7.726
REMARK  Name = 
REMARK  6 active torsions:
REMARK  status: ('A' for Active; 'I' for Inactive)
REMARK    1  A    between atoms: C_2  and  O_3
REMARK    2  A    between atoms: C_2  and  C_4
REMARK    3  A    between atoms: C_8  and  N_9
REMARK    4  A    between atoms: N_9  and  S_10
REMARK    5  A    between atoms: S_10  and  C_13
REMARK    6  A    between atoms: N_19  and  O_20
REMARK                            x       y       z     vdW  Elec       q    Type
REMARK                         _______ _______ _______ _____ _____    ______ ____
ROOT
ATOM      1  S   UNL     1       2.438   4.445  19.900  0.00  0.00    +0.000 S 
ATOM      2  O   UNL     1       2.775   3.485  20.929  0.00  0.00    +0.000 OA
ATOM      3  O   UNL     1       1.188   4.372  19.176  0.00  0.00    +0.000 OA
ENDROOT
BRANCH   1   4
ATOM      4  C   UNL     1       3.761   4.408  18.697  0.00  0.00    +0.000 A 
ATOM      5  C   UNL     1       3.480   4.048  17.372  0.00  0.00    +0.000 A 
ATOM      6  C   UNL     1       4.506   3.970  16.416  0.00  0.00    +0.000 A 
ATOM      7  C   UNL     1       5.820   4.252  16.820  0.00  0.00    +0.000 A 
ATOM      8  N   UNL     1       7.000   4.248  16.115  0.00  0.00    +0.000 NA
ATOM      9  N   UNL     1       7.978   4.576  16.953  0.00  0.00    +0.000 NA
ATOM     10  N   UNL     1       7.412   4.784  18.141  0.00  0.00    +0.000 N 
ATOM     11  C   UNL     1       6.066   4.593  18.143  0.00  0.00    +0.000 A 
ATOM     12  C   UNL     1       5.072   4.673  19.126  0.00  0.00    +0.000 A 
BRANCH  10  13
ATOM     13  O   UNL     1       8.203   5.149  19.203  0.00  0.00    +0.000 OA
ATOM     14  H   UNL     1       8.059   6.106  19.118  0.00  0.00    +0.000 HD
ENDBRANCH  10  13
ENDBRANCH   1   4
BRANCH   1  15
ATOM     15  N   UNL     1       2.584   5.964  20.605  0.00  0.00    +0.000 N 
ATOM     16  H   UNL     1       3.315   6.041  21.311  0.00  0.00    +0.000 HD
BRANCH  15  21
ATOM     17  C   UNL     1       1.035   9.270  19.940  0.00  0.00    +0.000 A 
ATOM     18  C   UNL     1       1.385   9.462  18.597  0.00  0.00    +0.000 A 
ATOM     19  C   UNL     1       2.103   8.476  17.917  0.00  0.00    +0.000 A 
ATOM     20  C   UNL     1       2.495   7.314  18.581  0.00  0.00    +0.000 A 
ATOM     21  C   UNL     1       2.155   7.127  19.921  0.00  0.00    +0.000 A 
ATOM     22  C   UNL     1       1.429   8.101  20.605  0.00  0.00    +0.000 A 
BRANCH  17  24
ATOM     23  O   UNL     1      -0.741  10.804  20.325  0.00  0.00    +0.000 OA
ATOM     24  C   UNL     1       0.306  10.312  20.707  0.00  0.00    +0.000 C 
BRANCH  24  25
ATOM     25  O   UNL     1       0.920  10.674  21.853  0.00  0.00    +0.000 OA
ATOM     26  H   UNL     1       0.332  11.006  22.555  0.00  0.00    +0.000 HD
ENDBRANCH  24  25
ENDBRANCH  17  24
ENDBRANCH  15  21
ENDBRANCH   1  15
TORSDOF 6
ENDMDL
MODEL 5
REMARK VINA RESULT:      -7.9      1.310      1.640
REMARK  Name = 
REMARK  6 active torsions:
REMARK  status: ('A' for Active; 'I' for Inactive)
REMARK    1  A    between atoms: C_2  and  O_3
REMARK    2  A    between atoms: C_2  and  C_4
REMARK    3  A    between atoms: C_8  and  N_9
REMARK    4  A    between atoms: N_9  and  S_10
REMARK    5  A    between atoms: S_10  and  C_13
REMARK    6  A    between atoms: N_19  and  O_20
REMARK                            x       y       z     vdW  Elec       q    Type
REMARK                         _______ _______ _______ _____ _____    ______ ____
ROOT
ATOM      1  S   UNL     1       6.213   6.071  16.570  0.00  0.00    +0.000 S 
ATOM      2  O   UNL     1       7.061   6.827  17.466  0.00  0.00    +0.000 OA
ATOM      3  O   UNL     1       5.397   6.722  15.570  0.00  0.00    +0.000 OA
ENDROOT
BRANCH   1   4
ATOM      4  C   UNL     1       5.128   5.081  17.591  0.00  0.00    +0.000 A 
ATOM      5  C   UNL     1       5.658   4.377  18.681  0.00  0.00    +0.000 A 
ATOM      6  C   UNL     1       4.838   3.559  19.476  0.00  0.00    +0.000 A 
ATOM      7  C   UNL     1       3.477   3.456  19.147  0.00  0.00    +0.000 A 
ATOM      8  N   UNL     1       2.461   2.739  19.731  0.00  0.00    +0.000 NA
ATOM      9  N   UNL     1       1.349   2.967  19.040  0.00  0.00    +0.000 NA
ATOM     10  N   UNL     1       1.673   3.809  18.060  0.00  0.00    +0.000 N 
ATOM     11  C   UNL     1       2.987   4.156  18.053  0.00  0.00    +0.000 A 
ATOM     12  C   UNL     1       3.774   4.974  17.234  0.00  0.00    +0.000 A 
BRANCH  10  13
ATOM     13  O   UNL     1       0.697   4.225  17.187  0.00  0.00    +0.000 OA
ATOM     14  H   UNL     1       1.279   4.765  16.627  0.00  0.00    +0.000 HD
ENDBRANCH  10  13
ENDBRANCH   1   4
BRANCH   1  15
ATOM     15  N   UNL     1       7.204   4.936  15.827  0.00  0.00    +0.000 N 
ATOM     16  H   UNL     1       7.476   4.151  16.417  0.00  0.00    +0.000 HD
BRANCH  15  21
ATOM     17  C   UNL     1       6.311   3.711  12.440  0.00  0.00    +0.000 A 
ATOM     18  C   UNL     1       7.127   4.521  11.640  0.00  0.00    +0.000 A 
ATOM     19  C   UNL     1       7.990   5.444  12.237  0.00  0.00    +0.000 A 
ATOM     20  C   UNL     1       8.020   5.577  13.625  0.00  0.00    +0.000 A 
ATOM     21  C   UNL     1       7.200   4.776  14.420  0.00  0.00    +0.000 A 
ATOM     22  C   UNL     1       6.344   3.845  13.835  0.00  0.00    +0.000 A 
BRANCH  17  24
ATOM     23  O   UNL     1       4.219   3.055  11.520  0.00  0.00    +0.000 OA
ATOM     24  C   UNL     1       5.353   2.747  11.842  0.00  0.00    +0.000 C 
BRANCH  24  25
ATOM     25  O   UNL     1       5.847   1.498  11.708  0.00  0.00    +0.000 OA
ATOM     26  H   UNL     1       5.784   1.118  10.813  0.00  0.00    +0.000 HD
ENDBRANCH  24  25
ENDBRANCH  17  24
ENDBRANCH  15  21
ENDBRANCH   1  15
TORSDOF 6
ENDMDL
MODEL 6
REMARK VINA RESULT:      -7.9      2.802      6.752
REMARK  Name = 
REMARK  6 active torsions:
REMARK  status: ('A' for Active; 'I' for Inactive)
REMARK    1  A    between atoms: C_2  and  O_3
REMARK    2  A    between atoms: C_2  and  C_4
REMARK    3  A    between atoms: C_8  and  N_9
REMARK    4  A    between atoms: N_9  and  S_10
REMARK    5  A    between atoms: S_10  and  C_13
REMARK    6  A    between atoms: N_19  and  O_20
REMARK                            x       y       z     vdW  Elec       q    Type
REMARK                         _______ _______ _______ _____ _____    ______ ____
ROOT
ATOM      1  S   UNL     1       3.512   2.637  19.034  0.00  0.00    +0.000 S 
ATOM      2  O   UNL     1       3.804   2.628  20.452  0.00  0.00    +0.000 OA
ATOM      3  O   UNL     1       3.386   1.411  18.279  0.00  0.00    +0.000 OA
ENDROOT
BRANCH   1   4
ATOM      4  C   UNL     1       4.775   3.629  18.248  0.00  0.00    +0.000 A 
ATOM      5  C   UNL     1       5.416   4.638  18.981  0.00  0.00    +0.000 A 
ATOM      6  C   UNL     1       6.382   5.460  18.378  0.00  0.00    +0.000 A 
ATOM      7  C   UNL     1       6.684   5.254  17.023  0.00  0.00    +0.000 A 
ATOM      8  N   UNL     1       7.565   5.899  16.188  0.00  0.00    +0.000 NA
ATOM      9  N   UNL     1       7.477   5.337  14.987  0.00  0.00    +0.000 NA
ATOM     10  N   UNL     1       6.571   4.365  15.084  0.00  0.00    +0.000 N 
ATOM     11  C   UNL     1       6.023   4.255  16.323  0.00  0.00    +0.000 A 
ATOM     12  C   UNL     1       5.048   3.421  16.886  0.00  0.00    +0.000 A 
BRANCH  10  13
ATOM     13  O   UNL     1       6.285   3.606  13.976  0.00  0.00    +0.000 OA
ATOM     14  H   UNL     1       6.545   2.753  14.362  0.00  0.00    +0.000 HD
ENDBRANCH  10  13
ENDBRANCH   1   4
BRANCH   1  15
ATOM     15  N   UNL     1       2.114   3.551  18.846  0.00  0.00    +0.000 N 
ATOM     16  H   UNL     1       1.248   3.014  18.837  0.00  0.00    +0.000 HD
BRANCH  15  21
ATOM     17  C   UNL     1       2.318   7.251  18.652  0.00  0.00    +0.000 A 
ATOM     18  C   UNL     1       1.928   7.607  19.950  0.00  0.00    +0.000 A 
ATOM     19  C   UNL     1       1.634   6.613  20.885  0.00  0.00    +0.000 A 
ATOM     20  C   UNL     1       1.702   5.268  20.521  0.00  0.00    +0.000 A 
ATOM     21  C   UNL     1       2.080   4.914  19.226  0.00  0.00    +0.000 A 
ATOM     22  C   UNL     1       2.387   5.900  18.288  0.00  0.00    +0.000 A 
BRANCH  17  24
ATOM     23  O   UNL     1       1.956   9.308  17.516  0.00  0.00    +0.000 OA
ATOM     24  C   UNL     1       2.601   8.280  17.618  0.00  0.00    +0.000 C 
BRANCH  24  25
ATOM     25  O   UNL     1       3.621   7.959  16.795  0.00  0.00    +0.000 OA
ATOM     26  H   UNL     1       3.362   7.579  15.937  0.00  0.00    +0.000 HD
ENDBRANCH  24  25
ENDBRANCH  17  24
ENDBRANCH  15  21
ENDBRANCH   1  15
TORSDOF 6
ENDMDL
MODEL 7
REMARK VINA RESULT:      -7.8      3.293      5.728
REMARK  Name = 
REMARK  6 active torsions:
REMARK  status: ('A' for Active; 'I' for Inactive)
REMARK    1  A    between atoms: C_2  and  O_3
REMARK    2  A    between atoms: C_2  and  C_4
REMARK    3  A    between atoms: C_8  and  N_9
REMARK    4  A    between atoms: N_9  and  S_10
REMARK    5  A    between atoms: S_10  and  C_13
REMARK    6  A    between atoms: N_19  and  O_20
REMARK                            x       y       z     vdW  Elec       q    Type
REMARK                         _______ _______ _______ _____ _____    ______ ____
ROOT
ATOM      1  S   UNL     1       2.583   2.993  17.867  0.00  0.00    +0.000 S 
ATOM      2  O   UNL     1       2.220   3.258  16.491  0.00  0.00    +0.000 OA
ATOM      3  O   UNL     1       1.958   1.930  18.623  0.00  0.00    +0.000 OA
ENDROOT
BRANCH   1   4
ATOM      4  C   UNL     1       2.340   4.515  18.773  0.00  0.00    +0.000 A 
ATOM      5  C   UNL     1       2.081   4.465  20.151  0.00  0.00    +0.000 A 
ATOM      6  C   UNL     1       1.846   5.642  20.880  0.00  0.00    +0.000 A 
ATOM      7  C   UNL     1       1.867   6.868  20.197  0.00  0.00    +0.000 A 
ATOM      8  N   UNL     1       1.668   8.152  20.645  0.00  0.00    +0.000 NA
ATOM      9  N   UNL     1       1.782   8.971  19.604  0.00  0.00    +0.000 NA
ATOM     10  N   UNL     1       2.052   8.209  18.545  0.00  0.00    +0.000 N 
ATOM     11  C   UNL     1       2.114   6.881  18.832  0.00  0.00    +0.000 A 
ATOM     12  C   UNL     1       2.344   5.730  18.069  0.00  0.00    +0.000 A 
BRANCH  10  13
ATOM     13  O   UNL     1       2.230   8.806  17.321  0.00  0.00    +0.000 OA
ATOM     14  H   UNL     1       2.521   8.005  16.854  0.00  0.00    +0.000 HD
ENDBRANCH  10  13
ENDBRANCH   1   4
BRANCH   1  15
ATOM     15  N   UNL     1       4.250   2.782  17.884  0.00  0.00    +0.000 N 
ATOM     16  H   UNL     1       4.563   1.822  17.744  0.00  0.00    +0.000 HD
BRANCH  15  21
ATOM     17  C   UNL     1       6.832   5.427  18.214  0.00  0.00    +0.000 A 
ATOM     18  C   UNL     1       6.903   5.894  16.895  0.00  0.00    +0.000 A 
ATOM     19  C   UNL     1       6.069   5.348  15.917  0.00  0.00    +0.000 A 
ATOM     20  C   UNL     1       5.185   4.321  16.246  0.00  0.00    +0.000 A 
ATOM     21  C   UNL     1       5.121   3.849  17.557  0.00  0.00    +0.000 A 
ATOM     22  C   UNL     1       5.942   4.395  18.543  0.00  0.00    +0.000 A 
BRANCH  17  24
ATOM     23  O   UNL     1       7.849   5.424  20.363  0.00  0.00    +0.000 OA
ATOM     24  C   UNL     1       7.729   5.954  19.273  0.00  0.00    +0.000 C 
BRANCH  24  25
ATOM     25  O   UNL     1       8.382   7.083  18.922  0.00  0.00    +0.000 OA
ATOM     26  H   UNL     1       9.225   7.238  19.384  0.00  0.00    +0.000 HD
ENDBRANCH  24  25
ENDBRANCH  17  24
ENDBRANCH  15  21
ENDBRANCH   1  15
TORSDOF 6
ENDMDL
MODEL 8
REMARK VINA RESULT:      -7.8      2.907      6.781
REMARK  Name = 
REMARK  6 active torsions:
REMARK  status: ('A' for Active; 'I' for Inactive)
REMARK    1  A    between atoms: C_2  and  O_3
REMARK    2  A    between atoms: C_2  and  C_4
REMARK    3  A    between atoms: C_8  and  N_9
REMARK    4  A    between atoms: N_9  and  S_10
REMARK    5  A    between atoms: S_10  and  C_13
REMARK    6  A    between atoms: N_19  and  O_20
REMARK                            x       y       z     vdW  Elec       q    Type
REMARK                         _______ _______ _______ _____ _____    ______ ____
ROOT
ATOM      1  S   UNL     1       5.929   5.312  18.183  0.00  0.00    +0.000 S 
ATOM      2  O   UNL     1       6.940   6.327  18.388  0.00  0.00    +0.000 OA
ATOM      3  O   UNL     1       5.897   4.104  18.977  0.00  0.00    +0.000 OA
ENDROOT
BRANCH   1   4
ATOM      4  C   UNL     1       6.019   4.826  16.464  0.00  0.00    +0.000 A 
ATOM      5  C   UNL     1       5.128   3.862  15.972  0.00  0.00    +0.000 A 
ATOM      6  C   UNL     1       5.202   3.432  14.637  0.00  0.00    +0.000 A 
ATOM      7  C   UNL     1       6.194   3.982  13.811  0.00  0.00    +0.000 A 
ATOM      8  N   UNL     1       6.500   3.747  12.491  0.00  0.00    +0.000 NA
ATOM      9  N   UNL     1       7.537   4.513  12.169  0.00  0.00    +0.000 NA
ATOM     10  N   UNL     1       7.856   5.205  13.262  0.00  0.00    +0.000 N 
ATOM     11  C   UNL     1       7.069   4.924  14.333  0.00  0.00    +0.000 A 
ATOM     12  C   UNL     1       7.032   5.372  15.659  0.00  0.00    +0.000 A 
BRANCH  10  13
ATOM     13  O   UNL     1       8.903   6.093  13.207  0.00  0.00    +0.000 OA
ATOM     14  H   UNL     1       8.725   6.519  14.062  0.00  0.00    +0.000 HD
ENDBRANCH  10  13
ENDBRANCH   1   4
BRANCH   1  15
ATOM     15  N   UNL     1       4.446   6.093  18.298  0.00  0.00    +0.000 N 
ATOM     16  H   UNL     1       4.270   6.789  17.575  0.00  0.00    +0.000 HD
BRANCH  15  21
ATOM     17  C   UNL     1       1.809   3.627  19.158  0.00  0.00    +0.000 A 
ATOM     18  C   UNL     1       1.243   4.227  20.290  0.00  0.00    +0.000 A 
ATOM     19  C   UNL     1       1.721   5.461  20.736  0.00  0.00    +0.000 A 
ATOM     20  C   UNL     1       2.778   6.083  20.072  0.00  0.00    +0.000 A 
ATOM     21  C   UNL     1       3.349   5.479  18.950  0.00  0.00    +0.000 A 
ATOM     22  C   UNL     1       2.871   4.253  18.491  0.00  0.00    +0.000 A 
BRANCH  17  24
ATOM     23  O   UNL     1       0.190   2.050  18.418  0.00  0.00    +0.000 OA
ATOM     24  C   UNL     1       1.355   2.297  18.676  0.00  0.00    +0.000 C 
BRANCH  24  25
ATOM     25  O   UNL     1       2.346   1.388  18.571  0.00  0.00    +0.000 OA
ATOM     26  H   UNL     1       2.092   0.468  18.769  0.00  0.00    +0.000 HD
ENDBRANCH  24  25
ENDBRANCH  17  24
ENDBRANCH  15  21
ENDBRANCH   1  15
TORSDOF 6
ENDMDL
MODEL 9
REMARK VINA RESULT:      -7.8      3.531      6.797
REMARK  Name = 
REMARK  6 active torsions:
REMARK  status: ('A' for Active; 'I' for Inactive)
REMARK    1  A    between atoms: C_2  and  O_3
REMARK    2  A    between atoms: C_2  and  C_4
REMARK    3  A    between atoms: C_8  and  N_9
REMARK    4  A    between atoms: N_9  and  S_10
REMARK    5  A    between atoms: S_10  and  C_13
REMARK    6  A    between atoms: N_19  and  O_20
REMARK                            x       y       z     vdW  Elec       q    Type
REMARK                         _______ _______ _______ _____ _____    ______ ____
ROOT
ATOM      1  S   UNL     1       2.632   7.154  18.326  0.00  0.00    +0.000 S 
ATOM      2  O   UNL     1       2.508   8.081  17.221  0.00  0.00    +0.000 OA
ATOM      3  O   UNL     1       2.555   7.599  19.700  0.00  0.00    +0.000 OA
ENDROOT
BRANCH   1   4
ATOM      4  C   UNL     1       4.191   6.303  18.120  0.00  0.00    +0.000 A 
ATOM      5  C   UNL     1       4.891   5.860  19.252  0.00  0.00    +0.000 A 
ATOM      6  C   UNL     1       6.137   5.225  19.123  0.00  0.00    +0.000 A 
ATOM      7  C   UNL     1       6.670   5.053  17.835  0.00  0.00    +0.000 A 
ATOM      8  N   UNL     1       7.848   4.484  17.417  0.00  0.00    +0.000 NA
ATOM      9  N   UNL     1       7.898   4.572  16.092  0.00  0.00    +0.000 NA
ATOM     10  N   UNL     1       6.774   5.174  15.706  0.00  0.00    +0.000 N 
ATOM     11  C   UNL     1       5.957   5.514  16.737  0.00  0.00    +0.000 A 
ATOM     12  C   UNL     1       4.717   6.158  16.826  0.00  0.00    +0.000 A 
BRANCH  10  13
ATOM     13  O   UNL     1       6.559   5.389  14.366  0.00  0.00    +0.000 OA
ATOM     14  H   UNL     1       5.606   5.566  14.440  0.00  0.00    +0.000 HD
ENDBRANCH  10  13
ENDBRANCH   1   4
BRANCH   1  15
ATOM     15  N   UNL     1       1.486   5.953  18.066  0.00  0.00    +0.000 N 
ATOM     16  H   UNL     1       0.817   6.151  17.322  0.00  0.00    +0.000 HD
BRANCH  15  21
ATOM     17  C   UNL     1       2.000   2.905  20.118  0.00  0.00    +0.000 A 
ATOM     18  C   UNL     1       2.179   1.939  19.119  0.00  0.00    +0.000 A 
ATOM     19  C   UNL     1       2.159   2.316  17.775  0.00  0.00    +0.000 A 
ATOM     20  C   UNL     1       1.936   3.648  17.425  0.00  0.00    +0.000 A 
ATOM     21  C   UNL     1       1.748   4.608  18.421  0.00  0.00    +0.000 A 
ATOM     22  C   UNL     1       1.777   4.243  19.766  0.00  0.00    +0.000 A 
BRANCH  17  24
ATOM     23  O   UNL     1       0.963   2.582  22.233  0.00  0.00    +0.000 OA
ATOM     24  C   UNL     1       1.975   2.536  21.557  0.00  0.00    +0.000 C 
BRANCH  24  25
ATOM     25  O   UNL     1       3.177   2.166  22.046  0.00  0.00    +0.000 OA
ATOM     26  H   UNL     1       3.948   2.551  21.593  0.00  0.00    +0.000 HD
ENDBRANCH  24  25
ENDBRANCH  17  24
ENDBRANCH  15  21
ENDBRANCH   1  15
TORSDOF 6
ENDMDL
