MODEL 1
REMARK VINA RESULT:      -6.8      0.000      0.000
REMARK  Name = 
REMARK  7 active torsions:
REMARK  status: ('A' for Active; 'I' for Inactive)
REMARK    1  A    between atoms: C_1  and  C_2
REMARK    2  A    between atoms: C_2  and  O_3
REMARK    3  A    between atoms: O_3  and  C_4
REMARK    4  A    between atoms: C_4  and  C_6
REMARK    5  A    between atoms: C_7  and  C_8
REMARK    6  A    between atoms: C_11  and  N_12
REMARK    7  A    between atoms: C_19  and  N_20
REMARK                            x       y       z     vdW  Elec       q    Type
REMARK                         _______ _______ _______ _____ _____    ______ ____
ROOT
ATOM      1  C   UNL     1       3.119   4.392  18.207  0.00  0.00    +0.000 A 
ATOM      2  C   UNL     1       3.556   5.760  18.465  0.00  0.00    +0.000 A 
ATOM      3  C   UNL     1       4.937   5.838  18.481  0.00  0.00    +0.000 A 
ATOM      4  S   UNL     1       5.695   4.344  18.185  0.00  0.00    +0.000 S 
ATOM      5  C   UNL     1       4.199   3.536  18.038  0.00  0.00    +0.000 A 
ENDROOT
BRANCH   2   6
ATOM      6  C   UNL     1       2.743   6.959  18.730  0.00  0.00    +0.000 A 
ATOM      7  C   UNL     1       2.502   7.902  17.718  0.00  0.00    +0.000 A 
ATOM      8  C   UNL     1       1.764   9.065  17.971  0.00  0.00    +0.000 A 
ATOM      9  C   UNL     1       1.219   9.273  19.241  0.00  0.00    +0.000 A 
ATOM     10  C   UNL     1       1.414   8.330  20.255  0.00  0.00    +0.000 A 
ATOM     11  C   UNL     1       2.182   7.187  19.999  0.00  0.00    +0.000 A 
BRANCH   9  12
ATOM     12  N   UNL     1       0.435  10.485  19.506  0.00  0.00    +0.000 N 
ATOM     13  O   UNL     1      -0.599  10.661  18.845  0.00  0.00    +0.000 OA
ATOM     14  O   UNL     1       0.847  11.256  20.384  0.00  0.00    +0.000 OA
ENDBRANCH   9  12
ENDBRANCH   2   6
BRANCH   5  15
ATOM     15  N   UNL     1       4.189   2.211  17.761  0.00  0.00    +0.000 N 
ATOM     16  H   UNL     1       4.893   1.617  18.190  0.00  0.00    +0.000 HD
ATOM     17  H   UNL     1       3.309   1.736  17.576  0.00  0.00    +0.000 HD
ENDBRANCH   5  15
BRANCH   1  18
ATOM     18  C   UNL     1       1.730   3.952  18.095  0.00  0.00    +0.000 C 
ATOM     19  O   UNL     1       0.955   4.370  17.245  0.00  0.00    +0.000 OA
BRANCH  18  20
ATOM     20  O   UNL     1       1.365   3.092  19.098  0.00  0.00    +0.000 OA
BRANCH  20  22
ATOM     21  C   UNL     1       1.869   3.179  21.469  0.00  0.00    +0.000 C 
ATOM     22  C   UNL     1       1.002   3.713  20.342  0.00  0.00    +0.000 C 
ENDBRANCH  20  22
ENDBRANCH  18  20
ENDBRANCH   1  18
TORSDOF 6
ENDMDL
MODEL 2
REMARK VINA RESULT:      -6.8      0.200      1.099
REMARK  Name = 
REMARK  7 active torsions:
REMARK  status: ('A' for Active; 'I' for Inactive)
REMARK    1  A    between atoms: C_1  and  C_2
REMARK    2  A    between atoms: C_2  and  O_3
REMARK    3  A    between atoms: O_3  and  C_4
REMARK    4  A    between atoms: C_4  and  C_6
REMARK    5  A    between atoms: C_7  and  C_8
REMARK    6  A    between atoms: C_11  and  N_12
REMARK    7  A    between atoms: C_19  and  N_20
REMARK                            x       y       z     vdW  Elec       q    Type
REMARK                         _______ _______ _______ _____ _____    ______ ____
ROOT
ATOM      1  C   UNL     1       3.215   4.456  18.081  0.00  0.00    +0.000 A 
ATOM      2  C   UNL     1       3.639   5.838  18.282  0.00  0.00    +0.000 A 
ATOM      3  C   UNL     1       5.015   5.946  18.188  0.00  0.00    +0.000 A 
ATOM      4  S   UNL     1       5.782   4.463  17.857  0.00  0.00    +0.000 S 
ATOM      5  C   UNL     1       4.297   3.621  17.841  0.00  0.00    +0.000 A 
ENDROOT
BRANCH   2   6
ATOM      6  C   UNL     1       2.822   7.024  18.590  0.00  0.00    +0.000 A 
ATOM      7  C   UNL     1       2.261   7.199  19.865  0.00  0.00    +0.000 A 
ATOM      8  C   UNL     1       1.451   8.304  20.156  0.00  0.00    +0.000 A 
ATOM      9  C   UNL     1       1.229   9.273  19.174  0.00  0.00    +0.000 A 
ATOM     10  C   UNL     1       1.807   9.140  17.908  0.00  0.00    +0.000 A 
ATOM     11  C   UNL     1       2.588   8.013  17.619  0.00  0.00    +0.000 A 
BRANCH   9  12
ATOM     12  N   UNL     1       0.390  10.439  19.479  0.00  0.00    +0.000 N 
ATOM     13  O   UNL     1      -0.601  10.639  18.762  0.00  0.00    +0.000 OA
ATOM     14  O   UNL     1       0.718  11.147  20.441  0.00  0.00    +0.000 OA
ENDBRANCH   9  12
ENDBRANCH   2   6
BRANCH   5  15
ATOM     15  N   UNL     1       4.296   2.292  17.587  0.00  0.00    +0.000 N 
ATOM     16  H   UNL     1       4.557   1.971  16.658  0.00  0.00    +0.000 HD
ATOM     17  H   UNL     1       4.522   1.631  18.326  0.00  0.00    +0.000 HD
ENDBRANCH   5  15
BRANCH   1  18
ATOM     18  C   UNL     1       1.832   3.985  18.085  0.00  0.00    +0.000 C 
ATOM     19  O   UNL     1       0.984   4.367  17.289  0.00  0.00    +0.000 OA
BRANCH  18  20
ATOM     20  O   UNL     1       1.563   3.141  19.132  0.00  0.00    +0.000 OA
BRANCH  20  22
ATOM     21  C   UNL     1       2.008   3.560  21.479  0.00  0.00    +0.000 C 
ATOM     22  C   UNL     1       1.052   3.770  20.318  0.00  0.00    +0.000 C 
ENDBRANCH  20  22
ENDBRANCH  18  20
ENDBRANCH   1  18
TORSDOF 6
ENDMDL
MODEL 3
REMARK VINA RESULT:      -6.6      2.331      3.539
REMARK  Name = 
REMARK  7 active torsions:
REMARK  status: ('A' for Active; 'I' for Inactive)
REMARK    1  A    between atoms: C_1  and  C_2
REMARK    2  A    between atoms: C_2  and  O_3
REMARK    3  A    between atoms: O_3  and  C_4
REMARK    4  A    between atoms: C_4  and  C_6
REMARK    5  A    between atoms: C_7  and  C_8
REMARK    6  A    between atoms: C_11  and  N_12
REMARK    7  A    between atoms: C_19  and  N_20
REMARK                            x       y       z     vdW  Elec       q    Type
REMARK                         _______ _______ _______ _____ _____    ______ ____
ROOT
ATOM      1  C   UNL     1       4.459   5.452  17.090  0.00  0.00    +0.000 A 
ATOM      2  C   UNL     1       3.327   5.591  17.999  0.00  0.00    +0.000 A 
ATOM      3  C   UNL     1       2.865   4.349  18.399  0.00  0.00    +0.000 A 
ATOM      4  S   UNL     1       3.753   3.060  17.733  0.00  0.00    +0.000 S 
ATOM      5  C   UNL     1       4.779   4.119  16.874  0.00  0.00    +0.000 A 
ENDROOT
BRANCH   2   6
ATOM      6  C   UNL     1       2.654   6.816  18.464  0.00  0.00    +0.000 A 
ATOM      7  C   UNL     1       2.299   6.974  19.813  0.00  0.00    +0.000 A 
ATOM      8  C   UNL     1       1.624   8.118  20.256  0.00  0.00    +0.000 A 
ATOM      9  C   UNL     1       1.335   9.142  19.351  0.00  0.00    +0.000 A 
ATOM     10  C   UNL     1       1.712   9.025  18.009  0.00  0.00    +0.000 A 
ATOM     11  C   UNL     1       2.357   7.861  17.571  0.00  0.00    +0.000 A 
BRANCH   9  12
ATOM     12  N   UNL     1       0.638  10.348  19.814  0.00  0.00    +0.000 N 
ATOM     13  O   UNL     1      -0.376  10.702  19.197  0.00  0.00    +0.000 OA
ATOM     14  O   UNL     1       1.100  10.935  20.803  0.00  0.00    +0.000 OA
ENDBRANCH   9  12
ENDBRANCH   2   6
BRANCH   5  15
ATOM     15  N   UNL     1       5.775   3.603  16.117  0.00  0.00    +0.000 N 
ATOM     16  H   UNL     1       6.609   3.251  16.581  0.00  0.00    +0.000 HD
ATOM     17  H   UNL     1       5.559   3.124  15.246  0.00  0.00    +0.000 HD
ENDBRANCH   5  15
BRANCH   1  18
ATOM     18  C   UNL     1       5.210   6.557  16.496  0.00  0.00    +0.000 C 
ATOM     19  O   UNL     1       5.221   6.801  15.297  0.00  0.00    +0.000 OA
BRANCH  18  20
ATOM     20  O   UNL     1       5.972   7.232  17.414  0.00  0.00    +0.000 OA
BRANCH  20  22
ATOM     21  C   UNL     1       7.722   6.162  18.708  0.00  0.00    +0.000 C 
ATOM     22  C   UNL     1       7.368   6.896  17.426  0.00  0.00    +0.000 C 
ENDBRANCH  20  22
ENDBRANCH  18  20
ENDBRANCH   1  18
TORSDOF 6
ENDMDL
MODEL 4
REMARK VINA RESULT:      -6.6      2.335      3.426
REMARK  Name = 
REMARK  7 active torsions:
REMARK  status: ('A' for Active; 'I' for Inactive)
REMARK    1  A    between atoms: C_1  and  C_2
REMARK    2  A    between atoms: C_2  and  O_3
REMARK    3  A    between atoms: O_3  and  C_4
REMARK    4  A    between atoms: C_4  and  C_6
REMARK    5  A    between atoms: C_7  and  C_8
REMARK    6  A    between atoms: C_11  and  N_12
REMARK    7  A    between atoms: C_19  and  N_20
REMARK                            x       y       z     vdW  Elec       q    Type
REMARK                         _______ _______ _______ _____ _____    ______ ____
ROOT
ATOM      1  C   UNL     1       4.439   5.441  17.089  0.00  0.00    +0.000 A 
ATOM      2  C   UNL     1       3.307   5.590  17.997  0.00  0.00    +0.000 A 
ATOM      3  C   UNL     1       2.838   4.353  18.402  0.00  0.00    +0.000 A 
ATOM      4  S   UNL     1       3.718   3.055  17.742  0.00  0.00    +0.000 S 
ATOM      5  C   UNL     1       4.751   4.104  16.879  0.00  0.00    +0.000 A 
ENDROOT
BRANCH   2   6
ATOM      6  C   UNL     1       2.641   6.821  18.457  0.00  0.00    +0.000 A 
ATOM      7  C   UNL     1       2.352   7.860  17.558  0.00  0.00    +0.000 A 
ATOM      8  C   UNL     1       1.755   9.050  17.993  0.00  0.00    +0.000 A 
ATOM      9  C   UNL     1       1.401   9.192  19.337  0.00  0.00    +0.000 A 
ATOM     10  C   UNL     1       1.645   8.157  20.244  0.00  0.00    +0.000 A 
ATOM     11  C   UNL     1       2.273   6.985  19.804  0.00  0.00    +0.000 A 
BRANCH   9  12
ATOM     12  N   UNL     1       0.764  10.434  19.794  0.00  0.00    +0.000 N 
ATOM     13  O   UNL     1       0.823  10.702  21.003  0.00  0.00    +0.000 OA
ATOM     14  O   UNL     1       0.214  11.145  18.942  0.00  0.00    +0.000 OA
ENDBRANCH   9  12
ENDBRANCH   2   6
BRANCH   5  15
ATOM     15  N   UNL     1       5.745   3.579  16.126  0.00  0.00    +0.000 N 
ATOM     16  H   UNL     1       6.690   3.573  16.499  0.00  0.00    +0.000 HD
ATOM     17  H   UNL     1       5.551   2.808  15.491  0.00  0.00    +0.000 HD
ENDBRANCH   5  15
BRANCH   1  18
ATOM     18  C   UNL     1       5.197   6.538  16.492  0.00  0.00    +0.000 C 
ATOM     19  O   UNL     1       5.215   6.773  15.291  0.00  0.00    +0.000 OA
BRANCH  18  20
ATOM     20  O   UNL     1       5.956   7.218  17.409  0.00  0.00    +0.000 OA
BRANCH  20  22
ATOM     21  C   UNL     1       7.699   6.127  18.696  0.00  0.00    +0.000 C 
ATOM     22  C   UNL     1       7.353   6.883  17.425  0.00  0.00    +0.000 C 
ENDBRANCH  20  22
ENDBRANCH  18  20
ENDBRANCH   1  18
TORSDOF 6
ENDMDL
MODEL 5
REMARK VINA RESULT:      -6.5      4.133      5.883
REMARK  Name = 
REMARK  7 active torsions:
REMARK  status: ('A' for Active; 'I' for Inactive)
REMARK    1  A    between atoms: C_1  and  C_2
REMARK    2  A    between atoms: C_2  and  O_3
REMARK    3  A    between atoms: O_3  and  C_4
REMARK    4  A    between atoms: C_4  and  C_6
REMARK    5  A    between atoms: C_7  and  C_8
REMARK    6  A    between atoms: C_11  and  N_12
REMARK    7  A    between atoms: C_19  and  N_20
REMARK                            x       y       z     vdW  Elec       q    Type
REMARK                         _______ _______ _______ _____ _____    ______ ____
ROOT
ATOM      1  C   UNL     1       3.492   4.392  19.583  0.00  0.00    +0.000 A 
ATOM      2  C   UNL     1       3.814   5.385  18.564  0.00  0.00    +0.000 A 
ATOM      3  C   UNL     1       3.119   6.561  18.790  0.00  0.00    +0.000 A 
ATOM      4  S   UNL     1       2.128   6.497  20.172  0.00  0.00    +0.000 S 
ATOM      5  C   UNL     1       2.585   4.887  20.510  0.00  0.00    +0.000 A 
ENDROOT
BRANCH   2   6
ATOM      6  C   UNL     1       4.698   5.262  17.393  0.00  0.00    +0.000 A 
ATOM      7  C   UNL     1       5.886   6.006  17.307  0.00  0.00    +0.000 A 
ATOM      8  C   UNL     1       6.713   5.924  16.180  0.00  0.00    +0.000 A 
ATOM      9  C   UNL     1       6.375   5.056  15.139  0.00  0.00    +0.000 A 
ATOM     10  C   UNL     1       5.216   4.277  15.217  0.00  0.00    +0.000 A 
ATOM     11  C   UNL     1       4.380   4.392  16.335  0.00  0.00    +0.000 A 
BRANCH   9  12
ATOM     12  N   UNL     1       7.246   4.959  13.961  0.00  0.00    +0.000 N 
ATOM     13  O   UNL     1       6.934   4.148  13.077  0.00  0.00    +0.000 OA
ATOM     14  O   UNL     1       8.236   5.702  13.915  0.00  0.00    +0.000 OA
ENDBRANCH   9  12
ENDBRANCH   2   6
BRANCH   5  15
ATOM     15  N   UNL     1       2.076   4.272  21.602  0.00  0.00    +0.000 N 
ATOM     16  H   UNL     1       2.711   3.981  22.341  0.00  0.00    +0.000 HD
ATOM     17  H   UNL     1       1.144   4.511  21.934  0.00  0.00    +0.000 HD
ENDBRANCH   5  15
BRANCH   1  18
ATOM     18  C   UNL     1       4.065   3.050  19.668  0.00  0.00    +0.000 C 
ATOM     19  O   UNL     1       5.267   2.831  19.741  0.00  0.00    +0.000 OA
BRANCH  18  20
ATOM     20  O   UNL     1       3.118   2.063  19.567  0.00  0.00    +0.000 OA
BRANCH  20  22
ATOM     21  C   UNL     1       0.880   2.265  18.655  0.00  0.00    +0.000 C 
ATOM     22  C   UNL     1       2.354   2.063  18.350  0.00  0.00    +0.000 C 
ENDBRANCH  20  22
ENDBRANCH  18  20
ENDBRANCH   1  18
TORSDOF 6
ENDMDL
MODEL 6
REMARK VINA RESULT:      -6.5      1.001      1.004
REMARK  Name = 
REMARK  7 active torsions:
REMARK  status: ('A' for Active; 'I' for Inactive)
REMARK    1  A    between atoms: C_1  and  C_2
REMARK    2  A    between atoms: C_2  and  O_3
REMARK    3  A    between atoms: O_3  and  C_4
REMARK    4  A    between atoms: C_4  and  C_6
REMARK    5  A    between atoms: C_7  and  C_8
REMARK    6  A    between atoms: C_11  and  N_12
REMARK    7  A    between atoms: C_19  and  N_20
REMARK                            x       y       z     vdW  Elec       q    Type
REMARK                         _______ _______ _______ _____ _____    ______ ____
ROOT
ATOM      1  C   UNL     1       3.353   5.017  17.777  0.00  0.00    +0.000 A 
ATOM      2  C   UNL     1       3.515   6.464  17.867  0.00  0.00    +0.000 A 
ATOM      3  C   UNL     1       4.694   6.864  17.263  0.00  0.00    +0.000 A 
ATOM      4  S   UNL     1       5.576   5.570  16.596  0.00  0.00    +0.000 S 
ATOM      5  C   UNL     1       4.415   4.427  17.105  0.00  0.00    +0.000 A 
ENDROOT
BRANCH   2   6
ATOM      6  C   UNL     1       2.644   7.457  18.518  0.00  0.00    +0.000 A 
ATOM      7  C   UNL     1       2.149   8.559  17.802  0.00  0.00    +0.000 A 
ATOM      8  C   UNL     1       1.352   9.529  18.422  0.00  0.00    +0.000 A 
ATOM      9  C   UNL     1       1.005   9.378  19.768  0.00  0.00    +0.000 A 
ATOM     10  C   UNL     1       1.455   8.270  20.492  0.00  0.00    +0.000 A 
ATOM     11  C   UNL     1       2.279   7.324  19.869  0.00  0.00    +0.000 A 
BRANCH   9  12
ATOM     12  N   UNL     1       0.160  10.387  20.419  0.00  0.00    +0.000 N 
ATOM     13  O   UNL     1      -0.946  10.627  19.913  0.00  0.00    +0.000 OA
ATOM     14  O   UNL     1       0.599  10.931  21.442  0.00  0.00    +0.000 OA
ENDBRANCH   9  12
ENDBRANCH   2   6
BRANCH   5  15
ATOM     15  N   UNL     1       4.602   3.120  16.808  0.00  0.00    +0.000 N 
ATOM     16  H   UNL     1       3.792   2.551  16.571  0.00  0.00    +0.000 HD
ATOM     17  H   UNL     1       5.461   2.818  16.353  0.00  0.00    +0.000 HD
ENDBRANCH   5  15
BRANCH   1  18
ATOM     18  C   UNL     1       2.211   4.259  18.283  0.00  0.00    +0.000 C 
ATOM     19  O   UNL     1       1.194   4.053  17.634  0.00  0.00    +0.000 OA
BRANCH  18  20
ATOM     20  O   UNL     1       2.365   3.883  19.593  0.00  0.00    +0.000 OA
BRANCH  20  22
ATOM     21  C   UNL     1       1.312   2.738  21.454  0.00  0.00    +0.000 C 
ATOM     22  C   UNL     1       1.149   3.768  20.349  0.00  0.00    +0.000 C 
ENDBRANCH  20  22
ENDBRANCH  18  20
ENDBRANCH   1  18
TORSDOF 6
ENDMDL
MODEL 7
REMARK VINA RESULT:      -6.5      1.073      1.655
REMARK  Name = 
REMARK  7 active torsions:
REMARK  status: ('A' for Active; 'I' for Inactive)
REMARK    1  A    between atoms: C_1  and  C_2
REMARK    2  A    between atoms: C_2  and  O_3
REMARK    3  A    between atoms: O_3  and  C_4
REMARK    4  A    between atoms: C_4  and  C_6
REMARK    5  A    between atoms: C_7  and  C_8
REMARK    6  A    between atoms: C_11  and  N_12
REMARK    7  A    between atoms: C_19  and  N_20
REMARK                            x       y       z     vdW  Elec       q    Type
REMARK                         _______ _______ _______ _____ _____    ______ ____
ROOT
ATOM      1  C   UNL     1       3.555   4.992  17.558  0.00  0.00    +0.000 A 
ATOM      2  C   UNL     1       3.708   6.428  17.768  0.00  0.00    +0.000 A 
ATOM      3  C   UNL     1       4.949   6.857  17.331  0.00  0.00    +0.000 A 
ATOM      4  S   UNL     1       5.898   5.604  16.679  0.00  0.00    +0.000 S 
ATOM      5  C   UNL     1       4.685   4.440  16.971  0.00  0.00    +0.000 A 
ENDROOT
BRANCH   2   6
ATOM      6  C   UNL     1       2.770   7.382  18.384  0.00  0.00    +0.000 A 
ATOM      7  C   UNL     1       2.385   7.245  19.727  0.00  0.00    +0.000 A 
ATOM      8  C   UNL     1       1.463   8.124  20.310  0.00  0.00    +0.000 A 
ATOM      9  C   UNL     1       0.949   9.182  19.557  0.00  0.00    +0.000 A 
ATOM     10  C   UNL     1       1.345   9.361  18.228  0.00  0.00    +0.000 A 
ATOM     11  C   UNL     1       2.242   8.456  17.646  0.00  0.00    +0.000 A 
BRANCH   9  12
ATOM     12  N   UNL     1      -0.009  10.113  20.168  0.00  0.00    +0.000 N 
ATOM     13  O   UNL     1       0.129  10.374  21.372  0.00  0.00    +0.000 OA
ATOM     14  O   UNL     1      -0.892  10.589  19.441  0.00  0.00    +0.000 OA
ENDBRANCH   9  12
ENDBRANCH   2   6
BRANCH   5  15
ATOM     15  N   UNL     1       4.901   3.155  16.605  0.00  0.00    +0.000 N 
ATOM     16  H   UNL     1       4.848   2.911  15.619  0.00  0.00    +0.000 HD
ATOM     17  H   UNL     1       5.549   2.576  17.135  0.00  0.00    +0.000 HD
ENDBRANCH   5  15
BRANCH   1  18
ATOM     18  C   UNL     1       2.361   4.212  17.877  0.00  0.00    +0.000 C 
ATOM     19  O   UNL     1       1.254   4.449  17.412  0.00  0.00    +0.000 OA
BRANCH  18  20
ATOM     20  O   UNL     1       2.597   3.246  18.821  0.00  0.00    +0.000 OA
BRANCH  20  22
ATOM     21  C   UNL     1       1.259   3.533  20.823  0.00  0.00    +0.000 C 
ATOM     22  C   UNL     1       2.624   3.706  20.182  0.00  0.00    +0.000 C 
ENDBRANCH  20  22
ENDBRANCH  18  20
ENDBRANCH   1  18
TORSDOF 6
ENDMDL
MODEL 8
REMARK VINA RESULT:      -6.5      3.666      5.636
REMARK  Name = 
REMARK  7 active torsions:
REMARK  status: ('A' for Active; 'I' for Inactive)
REMARK    1  A    between atoms: C_1  and  C_2
REMARK    2  A    between atoms: C_2  and  O_3
REMARK    3  A    between atoms: O_3  and  C_4
REMARK    4  A    between atoms: C_4  and  C_6
REMARK    5  A    between atoms: C_7  and  C_8
REMARK    6  A    between atoms: C_11  and  N_12
REMARK    7  A    between atoms: C_19  and  N_20
REMARK                            x       y       z     vdW  Elec       q    Type
REMARK                         _______ _______ _______ _____ _____    ______ ____
ROOT
ATOM      1  C   UNL     1       6.556   5.203  15.571  0.00  0.00    +0.000 A 
ATOM      2  C   UNL     1       5.328   4.425  15.690  0.00  0.00    +0.000 A 
ATOM      3  C   UNL     1       5.066   3.742  14.515  0.00  0.00    +0.000 A 
ATOM      4  S   UNL     1       6.243   4.001  13.314  0.00  0.00    +0.000 S 
ATOM      5  C   UNL     1       7.139   5.048  14.321  0.00  0.00    +0.000 A 
ENDROOT
BRANCH   2   6
ATOM      6  C   UNL     1       4.394   4.331  16.825  0.00  0.00    +0.000 A 
ATOM      7  C   UNL     1       3.720   5.469  17.297  0.00  0.00    +0.000 A 
ATOM      8  C   UNL     1       2.860   5.397  18.400  0.00  0.00    +0.000 A 
ATOM      9  C   UNL     1       2.634   4.165  19.018  0.00  0.00    +0.000 A 
ATOM     10  C   UNL     1       3.265   3.011  18.544  0.00  0.00    +0.000 A 
ATOM     11  C   UNL     1       4.149   3.101  17.460  0.00  0.00    +0.000 A 
BRANCH   9  12
ATOM     12  N   UNL     1       1.724   4.084  20.168  0.00  0.00    +0.000 N 
ATOM     13  O   UNL     1       1.997   4.761  21.169  0.00  0.00    +0.000 OA
ATOM     14  O   UNL     1       0.731   3.350  20.064  0.00  0.00    +0.000 OA
ENDBRANCH   9  12
ENDBRANCH   2   6
BRANCH   5  15
ATOM     15  N   UNL     1       8.288   5.588  13.854  0.00  0.00    +0.000 N 
ATOM     16  H   UNL     1       9.005   4.969  13.485  0.00  0.00    +0.000 HD
ATOM     17  H   UNL     1       8.280   6.509  13.421  0.00  0.00    +0.000 HD
ENDBRANCH   5  15
BRANCH   1  18
ATOM     18  C   UNL     1       7.147   6.021  16.629  0.00  0.00    +0.000 C 
ATOM     19  O   UNL     1       7.111   7.244  16.637  0.00  0.00    +0.000 OA
BRANCH  18  20
ATOM     20  O   UNL     1       7.822   5.275  17.560  0.00  0.00    +0.000 OA
BRANCH  20  22
ATOM     21  C   UNL     1       6.458   5.355  19.563  0.00  0.00    +0.000 C 
ATOM     22  C   UNL     1       7.764   5.769  18.907  0.00  0.00    +0.000 C 
ENDBRANCH  20  22
ENDBRANCH  18  20
ENDBRANCH   1  18
TORSDOF 6
ENDMDL
MODEL 9
REMARK VINA RESULT:      -6.4      3.637      5.640
REMARK  Name = 
REMARK  7 active torsions:
REMARK  status: ('A' for Active; 'I' for Inactive)
REMARK    1  A    between atoms: C_1  and  C_2
REMARK    2  A    between atoms: C_2  and  O_3
REMARK    3  A    between atoms: O_3  and  C_4
REMARK    4  A    between atoms: C_4  and  C_6
REMARK    5  A    between atoms: C_7  and  C_8
REMARK    6  A    between atoms: C_11  and  N_12
REMARK    7  A    between atoms: C_19  and  N_20
REMARK                            x       y       z     vdW  Elec       q    Type
REMARK                         _______ _______ _______ _____ _____    ______ ____
ROOT
ATOM      1  C   UNL     1       6.511   5.204  15.594  0.00  0.00    +0.000 A 
ATOM      2  C   UNL     1       5.289   4.415  15.709  0.00  0.00    +0.000 A 
ATOM      3  C   UNL     1       5.044   3.719  14.538  0.00  0.00    +0.000 A 
ATOM      4  S   UNL     1       6.229   3.979  13.345  0.00  0.00    +0.000 S 
ATOM      5  C   UNL     1       7.107   5.043  14.350  0.00  0.00    +0.000 A 
ENDROOT
BRANCH   2   6
ATOM      6  C   UNL     1       4.346   4.322  16.836  0.00  0.00    +0.000 A 
ATOM      7  C   UNL     1       4.108   3.096  17.477  0.00  0.00    +0.000 A 
ATOM      8  C   UNL     1       3.184   2.991  18.523  0.00  0.00    +0.000 A 
ATOM      9  C   UNL     1       2.516   4.135  18.970  0.00  0.00    +0.000 A 
ATOM     10  C   UNL     1       2.763   5.374  18.372  0.00  0.00    +0.000 A 
ATOM     11  C   UNL     1       3.665   5.460  17.304  0.00  0.00    +0.000 A 
BRANCH   9  12
ATOM     12  N   UNL     1       1.555   4.031  20.074  0.00  0.00    +0.000 N 
ATOM     13  O   UNL     1       1.297   5.061  20.714  0.00  0.00    +0.000 OA
ATOM     14  O   UNL     1       1.051   2.921  20.295  0.00  0.00    +0.000 OA
ENDBRANCH   9  12
ENDBRANCH   2   6
BRANCH   5  15
ATOM     15  N   UNL     1       8.255   5.590  13.889  0.00  0.00    +0.000 N 
ATOM     16  H   UNL     1       8.227   6.528  13.498  0.00  0.00    +0.000 HD
ATOM     17  H   UNL     1       9.144   5.355  14.325  0.00  0.00    +0.000 HD
ENDBRANCH   5  15
BRANCH   1  18
ATOM     18  C   UNL     1       7.085   6.036  16.649  0.00  0.00    +0.000 C 
ATOM     19  O   UNL     1       6.997   7.257  16.671  0.00  0.00    +0.000 OA
BRANCH  18  20
ATOM     20  O   UNL     1       7.808   5.311  17.561  0.00  0.00    +0.000 OA
BRANCH  20  22
ATOM     21  C   UNL     1       6.411   5.351  19.543  0.00  0.00    +0.000 C 
ATOM     22  C   UNL     1       7.730   5.773  18.919  0.00  0.00    +0.000 C 
ENDBRANCH  20  22
ENDBRANCH  18  20
ENDBRANCH   1  18
TORSDOF 6
ENDMDL
