MODEL 1
REMARK VINA RESULT:      -7.5      0.000      0.000
REMARK  Name = 
REMARK  3 active torsions:
REMARK  status: ('A' for Active; 'I' for Inactive)
REMARK    1  A    between atoms: C_1  and  C_2
REMARK    2  A    between atoms: C_2  and  C_3
REMARK    3  A    between atoms: C_16  and  C_17
REMARK                            x       y       z     vdW  Elec       q    Type
REMARK                         _______ _______ _______ _____ _____    ______ ____
ROOT
ATOM      1  C   UNL     1       2.767   3.523  20.892  0.00  0.00    +0.000 C 
ATOM      2  C   UNL     1       2.322   4.509  19.795  0.00  0.00    +0.000 C 
ATOM      3  C   UNL     1       1.080   3.892  19.115  0.00  0.00    +0.000 C 
ATOM      4  N   UNL     1       1.872   5.746  20.499  0.00  0.00    +0.000 NA
ATOM      5  C   UNL     1       2.058   6.805  19.779  0.00  0.00    +0.000 C 
ATOM      6  N   UNL     1       1.694   8.086  20.118  0.00  0.00    +0.000 N 
ATOM      7  C   UNL     1       1.482   9.165  19.154  0.00  0.00    +0.000 C 
ATOM      8  C   UNL     1       0.047   9.675  19.272  0.00  0.00    +0.000 C 
ATOM      9  C   UNL     1      -0.258  10.119  20.698  0.00  0.00    +0.000 C 
ATOM     10  C   UNL     1       0.039   8.991  21.686  0.00  0.00    +0.000 C 
ATOM     11  C   UNL     1       1.461   8.461  21.510  0.00  0.00    +0.000 C 
ATOM     12  S   UNL     1       2.920   6.560  18.279  0.00  0.00    +0.000 S 
ATOM     13  C   UNL     1       3.470   4.896  18.799  0.00  0.00    +0.000 C 
ATOM     14  C   UNL     1       3.592   4.026  17.532  0.00  0.00    +0.000 C 
ATOM     15  C   UNL     1       4.717   4.480  16.587  0.00  0.00    +0.000 C 
ATOM     16  C   UNL     1       6.071   4.568  17.299  0.00  0.00    +0.000 C 
ATOM     17  C   UNL     1       7.145   5.117  16.361  0.00  0.00    +0.000 C 
ATOM     18  C   UNL     1       5.991   5.430  18.564  0.00  0.00    +0.000 C 
ATOM     19  C   UNL     1       4.854   4.994  19.486  0.00  0.00    +0.000 C 
ENDROOT
TORSDOF 0
ENDMDL
MODEL 2
REMARK VINA RESULT:      -6.5      3.049      4.843
REMARK  Name = 
REMARK  3 active torsions:
REMARK  status: ('A' for Active; 'I' for Inactive)
REMARK    1  A    between atoms: C_1  and  C_2
REMARK    2  A    between atoms: C_2  and  C_3
REMARK    3  A    between atoms: C_16  and  C_17
REMARK                            x       y       z     vdW  Elec       q    Type
REMARK                         _______ _______ _______ _____ _____    ______ ____
ROOT
ATOM      1  C   UNL     1       6.554   3.600  15.967  0.00  0.00    +0.000 C 
ATOM      2  C   UNL     1       5.501   4.537  16.589  0.00  0.00    +0.000 C 
ATOM      3  C   UNL     1       4.518   4.918  15.460  0.00  0.00    +0.000 C 
ATOM      4  N   UNL     1       4.742   3.718  17.580  0.00  0.00    +0.000 NA
ATOM      5  C   UNL     1       4.298   4.436  18.559  0.00  0.00    +0.000 C 
ATOM      6  N   UNL     1       3.514   3.991  19.597  0.00  0.00    +0.000 N 
ATOM      7  C   UNL     1       2.657   4.852  20.410  0.00  0.00    +0.000 C 
ATOM      8  C   UNL     1       1.207   4.386  20.286  0.00  0.00    +0.000 C 
ATOM      9  C   UNL     1       1.072   2.918  20.675  0.00  0.00    +0.000 C 
ATOM     10  C   UNL     1       2.029   2.055  19.854  0.00  0.00    +0.000 C 
ATOM     11  C   UNL     1       3.463   2.575  19.950  0.00  0.00    +0.000 C 
ATOM     12  S   UNL     1       4.822   6.103  18.577  0.00  0.00    +0.000 S 
ATOM     13  C   UNL     1       6.123   5.767  17.338  0.00  0.00    +0.000 C 
ATOM     14  C   UNL     1       6.313   7.047  16.499  0.00  0.00    +0.000 C 
ATOM     15  C   UNL     1       6.899   8.221  17.303  0.00  0.00    +0.000 C 
ATOM     16  C   UNL     1       8.211   7.848  18.001  0.00  0.00    +0.000 C 
ATOM     17  C   UNL     1       8.712   9.000  18.869  0.00  0.00    +0.000 C 
ATOM     18  C   UNL     1       8.061   6.579  18.849  0.00  0.00    +0.000 C 
ATOM     19  C   UNL     1       7.452   5.425  18.054  0.00  0.00    +0.000 C 
ENDROOT
TORSDOF 0
ENDMDL
MODEL 3
REMARK VINA RESULT:      -6.3      2.825      4.767
REMARK  Name = 
REMARK  3 active torsions:
REMARK  status: ('A' for Active; 'I' for Inactive)
REMARK    1  A    between atoms: C_1  and  C_2
REMARK    2  A    between atoms: C_2  and  C_3
REMARK    3  A    between atoms: C_16  and  C_17
REMARK                            x       y       z     vdW  Elec       q    Type
REMARK                         _______ _______ _______ _____ _____    ______ ____
ROOT
ATOM      1  C   UNL     1       6.236   7.503  17.702  0.00  0.00    +0.000 C 
ATOM      2  C   UNL     1       6.015   5.998  17.950  0.00  0.00    +0.000 C 
ATOM      3  C   UNL     1       7.123   5.536  18.922  0.00  0.00    +0.000 C 
ATOM      4  N   UNL     1       4.714   5.878  18.672  0.00  0.00    +0.000 NA
ATOM      5  C   UNL     1       4.120   4.760  18.412  0.00  0.00    +0.000 C 
ATOM      6  N   UNL     1       2.939   4.324  18.965  0.00  0.00    +0.000 N 
ATOM      7  C   UNL     1       2.527   2.923  19.029  0.00  0.00    +0.000 C 
ATOM      8  C   UNL     1       2.330   2.519  20.490  0.00  0.00    +0.000 C 
ATOM      9  C   UNL     1       1.328   3.440  21.178  0.00  0.00    +0.000 C 
ATOM     10  C   UNL     1       1.753   4.900  21.033  0.00  0.00    +0.000 C 
ATOM     11  C   UNL     1       1.998   5.263  19.569  0.00  0.00    +0.000 C 
ATOM     12  S   UNL     1       4.872   3.768  17.186  0.00  0.00    +0.000 S 
ATOM     13  C   UNL     1       5.928   5.153  16.631  0.00  0.00    +0.000 C 
ATOM     14  C   UNL     1       7.254   4.555  16.119  0.00  0.00    +0.000 C 
ATOM     15  C   UNL     1       7.091   3.715  14.841  0.00  0.00    +0.000 C 
ATOM     16  C   UNL     1       6.396   4.495  13.720  0.00  0.00    +0.000 C 
ATOM     17  C   UNL     1       6.159   3.602  12.503  0.00  0.00    +0.000 C 
ATOM     18  C   UNL     1       5.069   5.102  14.191  0.00  0.00    +0.000 C 
ATOM     19  C   UNL     1       5.231   5.912  15.476  0.00  0.00    +0.000 C 
ENDROOT
TORSDOF 0
ENDMDL
MODEL 4
REMARK VINA RESULT:      -5.7      9.471     10.694
REMARK  Name = 
REMARK  3 active torsions:
REMARK  status: ('A' for Active; 'I' for Inactive)
REMARK    1  A    between atoms: C_1  and  C_2
REMARK    2  A    between atoms: C_2  and  C_3
REMARK    3  A    between atoms: C_16  and  C_17
REMARK                            x       y       z     vdW  Elec       q    Type
REMARK                         _______ _______ _______ _____ _____    ______ ____
ROOT
ATOM      1  C   UNL     1      11.660  11.508  19.289  0.00  0.00    +0.000 C 
ATOM      2  C   UNL     1      10.329  12.283  19.284  0.00  0.00    +0.000 C 
ATOM      3  C   UNL     1       9.388  11.551  18.302  0.00  0.00    +0.000 C 
ATOM      4  N   UNL     1       9.748  12.130  20.650  0.00  0.00    +0.000 NA
ATOM      5  C   UNL     1       9.026  13.150  20.984  0.00  0.00    +0.000 C 
ATOM      6  N   UNL     1       8.309  13.286  22.149  0.00  0.00    +0.000 N 
ATOM      7  C   UNL     1       7.168  14.185  22.314  0.00  0.00    +0.000 C 
ATOM      8  C   UNL     1       5.932  13.370  22.693  0.00  0.00    +0.000 C 
ATOM      9  C   UNL     1       6.189  12.540  23.946  0.00  0.00    +0.000 C 
ATOM     10  C   UNL     1       7.427  11.664  23.764  0.00  0.00    +0.000 C 
ATOM     11  C   UNL     1       8.635  12.494  23.332  0.00  0.00    +0.000 C 
ATOM     12  S   UNL     1       9.043  14.491  19.865  0.00  0.00    +0.000 S 
ATOM     13  C   UNL     1      10.497  13.815  18.987  0.00  0.00    +0.000 C 
ATOM     14  C   UNL     1      10.388  14.235  17.507  0.00  0.00    +0.000 C 
ATOM     15  C   UNL     1      10.533  15.751  17.292  0.00  0.00    +0.000 C 
ATOM     16  C   UNL     1      11.826  16.302  17.904  0.00  0.00    +0.000 C 
ATOM     17  C   UNL     1      11.889  17.822  17.763  0.00  0.00    +0.000 C 
ATOM     18  C   UNL     1      11.968  15.907  19.379  0.00  0.00    +0.000 C 
ATOM     19  C   UNL     1      11.795  14.404  19.591  0.00  0.00    +0.000 C 
ENDROOT
TORSDOF 0
ENDMDL
MODEL 5
REMARK VINA RESULT:      -5.6      1.809      3.590
REMARK  Name = 
REMARK  3 active torsions:
REMARK  status: ('A' for Active; 'I' for Inactive)
REMARK    1  A    between atoms: C_1  and  C_2
REMARK    2  A    between atoms: C_2  and  C_3
REMARK    3  A    between atoms: C_16  and  C_17
REMARK                            x       y       z     vdW  Elec       q    Type
REMARK                         _______ _______ _______ _____ _____    ______ ____
ROOT
ATOM      1  C   UNL     1       5.099   6.321  15.827  0.00  0.00    +0.000 C 
ATOM      2  C   UNL     1       4.761   6.486  17.322  0.00  0.00    +0.000 C 
ATOM      3  C   UNL     1       6.031   7.033  18.010  0.00  0.00    +0.000 C 
ATOM      4  N   UNL     1       3.720   7.552  17.402  0.00  0.00    +0.000 NA
ATOM      5  C   UNL     1       2.933   7.382  18.414  0.00  0.00    +0.000 C 
ATOM      6  N   UNL     1       1.914   8.222  18.796  0.00  0.00    +0.000 N 
ATOM      7  C   UNL     1       1.357   8.280  20.146  0.00  0.00    +0.000 C 
ATOM      8  C   UNL     1       1.537   9.689  20.710  0.00  0.00    +0.000 C 
ATOM      9  C   UNL     1       0.907  10.728  19.789  0.00  0.00    +0.000 C 
ATOM     10  C   UNL     1       1.462  10.595  18.371  0.00  0.00    +0.000 C 
ATOM     11  C   UNL     1       1.320   9.165  17.852  0.00  0.00    +0.000 C 
ATOM     12  S   UNL     1       3.163   5.902  19.313  0.00  0.00    +0.000 S 
ATOM     13  C   UNL     1       4.188   5.183  17.981  0.00  0.00    +0.000 C 
ATOM     14  C   UNL     1       5.219   4.244  18.637  0.00  0.00    +0.000 C 
ATOM     15  C   UNL     1       4.585   3.003  19.289  0.00  0.00    +0.000 C 
ATOM     16  C   UNL     1       3.706   2.219  18.308  0.00  0.00    +0.000 C 
ATOM     17  C   UNL     1       3.013   1.054  19.012  0.00  0.00    +0.000 C 
ATOM     18  C   UNL     1       2.663   3.120  17.636  0.00  0.00    +0.000 C 
ATOM     19  C   UNL     1       3.294   4.366  17.016  0.00  0.00    +0.000 C 
ENDROOT
TORSDOF 0
ENDMDL
MODEL 6
REMARK VINA RESULT:      -5.5      6.529      8.314
REMARK  Name = 
REMARK  3 active torsions:
REMARK  status: ('A' for Active; 'I' for Inactive)
REMARK    1  A    between atoms: C_1  and  C_2
REMARK    2  A    between atoms: C_2  and  C_3
REMARK    3  A    between atoms: C_16  and  C_17
REMARK                            x       y       z     vdW  Elec       q    Type
REMARK                         _______ _______ _______ _____ _____    ______ ____
ROOT
ATOM      1  C   UNL     1      -0.775  11.071  22.139  0.00  0.00    +0.000 C 
ATOM      2  C   UNL     1      -0.859  12.271  21.176  0.00  0.00    +0.000 C 
ATOM      3  C   UNL     1      -1.818  13.296  21.821  0.00  0.00    +0.000 C 
ATOM      4  N   UNL     1       0.500  12.889  21.155  0.00  0.00    +0.000 NA
ATOM      5  C   UNL     1       0.754  13.455  20.021  0.00  0.00    +0.000 C 
ATOM      6  N   UNL     1       1.891  14.161  19.706  0.00  0.00    +0.000 N 
ATOM      7  C   UNL     1       1.973  15.157  18.639  0.00  0.00    +0.000 C 
ATOM      8  C   UNL     1       2.370  16.507  19.235  0.00  0.00    +0.000 C 
ATOM      9  C   UNL     1       3.676  16.396  20.013  0.00  0.00    +0.000 C 
ATOM     10  C   UNL     1       3.578  15.301  21.074  0.00  0.00    +0.000 C 
ATOM     11  C   UNL     1       3.126  13.975  20.462  0.00  0.00    +0.000 C 
ATOM     12  S   UNL     1      -0.443  13.219  18.770  0.00  0.00    +0.000 S 
ATOM     13  C   UNL     1      -1.244  11.871  19.709  0.00  0.00    +0.000 C 
ATOM     14  C   UNL     1      -2.748  11.892  19.371  0.00  0.00    +0.000 C 
ATOM     15  C   UNL     1      -3.050  11.518  17.910  0.00  0.00    +0.000 C 
ATOM     16  C   UNL     1      -2.440  10.167  17.520  0.00  0.00    +0.000 C 
ATOM     17  C   UNL     1      -2.671   9.874  16.039  0.00  0.00    +0.000 C 
ATOM     18  C   UNL     1      -0.941  10.108  17.838  0.00  0.00    +0.000 C 
ATOM     19  C   UNL     1      -0.644  10.508  19.282  0.00  0.00    +0.000 C 
ENDROOT
TORSDOF 0
ENDMDL
MODEL 7
REMARK VINA RESULT:      -5.4      6.986      9.574
REMARK  Name = 
REMARK  3 active torsions:
REMARK  status: ('A' for Active; 'I' for Inactive)
REMARK    1  A    between atoms: C_1  and  C_2
REMARK    2  A    between atoms: C_2  and  C_3
REMARK    3  A    between atoms: C_16  and  C_17
REMARK                            x       y       z     vdW  Elec       q    Type
REMARK                         _______ _______ _______ _____ _____    ______ ____
ROOT
ATOM      1  C   UNL     1       1.053  11.988  20.632  0.00  0.00    +0.000 C 
ATOM      2  C   UNL     1      -0.216  12.620  20.028  0.00  0.00    +0.000 C 
ATOM      3  C   UNL     1       0.240  13.851  19.214  0.00  0.00    +0.000 C 
ATOM      4  N   UNL     1      -0.759  11.624  19.056  0.00  0.00    +0.000 NA
ATOM      5  C   UNL     1      -2.045  11.709  18.948  0.00  0.00    +0.000 C 
ATOM      6  N   UNL     1      -2.834  10.974  18.095  0.00  0.00    +0.000 N 
ATOM      7  C   UNL     1      -4.167  11.381  17.651  0.00  0.00    +0.000 C 
ATOM      8  C   UNL     1      -4.177  11.505  16.128  0.00  0.00    +0.000 C 
ATOM      9  C   UNL     1      -3.730  10.204  15.472  0.00  0.00    +0.000 C 
ATOM     10  C   UNL     1      -2.366   9.773  16.009  0.00  0.00    +0.000 C 
ATOM     11  C   UNL     1      -2.366   9.709  17.535  0.00  0.00    +0.000 C 
ATOM     12  S   UNL     1      -2.829  12.811  20.054  0.00  0.00    +0.000 S 
ATOM     13  C   UNL     1      -1.327  12.931  21.090  0.00  0.00    +0.000 C 
ATOM     14  C   UNL     1      -1.297  14.342  21.710  0.00  0.00    +0.000 C 
ATOM     15  C   UNL     1      -2.431  14.589  22.720  0.00  0.00    +0.000 C 
ATOM     16  C   UNL     1      -2.463  13.527  23.825  0.00  0.00    +0.000 C 
ATOM     17  C   UNL     1      -3.659  13.743  24.751  0.00  0.00    +0.000 C 
ATOM     18  C   UNL     1      -2.498  12.108  23.246  0.00  0.00    +0.000 C 
ATOM     19  C   UNL     1      -1.387  11.877  22.223  0.00  0.00    +0.000 C 
ENDROOT
TORSDOF 0
ENDMDL
MODEL 8
REMARK VINA RESULT:      -5.3      9.472     10.890
REMARK  Name = 
REMARK  3 active torsions:
REMARK  status: ('A' for Active; 'I' for Inactive)
REMARK    1  A    between atoms: C_1  and  C_2
REMARK    2  A    between atoms: C_2  and  C_3
REMARK    3  A    between atoms: C_16  and  C_17
REMARK                            x       y       z     vdW  Elec       q    Type
REMARK                         _______ _______ _______ _____ _____    ______ ____
ROOT
ATOM      1  C   UNL     1      11.125  15.097  17.128  0.00  0.00    +0.000 C 
ATOM      2  C   UNL     1      10.730  14.825  18.592  0.00  0.00    +0.000 C 
ATOM      3  C   UNL     1      11.994  15.058  19.448  0.00  0.00    +0.000 C 
ATOM      4  N   UNL     1       9.743  15.881  18.964  0.00  0.00    +0.000 NA
ATOM      5  C   UNL     1       8.904  15.464  19.855  0.00  0.00    +0.000 C 
ATOM      6  N   UNL     1       7.915  16.213  20.447  0.00  0.00    +0.000 N 
ATOM      7  C   UNL     1       7.301  15.897  21.736  0.00  0.00    +0.000 C 
ATOM      8  C   UNL     1       7.529  17.057  22.704  0.00  0.00    +0.000 C 
ATOM      9  C   UNL     1       6.996  18.362  22.125  0.00  0.00    +0.000 C 
ATOM     10  C   UNL     1       7.606  18.628  20.749  0.00  0.00    +0.000 C 
ATOM     11  C   UNL     1       7.413  17.432  19.817  0.00  0.00    +0.000 C 
ATOM     12  S   UNL     1       9.016  13.771  20.269  0.00  0.00    +0.000 S 
ATOM     13  C   UNL     1      10.060  13.423  18.810  0.00  0.00    +0.000 C 
ATOM     14  C   UNL     1      11.010  12.266  19.178  0.00  0.00    +0.000 C 
ATOM     15  C   UNL     1      10.284  10.930  19.405  0.00  0.00    +0.000 C 
ATOM     16  C   UNL     1       9.410  10.534  18.210  0.00  0.00    +0.000 C 
ATOM     17  C   UNL     1       8.626   9.258  18.509  0.00  0.00    +0.000 C 
ATOM     18  C   UNL     1       8.446  11.660  17.816  0.00  0.00    +0.000 C 
ATOM     19  C   UNL     1       9.169  12.992  17.619  0.00  0.00    +0.000 C 
ENDROOT
TORSDOF 0
ENDMDL
MODEL 9
REMARK VINA RESULT:      -5.2      5.870      9.640
REMARK  Name = 
REMARK  3 active torsions:
REMARK  status: ('A' for Active; 'I' for Inactive)
REMARK    1  A    between atoms: C_1  and  C_2
REMARK    2  A    between atoms: C_2  and  C_3
REMARK    3  A    between atoms: C_16  and  C_17
REMARK                            x       y       z     vdW  Elec       q    Type
REMARK                         _______ _______ _______ _____ _____    ______ ____
ROOT
ATOM      1  C   UNL     1       2.648  15.948  22.283  0.00  0.00    +0.000 C 
ATOM      2  C   UNL     1       2.695  14.992  21.075  0.00  0.00    +0.000 C 
ATOM      3  C   UNL     1       4.145  14.470  20.974  0.00  0.00    +0.000 C 
ATOM      4  N   UNL     1       1.829  13.828  21.427  0.00  0.00    +0.000 NA
ATOM      5  C   UNL     1       1.291  13.293  20.379  0.00  0.00    +0.000 C 
ATOM      6  N   UNL     1       0.494  12.174  20.362  0.00  0.00    +0.000 N 
ATOM      7  C   UNL     1       0.283  11.331  19.187  0.00  0.00    +0.000 C 
ATOM      8  C   UNL     1       0.749   9.908  19.493  0.00  0.00    +0.000 C 
ATOM      9  C   UNL     1       0.040   9.356  20.724  0.00  0.00    +0.000 C 
ATOM     10  C   UNL     1       0.224  10.295  21.916  0.00  0.00    +0.000 C 
ATOM     11  C   UNL     1      -0.197  11.722  21.567  0.00  0.00    +0.000 C 
ATOM     12  S   UNL     1       1.559  14.139  18.874  0.00  0.00    +0.000 S 
ATOM     13  C   UNL     1       2.151  15.630  19.749  0.00  0.00    +0.000 C 
ATOM     14  C   UNL     1       3.196  16.319  18.849  0.00  0.00    +0.000 C 
ATOM     15  C   UNL     1       2.599  16.896  17.554  0.00  0.00    +0.000 C 
ATOM     16  C   UNL     1       1.430  17.848  17.829  0.00  0.00    +0.000 C 
ATOM     17  C   UNL     1       0.796  18.322  16.522  0.00  0.00    +0.000 C 
ATOM     18  C   UNL     1       0.366  17.196  18.720  0.00  0.00    +0.000 C 
ATOM     19  C   UNL     1       0.968  16.599  19.992  0.00  0.00    +0.000 C 
ENDROOT
TORSDOF 0
ENDMDL
