MODEL 1
REMARK VINA RESULT:      -8.7      0.000      0.000
REMARK  Name = 
REMARK  9 active torsions:
REMARK  status: ('A' for Active; 'I' for Inactive)
REMARK    1  A    between atoms: C_1  and  C_2
REMARK    2  A    between atoms: C_6  and  C_7
REMARK    3  A    between atoms: N_9  and  C_10
REMARK    4  A    between atoms: C_10  and  C_11
REMARK    5  A    between atoms: N_13  and  C_14
REMARK    6  A    between atoms: N_13  and  C_15
REMARK    7  A    between atoms: C_15  and  C_16
REMARK    8  A    between atoms: N_18  and  C_19
REMARK    9  A    between atoms: C_22  and  N_23
REMARK                            x       y       z     vdW  Elec       q    Type
REMARK                         _______ _______ _______ _____ _____    ______ ____
ROOT
ATOM      1  C   UNL     1       3.153   3.575  17.141  0.00  0.00    +0.000 C 
ENDROOT
BRANCH   1   4
ATOM      2  C   UNL     1       4.884   3.156  18.938  0.00  0.00    +0.000 C 
ATOM      3  O   UNL     1       5.207   2.594  19.993  0.00  0.00    +0.000 OA
ATOM      4  N   UNL     1       3.694   2.841  18.289  0.00  0.00    +0.000 N 
ATOM      5  C   UNL     1       2.892   1.735  18.780  0.00  0.00    +0.000 C 
BRANCH   2   6
ATOM      6  C   UNL     1       5.771   4.293  18.414  0.00  0.00    +0.000 C 
BRANCH   6   9
ATOM      7  C   UNL     1       6.027   5.057  16.077  0.00  0.00    +0.000 C 
ATOM      8  O   UNL     1       5.670   6.197  16.352  0.00  0.00    +0.000 OA
ATOM      9  N   UNL     1       6.130   4.065  17.027  0.00  0.00    +0.000 N 
ATOM     10  H   UNL     1       6.460   3.139  16.806  0.00  0.00    +0.000 HD
BRANCH   7  16
ATOM     11  C   UNL     1       5.315   2.483  11.780  0.00  0.00    +0.000 C 
ATOM     12  C   UNL     1       6.070   3.503  12.579  0.00  0.00    +0.000 A 
ATOM     13  C   UNL     1       7.155   4.189  12.025  0.00  0.00    +0.000 A 
ATOM     14  C   UNL     1       7.849   5.137  12.776  0.00  0.00    +0.000 A 
ATOM     15  C   UNL     1       7.465   5.400  14.090  0.00  0.00    +0.000 A 
ATOM     16  C   UNL     1       6.378   4.721  14.666  0.00  0.00    +0.000 A 
ATOM     17  C   UNL     1       5.685   3.773  13.901  0.00  0.00    +0.000 A 
ENDBRANCH   7  16
ENDBRANCH   6   9
ENDBRANCH   2   6
ENDBRANCH   1   4
BRANCH   1  18
ATOM     18  C   UNL     1       2.274   4.750  17.575  0.00  0.00    +0.000 C 
ATOM     19  O   UNL     1       1.052   4.664  17.474  0.00  0.00    +0.000 OA
ATOM     20  N   UNL     1       2.952   5.834  18.114  0.00  0.00    +0.000 N 
ATOM     21  H   UNL     1       3.964   5.832  18.087  0.00  0.00    +0.000 HD
BRANCH  20  22
ATOM     22  C   UNL     1       2.327   7.029  18.548  0.00  0.00    +0.000 A 
ATOM     23  C   UNL     1       2.094   8.103  17.698  0.00  0.00    +0.000 A 
ATOM     24  C   UNL     1       1.571   9.303  18.178  0.00  0.00    +0.000 A 
ATOM     25  C   UNL     1       1.210   9.485  19.514  0.00  0.00    +0.000 A 
ATOM     26  C   UNL     1       1.416   8.382  20.357  0.00  0.00    +0.000 A 
ATOM     27  C   UNL     1       1.956   7.165  19.883  0.00  0.00    +0.000 A 
BRANCH  25  28
ATOM     28  N   UNL     1       0.723  10.699  19.944  0.00  0.00    +0.000 N 
ATOM     29  C   UNL     1       1.187  11.973  19.361  0.00  0.00    +0.000 C 
ATOM     30  C   UNL     1       1.449  12.976  20.491  0.00  0.00    +0.000 C 
ATOM     31  O   UNL     1       0.263  13.183  21.277  0.00  0.00    +0.000 OA
ATOM     32  C   UNL     1      -0.169  11.941  21.861  0.00  0.00    +0.000 C 
ATOM     33  C   UNL     1      -0.462  10.861  20.797  0.00  0.00    +0.000 C 
ENDBRANCH  25  28
ENDBRANCH  20  22
ENDBRANCH   1  18
TORSDOF 7
ENDMDL
MODEL 2
REMARK VINA RESULT:      -8.6      1.553      1.891
REMARK  Name = 
REMARK  9 active torsions:
REMARK  status: ('A' for Active; 'I' for Inactive)
REMARK    1  A    between atoms: C_1  and  C_2
REMARK    2  A    between atoms: C_6  and  C_7
REMARK    3  A    between atoms: N_9  and  C_10
REMARK    4  A    between atoms: C_10  and  C_11
REMARK    5  A    between atoms: N_13  and  C_14
REMARK    6  A    between atoms: N_13  and  C_15
REMARK    7  A    between atoms: C_15  and  C_16
REMARK    8  A    between atoms: N_18  and  C_19
REMARK    9  A    between atoms: C_22  and  N_23
REMARK                            x       y       z     vdW  Elec       q    Type
REMARK                         _______ _______ _______ _____ _____    ______ ____
ROOT
ATOM      1  C   UNL     1       3.196   3.818  20.482  0.00  0.00    +0.000 C 
ENDROOT
BRANCH   1   4
ATOM      2  C   UNL     1       3.744   2.694  18.282  0.00  0.00    +0.000 C 
ATOM      3  O   UNL     1       3.553   1.766  17.485  0.00  0.00    +0.000 OA
ATOM      4  N   UNL     1       2.935   2.861  19.402  0.00  0.00    +0.000 N 
ATOM      5  C   UNL     1       1.762   2.019  19.558  0.00  0.00    +0.000 C 
BRANCH   2   6
ATOM      6  C   UNL     1       4.965   3.599  18.071  0.00  0.00    +0.000 C 
BRANCH   6   9
ATOM      7  C   UNL     1       5.787   4.614  15.972  0.00  0.00    +0.000 C 
ATOM      8  O   UNL     1       5.743   5.747  16.437  0.00  0.00    +0.000 OA
ATOM      9  N   UNL     1       5.447   3.499  16.707  0.00  0.00    +0.000 N 
ATOM     10  H   UNL     1       5.521   2.565  16.335  0.00  0.00    +0.000 HD
BRANCH   7  16
ATOM     11  C   UNL     1       5.579   2.266  11.496  0.00  0.00    +0.000 C 
ATOM     12  C   UNL     1       6.166   3.315  12.391  0.00  0.00    +0.000 A 
ATOM     13  C   UNL     1       7.177   4.165  11.933  0.00  0.00    +0.000 A 
ATOM     14  C   UNL     1       7.714   5.140  12.773  0.00  0.00    +0.000 A 
ATOM     15  C   UNL     1       7.248   5.264  14.081  0.00  0.00    +0.000 A 
ATOM     16  C   UNL     1       6.233   4.419  14.562  0.00  0.00    +0.000 A 
ATOM     17  C   UNL     1       5.697   3.446  13.707  0.00  0.00    +0.000 A 
ENDBRANCH   7  16
ENDBRANCH   6   9
ENDBRANCH   2   6
ENDBRANCH   1   4
BRANCH   1  18
ATOM     18  C   UNL     1       2.323   5.069  20.360  0.00  0.00    +0.000 C 
ATOM     19  O   UNL     1       1.184   5.062  20.823  0.00  0.00    +0.000 OA
ATOM     20  N   UNL     1       2.930   6.163  19.761  0.00  0.00    +0.000 N 
ATOM     21  H   UNL     1       3.847   6.042  19.351  0.00  0.00    +0.000 HD
BRANCH  20  22
ATOM     22  C   UNL     1       2.286   7.403  19.528  0.00  0.00    +0.000 A 
ATOM     23  C   UNL     1       1.679   8.134  20.542  0.00  0.00    +0.000 A 
ATOM     24  C   UNL     1       0.964   9.298  20.264  0.00  0.00    +0.000 A 
ATOM     25  C   UNL     1       0.852   9.823  18.975  0.00  0.00    +0.000 A 
ATOM     26  C   UNL     1       1.499   9.097  17.964  0.00  0.00    +0.000 A 
ATOM     27  C   UNL     1       2.217   7.909  18.232  0.00  0.00    +0.000 A 
BRANCH  25  28
ATOM     28  N   UNL     1       0.112  10.962  18.749  0.00  0.00    +0.000 N 
ATOM     29  C   UNL     1       0.712  12.308  18.836  0.00  0.00    +0.000 C 
ATOM     30  C   UNL     1      -0.235  13.230  19.613  0.00  0.00    +0.000 C 
ATOM     31  O   UNL     1      -1.524  13.292  18.979  0.00  0.00    +0.000 OA
ATOM     32  C   UNL     1      -2.112  11.980  18.920  0.00  0.00    +0.000 C 
ATOM     33  C   UNL     1      -1.229  10.973  18.151  0.00  0.00    +0.000 C 
ENDBRANCH  25  28
ENDBRANCH  20  22
ENDBRANCH   1  18
TORSDOF 7
ENDMDL
MODEL 3
REMARK VINA RESULT:      -8.2      1.563      1.939
REMARK  Name = 
REMARK  9 active torsions:
REMARK  status: ('A' for Active; 'I' for Inactive)
REMARK    1  A    between atoms: C_1  and  C_2
REMARK    2  A    between atoms: C_6  and  C_7
REMARK    3  A    between atoms: N_9  and  C_10
REMARK    4  A    between atoms: C_10  and  C_11
REMARK    5  A    between atoms: N_13  and  C_14
REMARK    6  A    between atoms: N_13  and  C_15
REMARK    7  A    between atoms: C_15  and  C_16
REMARK    8  A    between atoms: N_18  and  C_19
REMARK    9  A    between atoms: C_22  and  N_23
REMARK                            x       y       z     vdW  Elec       q    Type
REMARK                         _______ _______ _______ _____ _____    ______ ____
ROOT
ATOM      1  C   UNL     1       2.796   4.431  20.345  0.00  0.00    +0.000 C 
ENDROOT
BRANCH   1   4
ATOM      2  C   UNL     1       3.583   2.939  18.459  0.00  0.00    +0.000 C 
ATOM      3  O   UNL     1       3.424   1.924  17.769  0.00  0.00    +0.000 OA
ATOM      4  N   UNL     1       2.615   3.351  19.370  0.00  0.00    +0.000 N 
ATOM      5  C   UNL     1       1.339   2.659  19.405  0.00  0.00    +0.000 C 
BRANCH   2   6
ATOM      6  C   UNL     1       4.924   3.680  18.371  0.00  0.00    +0.000 C 
BRANCH   6   9
ATOM      7  C   UNL     1       5.320   4.624  16.121  0.00  0.00    +0.000 C 
ATOM      8  O   UNL     1       4.762   5.678  16.404  0.00  0.00    +0.000 OA
ATOM      9  N   UNL     1       5.468   3.598  17.029  0.00  0.00    +0.000 N 
ATOM     10  H   UNL     1       5.960   2.747  16.806  0.00  0.00    +0.000 HD
BRANCH   7  16
ATOM     11  C   UNL     1       5.154   2.678  11.454  0.00  0.00    +0.000 C 
ATOM     12  C   UNL     1       5.834   3.519  12.492  0.00  0.00    +0.000 A 
ATOM     13  C   UNL     1       7.040   4.169  12.212  0.00  0.00    +0.000 A 
ATOM     14  C   UNL     1       7.663   4.950  13.184  0.00  0.00    +0.000 A 
ATOM     15  C   UNL     1       7.086   5.081  14.446  0.00  0.00    +0.000 A 
ATOM     16  C   UNL     1       5.875   4.435  14.749  0.00  0.00    +0.000 A 
ATOM     17  C   UNL     1       5.255   3.656  13.763  0.00  0.00    +0.000 A 
ENDBRANCH   7  16
ENDBRANCH   6   9
ENDBRANCH   2   6
ENDBRANCH   1   4
BRANCH   1  18
ATOM     18  C   UNL     1       2.306   5.776  19.806  0.00  0.00    +0.000 C 
ATOM     19  O   UNL     1       2.153   5.926  18.595  0.00  0.00    +0.000 OA
ATOM     20  N   UNL     1       2.016   6.734  20.767  0.00  0.00    +0.000 N 
ATOM     21  H   UNL     1       2.244   6.533  21.732  0.00  0.00    +0.000 HD
BRANCH  20  22
ATOM     22  C   UNL     1       1.579   8.049  20.475  0.00  0.00    +0.000 A 
ATOM     23  C   UNL     1       0.918   8.843  21.405  0.00  0.00    +0.000 A 
ATOM     24  C   UNL     1       0.410  10.093  21.056  0.00  0.00    +0.000 A 
ATOM     25  C   UNL     1       0.570  10.641  19.782  0.00  0.00    +0.000 A 
ATOM     26  C   UNL     1       1.270   9.847  18.860  0.00  0.00    +0.000 A 
ATOM     27  C   UNL     1       1.779   8.574  19.200  0.00  0.00    +0.000 A 
BRANCH  25  28
ATOM     28  N   UNL     1       0.025  11.870  19.479  0.00  0.00    +0.000 N 
ATOM     29  C   UNL     1       0.731  12.841  18.621  0.00  0.00    +0.000 C 
ATOM     30  C   UNL     1       0.629  14.235  19.252  0.00  0.00    +0.000 C 
ATOM     31  O   UNL     1      -0.746  14.619  19.426  0.00  0.00    +0.000 OA
ATOM     32  C   UNL     1      -1.420  13.680  20.283  0.00  0.00    +0.000 C 
ATOM     33  C   UNL     1      -1.374  12.239  19.729  0.00  0.00    +0.000 C 
ENDBRANCH  25  28
ENDBRANCH  20  22
ENDBRANCH   1  18
TORSDOF 7
ENDMDL
MODEL 4
REMARK VINA RESULT:      -8.2      1.682      2.189
REMARK  Name = 
REMARK  9 active torsions:
REMARK  status: ('A' for Active; 'I' for Inactive)
REMARK    1  A    between atoms: C_1  and  C_2
REMARK    2  A    between atoms: C_6  and  C_7
REMARK    3  A    between atoms: N_9  and  C_10
REMARK    4  A    between atoms: C_10  and  C_11
REMARK    5  A    between atoms: N_13  and  C_14
REMARK    6  A    between atoms: N_13  and  C_15
REMARK    7  A    between atoms: C_15  and  C_16
REMARK    8  A    between atoms: N_18  and  C_19
REMARK    9  A    between atoms: C_22  and  N_23
REMARK                            x       y       z     vdW  Elec       q    Type
REMARK                         _______ _______ _______ _____ _____    ______ ____
ROOT
ATOM      1  C   UNL     1       2.528   3.721  20.870  0.00  0.00    +0.000 C 
ENDROOT
BRANCH   1   4
ATOM      2  C   UNL     1       3.491   2.622  18.804  0.00  0.00    +0.000 C 
ATOM      3  O   UNL     1       3.426   1.735  17.944  0.00  0.00    +0.000 OA
ATOM      4  N   UNL     1       2.459   2.819  19.716  0.00  0.00    +0.000 N 
ATOM      5  C   UNL     1       1.226   2.067  19.561  0.00  0.00    +0.000 C 
BRANCH   2   6
ATOM      6  C   UNL     1       4.788   3.435  18.921  0.00  0.00    +0.000 C 
BRANCH   6   9
ATOM      7  C   UNL     1       5.028   4.435  16.673  0.00  0.00    +0.000 C 
ATOM      8  O   UNL     1       4.110   5.226  16.865  0.00  0.00    +0.000 OA
ATOM      9  N   UNL     1       5.445   3.538  17.631  0.00  0.00    +0.000 N 
ATOM     10  H   UNL     1       6.224   2.916  17.485  0.00  0.00    +0.000 HD
BRANCH   7  16
ATOM     11  C   UNL     1       5.601   2.894  11.888  0.00  0.00    +0.000 C 
ATOM     12  C   UNL     1       6.048   3.726  13.052  0.00  0.00    +0.000 A 
ATOM     13  C   UNL     1       7.170   4.555  12.952  0.00  0.00    +0.000 A 
ATOM     14  C   UNL     1       7.577   5.327  14.040  0.00  0.00    +0.000 A 
ATOM     15  C   UNL     1       6.866   5.269  15.237  0.00  0.00    +0.000 A 
ATOM     16  C   UNL     1       5.736   4.442  15.359  0.00  0.00    +0.000 A 
ATOM     17  C   UNL     1       5.334   3.674  14.258  0.00  0.00    +0.000 A 
ENDBRANCH   7  16
ENDBRANCH   6   9
ENDBRANCH   2   6
ENDBRANCH   1   4
BRANCH   1  18
ATOM     18  C   UNL     1       1.752   5.018  20.629  0.00  0.00    +0.000 C 
ATOM     19  O   UNL     1       0.530   4.981  20.507  0.00  0.00    +0.000 OA
ATOM     20  N   UNL     1       2.517   6.176  20.619  0.00  0.00    +0.000 N 
ATOM     21  H   UNL     1       3.525   6.090  20.658  0.00  0.00    +0.000 HD
BRANCH  20  22
ATOM     22  C   UNL     1       1.996   7.472  20.383  0.00  0.00    +0.000 A 
ATOM     23  C   UNL     1       1.460   8.259  21.395  0.00  0.00    +0.000 A 
ATOM     24  C   UNL     1       0.862   9.487  21.115  0.00  0.00    +0.000 A 
ATOM     25  C   UNL     1       0.806  10.019  19.825  0.00  0.00    +0.000 A 
ATOM     26  C   UNL     1       1.382   9.233  18.816  0.00  0.00    +0.000 A 
ATOM     27  C   UNL     1       1.980   7.982  19.087  0.00  0.00    +0.000 A 
BRANCH  25  28
ATOM     28  N   UNL     1       0.180  11.225  19.597  0.00  0.00    +0.000 N 
ATOM     29  C   UNL     1      -1.146  11.302  18.953  0.00  0.00    +0.000 C 
ATOM     30  C   UNL     1      -1.130  12.419  17.902  0.00  0.00    +0.000 C 
ATOM     31  O   UNL     1      -0.785  13.679  18.501  0.00  0.00    +0.000 OA
ATOM     32  C   UNL     1       0.519  13.603  19.105  0.00  0.00    +0.000 C 
ATOM     33  C   UNL     1       0.604  12.502  20.184  0.00  0.00    +0.000 C 
ENDBRANCH  25  28
ENDBRANCH  20  22
ENDBRANCH   1  18
TORSDOF 7
ENDMDL
MODEL 5
REMARK VINA RESULT:      -8.1      1.604      2.367
REMARK  Name = 
REMARK  9 active torsions:
REMARK  status: ('A' for Active; 'I' for Inactive)
REMARK    1  A    between atoms: C_1  and  C_2
REMARK    2  A    between atoms: C_6  and  C_7
REMARK    3  A    between atoms: N_9  and  C_10
REMARK    4  A    between atoms: C_10  and  C_11
REMARK    5  A    between atoms: N_13  and  C_14
REMARK    6  A    between atoms: N_13  and  C_15
REMARK    7  A    between atoms: C_15  and  C_16
REMARK    8  A    between atoms: N_18  and  C_19
REMARK    9  A    between atoms: C_22  and  N_23
REMARK                            x       y       z     vdW  Elec       q    Type
REMARK                         _______ _______ _______ _____ _____    ______ ____
ROOT
ATOM      1  C   UNL     1       4.277   4.651  16.946  0.00  0.00    +0.000 C 
ENDROOT
BRANCH   1   4
ATOM      2  C   UNL     1       6.744   4.597  17.505  0.00  0.00    +0.000 C 
ATOM      3  O   UNL     1       7.641   4.454  18.346  0.00  0.00    +0.000 OA
ATOM      4  N   UNL     1       5.413   4.342  17.819  0.00  0.00    +0.000 N 
ATOM      5  C   UNL     1       5.092   3.760  19.111  0.00  0.00    +0.000 C 
BRANCH   2   6
ATOM      6  C   UNL     1       7.115   5.171  16.131  0.00  0.00    +0.000 C 
BRANCH   6   9
ATOM      7  C   UNL     1       6.899   4.564  13.744  0.00  0.00    +0.000 C 
ATOM      8  O   UNL     1       7.661   5.457  13.391  0.00  0.00    +0.000 OA
ATOM      9  N   UNL     1       6.592   4.334  15.068  0.00  0.00    +0.000 N 
ATOM     10  H   UNL     1       5.996   3.576  15.359  0.00  0.00    +0.000 HD
BRANCH   7  16
ATOM     11  C   UNL     1       3.055   3.159  10.771  0.00  0.00    +0.000 C 
ATOM     12  C   UNL     1       4.456   2.968  11.267  0.00  0.00    +0.000 A 
ATOM     13  C   UNL     1       5.255   1.929  10.778  0.00  0.00    +0.000 A 
ATOM     14  C   UNL     1       6.558   1.762  11.244  0.00  0.00    +0.000 A 
ATOM     15  C   UNL     1       7.068   2.628  12.209  0.00  0.00    +0.000 A 
ATOM     16  C   UNL     1       6.282   3.678  12.715  0.00  0.00    +0.000 A 
ATOM     17  C   UNL     1       4.976   3.840  12.235  0.00  0.00    +0.000 A 
ENDBRANCH   7  16
ENDBRANCH   6   9
ENDBRANCH   2   6
ENDBRANCH   1   4
BRANCH   1  18
ATOM     18  C   UNL     1       3.194   5.448  17.677  0.00  0.00    +0.000 C 
ATOM     19  O   UNL     1       2.161   4.885  18.032  0.00  0.00    +0.000 OA
ATOM     20  N   UNL     1       3.502   6.777  17.931  0.00  0.00    +0.000 N 
ATOM     21  H   UNL     1       4.350   7.160  17.534  0.00  0.00    +0.000 HD
BRANCH  20  22
ATOM     22  C   UNL     1       2.626   7.690  18.567  0.00  0.00    +0.000 A 
ATOM     23  C   UNL     1       2.252   7.564  19.900  0.00  0.00    +0.000 A 
ATOM     24  C   UNL     1       1.308   8.418  20.469  0.00  0.00    +0.000 A 
ATOM     25  C   UNL     1       0.721   9.469  19.761  0.00  0.00    +0.000 A 
ATOM     26  C   UNL     1       1.133   9.609  18.427  0.00  0.00    +0.000 A 
ATOM     27  C   UNL     1       2.080   8.742  17.837  0.00  0.00    +0.000 A 
BRANCH  25  28
ATOM     28  N   UNL     1      -0.226  10.268  20.361  0.00  0.00    +0.000 N 
ATOM     29  C   UNL     1      -1.058  11.206  19.580  0.00  0.00    +0.000 C 
ATOM     30  C   UNL     1      -1.122  12.550  20.315  0.00  0.00    +0.000 C 
ATOM     31  O   UNL     1      -1.654  12.385  21.640  0.00  0.00    +0.000 OA
ATOM     32  C   UNL     1      -0.825  11.489  22.401  0.00  0.00    +0.000 C 
ATOM     33  C   UNL     1      -0.700  10.099  21.741  0.00  0.00    +0.000 C 
ENDBRANCH  25  28
ENDBRANCH  20  22
ENDBRANCH   1  18
TORSDOF 7
ENDMDL
MODEL 6
REMARK VINA RESULT:      -8.0      1.401      1.847
REMARK  Name = 
REMARK  9 active torsions:
REMARK  status: ('A' for Active; 'I' for Inactive)
REMARK    1  A    between atoms: C_1  and  C_2
REMARK    2  A    between atoms: C_6  and  C_7
REMARK    3  A    between atoms: N_9  and  C_10
REMARK    4  A    between atoms: C_10  and  C_11
REMARK    5  A    between atoms: N_13  and  C_14
REMARK    6  A    between atoms: N_13  and  C_15
REMARK    7  A    between atoms: C_15  and  C_16
REMARK    8  A    between atoms: N_18  and  C_19
REMARK    9  A    between atoms: C_22  and  N_23
REMARK                            x       y       z     vdW  Elec       q    Type
REMARK                         _______ _______ _______ _____ _____    ______ ____
ROOT
ATOM      1  C   UNL     1       3.166   4.862  17.793  0.00  0.00    +0.000 C 
ENDROOT
BRANCH   1   4
ATOM      2  C   UNL     1       5.528   4.883  18.700  0.00  0.00    +0.000 C 
ATOM      3  O   UNL     1       6.355   4.470  19.524  0.00  0.00    +0.000 OA
ATOM      4  N   UNL     1       4.257   4.324  18.611  0.00  0.00    +0.000 N 
ATOM      5  C   UNL     1       3.949   3.142  19.398  0.00  0.00    +0.000 C 
BRANCH   2   6
ATOM      6  C   UNL     1       5.894   6.105  17.847  0.00  0.00    +0.000 C 
BRANCH   6   9
ATOM      7  C   UNL     1       6.979   5.011  15.914  0.00  0.00    +0.000 C 
ATOM      8  O   UNL     1       7.891   4.571  16.604  0.00  0.00    +0.000 OA
ATOM      9  N   UNL     1       5.944   5.753  16.441  0.00  0.00    +0.000 N 
ATOM     10  H   UNL     1       5.174   6.081  15.879  0.00  0.00    +0.000 HD
BRANCH   7  16
ATOM     11  C   UNL     1       5.306   2.515  11.844  0.00  0.00    +0.000 C 
ATOM     12  C   UNL     1       6.192   3.554  12.463  0.00  0.00    +0.000 A 
ATOM     13  C   UNL     1       7.063   4.313  11.677  0.00  0.00    +0.000 A 
ATOM     14  C   UNL     1       7.882   5.279  12.262  0.00  0.00    +0.000 A 
ATOM     15  C   UNL     1       7.838   5.485  13.640  0.00  0.00    +0.000 A 
ATOM     16  C   UNL     1       6.969   4.732  14.448  0.00  0.00    +0.000 A 
ATOM     17  C   UNL     1       6.148   3.767  13.849  0.00  0.00    +0.000 A 
ENDBRANCH   7  16
ENDBRANCH   6   9
ENDBRANCH   2   6
ENDBRANCH   1   4
BRANCH   1  18
ATOM     18  C   UNL     1       2.361   5.926  18.543  0.00  0.00    +0.000 C 
ATOM     19  O   UNL     1       1.580   5.584  19.428  0.00  0.00    +0.000 OA
ATOM     20  N   UNL     1       2.628   7.239  18.181  0.00  0.00    +0.000 N 
ATOM     21  H   UNL     1       3.237   7.408  17.391  0.00  0.00    +0.000 HD
BRANCH  20  22
ATOM     22  C   UNL     1       1.970   8.366  18.733  0.00  0.00    +0.000 A 
ATOM     23  C   UNL     1       1.622   8.447  20.076  0.00  0.00    +0.000 A 
ATOM     24  C   UNL     1       0.885   9.523  20.567  0.00  0.00    +0.000 A 
ATOM     25  C   UNL     1       0.493  10.596  19.763  0.00  0.00    +0.000 A 
ATOM     26  C   UNL     1       0.880  10.521  18.417  0.00  0.00    +0.000 A 
ATOM     27  C   UNL     1       1.618   9.430  17.906  0.00  0.00    +0.000 A 
BRANCH  25  28
ATOM     28  N   UNL     1      -0.258  11.623  20.291  0.00  0.00    +0.000 N 
ATOM     29  C   UNL     1       0.332  12.634  21.190  0.00  0.00    +0.000 C 
ATOM     30  C   UNL     1      -0.616  12.868  22.372  0.00  0.00    +0.000 C 
ATOM     31  O   UNL     1      -1.910  13.294  21.913  0.00  0.00    +0.000 OA
ATOM     32  C   UNL     1      -2.489  12.292  21.056  0.00  0.00    +0.000 C 
ATOM     33  C   UNL     1      -1.603  11.986  19.829  0.00  0.00    +0.000 C 
ENDBRANCH  25  28
ENDBRANCH  20  22
ENDBRANCH   1  18
TORSDOF 7
ENDMDL
MODEL 7
REMARK VINA RESULT:      -7.9      2.071      3.029
REMARK  Name = 
REMARK  9 active torsions:
REMARK  status: ('A' for Active; 'I' for Inactive)
REMARK    1  A    between atoms: C_1  and  C_2
REMARK    2  A    between atoms: C_6  and  C_7
REMARK    3  A    between atoms: N_9  and  C_10
REMARK    4  A    between atoms: C_10  and  C_11
REMARK    5  A    between atoms: N_13  and  C_14
REMARK    6  A    between atoms: N_13  and  C_15
REMARK    7  A    between atoms: C_15  and  C_16
REMARK    8  A    between atoms: N_18  and  C_19
REMARK    9  A    between atoms: C_22  and  N_23
REMARK                            x       y       z     vdW  Elec       q    Type
REMARK                         _______ _______ _______ _____ _____    ______ ____
ROOT
ATOM      1  C   UNL     1       2.973   4.746  20.531  0.00  0.00    +0.000 C 
ENDROOT
BRANCH   1   4
ATOM      2  C   UNL     1       1.859   2.903  19.202  0.00  0.00    +0.000 C 
ATOM      3  O   UNL     1       1.540   1.712  19.097  0.00  0.00    +0.000 OA
ATOM      4  N   UNL     1       2.409   3.402  20.379  0.00  0.00    +0.000 N 
ATOM      5  C   UNL     1       2.473   2.542  21.548  0.00  0.00    +0.000 C 
BRANCH   2   6
ATOM      6  C   UNL     1       1.740   3.804  17.965  0.00  0.00    +0.000 C 
BRANCH   6   9
ATOM      7  C   UNL     1       3.732   4.963  17.070  0.00  0.00    +0.000 C 
ATOM      8  O   UNL     1       3.417   6.026  17.592  0.00  0.00    +0.000 OA
ATOM      9  N   UNL     1       2.984   3.815  17.219  0.00  0.00    +0.000 N 
ATOM     10  H   UNL     1       3.265   2.933  16.821  0.00  0.00    +0.000 HD
BRANCH   7  16
ATOM     11  C   UNL     1       6.272   3.649  12.897  0.00  0.00    +0.000 C 
ATOM     12  C   UNL     1       6.237   4.276  14.258  0.00  0.00    +0.000 A 
ATOM     13  C   UNL     1       7.392   4.823  14.826  0.00  0.00    +0.000 A 
ATOM     14  C   UNL     1       7.348   5.405  16.092  0.00  0.00    +0.000 A 
ATOM     15  C   UNL     1       6.149   5.436  16.802  0.00  0.00    +0.000 A 
ATOM     16  C   UNL     1       4.977   4.891  16.250  0.00  0.00    +0.000 A 
ATOM     17  C   UNL     1       5.031   4.312  14.975  0.00  0.00    +0.000 A 
ENDBRANCH   7  16
ENDBRANCH   6   9
ENDBRANCH   2   6
ENDBRANCH   1   4
BRANCH   1  18
ATOM     18  C   UNL     1       1.887   5.824  20.549  0.00  0.00    +0.000 C 
ATOM     19  O   UNL     1       0.719   5.505  20.757  0.00  0.00    +0.000 OA
ATOM     20  N   UNL     1       2.336   7.125  20.373  0.00  0.00    +0.000 N 
ATOM     21  H   UNL     1       3.310   7.272  20.139  0.00  0.00    +0.000 HD
BRANCH  20  22
ATOM     22  C   UNL     1       1.491   8.260  20.328  0.00  0.00    +0.000 A 
ATOM     23  C   UNL     1       0.763   8.696  21.429  0.00  0.00    +0.000 A 
ATOM     24  C   UNL     1      -0.139   9.754  21.326  0.00  0.00    +0.000 A 
ATOM     25  C   UNL     1      -0.333  10.464  20.139  0.00  0.00    +0.000 A 
ATOM     26  C   UNL     1       0.433  10.039  19.043  0.00  0.00    +0.000 A 
ATOM     27  C   UNL     1       1.342   8.961  19.134  0.00  0.00    +0.000 A 
BRANCH  25  28
ATOM     28  N   UNL     1      -1.256  11.484  20.081  0.00  0.00    +0.000 N 
ATOM     29  C   UNL     1      -1.353  12.505  21.143  0.00  0.00    +0.000 C 
ATOM     30  C   UNL     1      -2.830  12.733  21.486  0.00  0.00    +0.000 C 
ATOM     31  O   UNL     1      -3.569  13.143  20.323  0.00  0.00    +0.000 OA
ATOM     32  C   UNL     1      -3.489  12.132  19.302  0.00  0.00    +0.000 C 
ATOM     33  C   UNL     1      -2.033  11.831  18.884  0.00  0.00    +0.000 C 
ENDBRANCH  25  28
ENDBRANCH  20  22
ENDBRANCH   1  18
TORSDOF 7
ENDMDL
MODEL 8
REMARK VINA RESULT:      -7.9      1.411      1.946
REMARK  Name = 
REMARK  9 active torsions:
REMARK  status: ('A' for Active; 'I' for Inactive)
REMARK    1  A    between atoms: C_1  and  C_2
REMARK    2  A    between atoms: C_6  and  C_7
REMARK    3  A    between atoms: N_9  and  C_10
REMARK    4  A    between atoms: C_10  and  C_11
REMARK    5  A    between atoms: N_13  and  C_14
REMARK    6  A    between atoms: N_13  and  C_15
REMARK    7  A    between atoms: C_15  and  C_16
REMARK    8  A    between atoms: N_18  and  C_19
REMARK    9  A    between atoms: C_22  and  N_23
REMARK                            x       y       z     vdW  Elec       q    Type
REMARK                         _______ _______ _______ _____ _____    ______ ____
ROOT
ATOM      1  C   UNL     1       3.196   5.612  17.855  0.00  0.00    +0.000 C 
ENDROOT
BRANCH   1   4
ATOM      2  C   UNL     1       4.740   3.830  18.775  0.00  0.00    +0.000 C 
ATOM      3  O   UNL     1       4.901   2.818  19.468  0.00  0.00    +0.000 OA
ATOM      4  N   UNL     1       3.468   4.330  18.513  0.00  0.00    +0.000 N 
ATOM      5  C   UNL     1       2.308   3.567  18.939  0.00  0.00    +0.000 C 
BRANCH   2   6
ATOM      6  C   UNL     1       5.981   4.596  18.298  0.00  0.00    +0.000 C 
BRANCH   6   9
ATOM      7  C   UNL     1       6.306   5.268  15.942  0.00  0.00    +0.000 C 
ATOM      8  O   UNL     1       6.140   6.455  16.199  0.00  0.00    +0.000 OA
ATOM      9  N   UNL     1       6.270   4.289  16.910  0.00  0.00    +0.000 N 
ATOM     10  H   UNL     1       6.445   3.318  16.702  0.00  0.00    +0.000 HD
BRANCH   7  16
ATOM     11  C   UNL     1       5.296   2.510  11.823  0.00  0.00    +0.000 C 
ATOM     12  C   UNL     1       6.118   3.547  12.527  0.00  0.00    +0.000 A 
ATOM     13  C   UNL     1       7.186   4.177  11.881  0.00  0.00    +0.000 A 
ATOM     14  C   UNL     1       7.942   5.142  12.546  0.00  0.00    +0.000 A 
ATOM     15  C   UNL     1       7.638   5.477  13.864  0.00  0.00    +0.000 A 
ATOM     16  C   UNL     1       6.570   4.855  14.532  0.00  0.00    +0.000 A 
ATOM     17  C   UNL     1       5.813   3.890  13.854  0.00  0.00    +0.000 A 
ENDBRANCH   7  16
ENDBRANCH   6   9
ENDBRANCH   2   6
ENDBRANCH   1   4
BRANCH   1  18
ATOM     18  C   UNL     1       2.477   6.591  18.786  0.00  0.00    +0.000 C 
ATOM     19  O   UNL     1       2.302   6.291  19.965  0.00  0.00    +0.000 OA
ATOM     20  N   UNL     1       2.114   7.801  18.212  0.00  0.00    +0.000 N 
ATOM     21  H   UNL     1       2.242   7.920  17.215  0.00  0.00    +0.000 HD
BRANCH  20  22
ATOM     22  C   UNL     1       1.416   8.828  18.893  0.00  0.00    +0.000 A 
ATOM     23  C   UNL     1       1.397   8.928  20.279  0.00  0.00    +0.000 A 
ATOM     24  C   UNL     1       0.617   9.888  20.923  0.00  0.00    +0.000 A 
ATOM     25  C   UNL     1      -0.148  10.826  20.227  0.00  0.00    +0.000 A 
ATOM     26  C   UNL     1      -0.093  10.739  18.828  0.00  0.00    +0.000 A 
ATOM     27  C   UNL     1       0.685   9.763  18.165  0.00  0.00    +0.000 A 
BRANCH  25  28
ATOM     28  N   UNL     1      -0.923  11.738  20.910  0.00  0.00    +0.000 N 
ATOM     29  C   UNL     1      -1.709  12.770  20.206  0.00  0.00    +0.000 C 
ATOM     30  C   UNL     1      -1.531  14.113  20.925  0.00  0.00    +0.000 C 
ATOM     31  O   UNL     1      -1.940  14.015  22.300  0.00  0.00    +0.000 OA
ATOM     32  C   UNL     1      -1.152  13.024  22.984  0.00  0.00    +0.000 C 
ATOM     33  C   UNL     1      -1.268  11.629  22.333  0.00  0.00    +0.000 C 
ENDBRANCH  25  28
ENDBRANCH  20  22
ENDBRANCH   1  18
TORSDOF 7
ENDMDL
MODEL 9
REMARK VINA RESULT:      -7.8      1.909      2.621
REMARK  Name = 
REMARK  9 active torsions:
REMARK  status: ('A' for Active; 'I' for Inactive)
REMARK    1  A    between atoms: C_1  and  C_2
REMARK    2  A    between atoms: C_6  and  C_7
REMARK    3  A    between atoms: N_9  and  C_10
REMARK    4  A    between atoms: C_10  and  C_11
REMARK    5  A    between atoms: N_13  and  C_14
REMARK    6  A    between atoms: N_13  and  C_15
REMARK    7  A    between atoms: C_15  and  C_16
REMARK    8  A    between atoms: N_18  and  C_19
REMARK    9  A    between atoms: C_22  and  N_23
REMARK                            x       y       z     vdW  Elec       q    Type
REMARK                         _______ _______ _______ _____ _____    ______ ____
ROOT
ATOM      1  C   UNL     1       2.481   4.688  20.902  0.00  0.00    +0.000 C 
ENDROOT
BRANCH   1   4
ATOM      2  C   UNL     1       2.627   2.501  19.637  0.00  0.00    +0.000 C 
ATOM      3  O   UNL     1       2.065   1.496  19.183  0.00  0.00    +0.000 OA
ATOM      4  N   UNL     1       1.896   3.549  20.188  0.00  0.00    +0.000 N 
ATOM      5  C   UNL     1       0.446   3.523  20.097  0.00  0.00    +0.000 C 
BRANCH   2   6
ATOM      6  C   UNL     1       4.160   2.524  19.682  0.00  0.00    +0.000 C 
BRANCH   6   9
ATOM      7  C   UNL     1       5.566   3.983  18.265  0.00  0.00    +0.000 C 
ATOM      8  O   UNL     1       5.956   4.636  19.227  0.00  0.00    +0.000 OA
ATOM      9  N   UNL     1       4.704   2.916  18.395  0.00  0.00    +0.000 N 
ATOM     10  H   UNL     1       4.415   2.357  17.608  0.00  0.00    +0.000 HD
BRANCH   7  16
ATOM     11  C   UNL     1       5.469   3.517  13.228  0.00  0.00    +0.000 C 
ATOM     12  C   UNL     1       6.029   4.147  14.468  0.00  0.00    +0.000 A 
ATOM     13  C   UNL     1       7.042   5.108  14.391  0.00  0.00    +0.000 A 
ATOM     14  C   UNL     1       7.554   5.688  15.551  0.00  0.00    +0.000 A 
ATOM     15  C   UNL     1       7.060   5.305  16.797  0.00  0.00    +0.000 A 
ATOM     16  C   UNL     1       6.043   4.340  16.897  0.00  0.00    +0.000 A 
ATOM     17  C   UNL     1       5.532   3.767  15.725  0.00  0.00    +0.000 A 
ENDBRANCH   7  16
ENDBRANCH   6   9
ENDBRANCH   2   6
ENDBRANCH   1   4
BRANCH   1  18
ATOM     18  C   UNL     1       2.267   6.004  20.151  0.00  0.00    +0.000 C 
ATOM     19  O   UNL     1       2.579   6.084  18.965  0.00  0.00    +0.000 OA
ATOM     20  N   UNL     1       1.670   7.018  20.886  0.00  0.00    +0.000 N 
ATOM     21  H   UNL     1       1.517   6.872  21.876  0.00  0.00    +0.000 HD
BRANCH  20  22
ATOM     22  C   UNL     1       1.412   8.318  20.386  0.00  0.00    +0.000 A 
ATOM     23  C   UNL     1       1.638   8.669  19.060  0.00  0.00    +0.000 A 
ATOM     24  C   UNL     1       1.473   9.983  18.623  0.00  0.00    +0.000 A 
ATOM     25  C   UNL     1       1.032  11.006  19.464  0.00  0.00    +0.000 A 
ATOM     26  C   UNL     1       0.772  10.634  20.792  0.00  0.00    +0.000 A 
ATOM     27  C   UNL     1       0.947   9.308  21.249  0.00  0.00    +0.000 A 
BRANCH  25  28
ATOM     28  N   UNL     1       0.910  12.293  18.990  0.00  0.00    +0.000 N 
ATOM     29  C   UNL     1       2.016  12.968  18.282  0.00  0.00    +0.000 C 
ATOM     30  C   UNL     1       2.151  14.400  18.812  0.00  0.00    +0.000 C 
ATOM     31  O   UNL     1       0.923  15.128  18.641  0.00  0.00    +0.000 OA
ATOM     32  C   UNL     1      -0.144  14.477  19.354  0.00  0.00    +0.000 C 
ATOM     33  C   UNL     1      -0.362  13.021  18.887  0.00  0.00    +0.000 C 
ENDBRANCH  25  28
ENDBRANCH  20  22
ENDBRANCH   1  18
TORSDOF 7
ENDMDL
