MODEL 1
REMARK VINA RESULT:      -7.9      0.000      0.000
REMARK  Name = 
REMARK  5 active torsions:
REMARK  status: ('A' for Active; 'I' for Inactive)
REMARK    1  A    between atoms: C_1  and  C_2
REMARK    2  A    between atoms: C_4  and  N_5
REMARK    3  A    between atoms: C_7  and  S_8
REMARK    4  A    between atoms: S_8  and  C_9
REMARK    5  A    between atoms: N_12  and  C_13
REMARK                            x       y       z     vdW  Elec       q    Type
REMARK                         _______ _______ _______ _____ _____    ______ ____
ROOT
ATOM      1  C   UNL     1       4.544   4.962  16.816  0.00  0.00    +0.000 C 
ATOM      2  C   UNL     1       3.565   4.039  17.521  0.00  0.00    +0.000 C 
ATOM      3  C   UNL     1       2.442   4.977  17.918  0.00  0.00    +0.000 C 
ATOM      4  N   UNL     1       3.050   6.284  18.062  0.00  0.00    +0.000 N 
ATOM      5  C   UNL     1       4.322   6.320  17.451  0.00  0.00    +0.000 C 
ATOM      6  O   UNL     1       5.088   7.268  17.342  0.00  0.00    +0.000 OA
ENDROOT
BRANCH   4   7
ATOM      7  C   UNL     1       2.355   7.390  18.632  0.00  0.00    +0.000 A 
ATOM      8  C   UNL     1       2.032   7.443  19.995  0.00  0.00    +0.000 A 
ATOM      9  C   UNL     1       1.332   8.528  20.539  0.00  0.00    +0.000 A 
ATOM     10  C   UNL     1       0.933   9.582  19.726  0.00  0.00    +0.000 A 
ATOM     11  C   UNL     1       1.254   9.561  18.374  0.00  0.00    +0.000 A 
ATOM     12  C   UNL     1       1.967   8.482  17.837  0.00  0.00    +0.000 A 
ENDBRANCH   4   7
BRANCH   1  13
ATOM     13  S   UNL     1       6.268   4.413  16.753  0.00  0.00    +0.000 S 
BRANCH  13  19
ATOM     14  C   UNL     1       5.309   2.973  11.909  0.00  0.00    +0.000 C 
ATOM     15  C   UNL     1       6.182   3.734  12.862  0.00  0.00    +0.000 A 
ATOM     16  C   UNL     1       7.185   4.552  12.389  0.00  0.00    +0.000 A 
ATOM     17  C   UNL     1       7.909   5.239  13.334  0.00  0.00    +0.000 A 
ATOM     18  N   UNL     1       7.654   5.157  14.640  0.00  0.00    +0.000 NA
ATOM     19  C   UNL     1       6.656   4.343  15.020  0.00  0.00    +0.000 A 
ATOM     20  N   UNL     1       5.902   3.618  14.179  0.00  0.00    +0.000 NA
BRANCH  17  21
ATOM     21  N   UNL     1       8.917   6.121  12.944  0.00  0.00    +0.000 N 
ATOM     22  H   UNL     1       9.495   5.745  12.201  0.00  0.00    +0.000 HD
ATOM     23  H   UNL     1       9.467   6.339  13.774  0.00  0.00    +0.000 HD
ENDBRANCH  17  21
ENDBRANCH  13  19
ENDBRANCH   1  13
TORSDOF 4
ENDMDL
MODEL 2
REMARK VINA RESULT:      -7.8      0.211      1.066
REMARK  Name = 
REMARK  5 active torsions:
REMARK  status: ('A' for Active; 'I' for Inactive)
REMARK    1  A    between atoms: C_1  and  C_2
REMARK    2  A    between atoms: C_4  and  N_5
REMARK    3  A    between atoms: C_7  and  S_8
REMARK    4  A    between atoms: S_8  and  C_9
REMARK    5  A    between atoms: N_12  and  C_13
REMARK                            x       y       z     vdW  Elec       q    Type
REMARK                         _______ _______ _______ _____ _____    ______ ____
ROOT
ATOM      1  C   UNL     1       4.658   4.934  16.685  0.00  0.00    +0.000 C 
ATOM      2  C   UNL     1       3.705   3.967  17.366  0.00  0.00    +0.000 C 
ATOM      3  C   UNL     1       2.568   4.867  17.808  0.00  0.00    +0.000 C 
ATOM      4  N   UNL     1       3.151   6.180  17.992  0.00  0.00    +0.000 N 
ATOM      5  C   UNL     1       4.416   6.264  17.369  0.00  0.00    +0.000 C 
ATOM      6  O   UNL     1       5.162   7.230  17.286  0.00  0.00    +0.000 OA
ENDROOT
BRANCH   4   7
ATOM      7  C   UNL     1       2.440   7.251  18.607  0.00  0.00    +0.000 A 
ATOM      8  C   UNL     1       2.028   8.380  17.886  0.00  0.00    +0.000 A 
ATOM      9  C   UNL     1       1.346   9.435  18.506  0.00  0.00    +0.000 A 
ATOM     10  C   UNL     1       1.068   9.385  19.867  0.00  0.00    +0.000 A 
ATOM     11  C   UNL     1       1.453   8.270  20.601  0.00  0.00    +0.000 A 
ATOM     12  C   UNL     1       2.120   7.211  19.974  0.00  0.00    +0.000 A 
ENDBRANCH   4   7
BRANCH   1  13
ATOM     13  S   UNL     1       6.392   4.422  16.586  0.00  0.00    +0.000 S 
BRANCH  13  19
ATOM     14  C   UNL     1       5.409   2.800  11.804  0.00  0.00    +0.000 C 
ATOM     15  C   UNL     1       6.251   3.643  12.715  0.00  0.00    +0.000 A 
ATOM     16  C   UNL     1       7.181   4.518  12.195  0.00  0.00    +0.000 A 
ATOM     17  C   UNL     1       7.880   5.276  13.104  0.00  0.00    +0.000 A 
ATOM     18  N   UNL     1       7.666   5.209  14.418  0.00  0.00    +0.000 NA
ATOM     19  C   UNL     1       6.738   4.337  14.844  0.00  0.00    +0.000 A 
ATOM     20  N   UNL     1       6.015   3.541  14.041  0.00  0.00    +0.000 NA
BRANCH  17  21
ATOM     21  N   UNL     1       8.812   6.218  12.666  0.00  0.00    +0.000 N 
ATOM     22  H   UNL     1       9.643   5.787  12.277  0.00  0.00    +0.000 HD
ATOM     23  H   UNL     1       9.036   6.815  13.461  0.00  0.00    +0.000 HD
ENDBRANCH  17  21
ENDBRANCH  13  19
ENDBRANCH   1  13
TORSDOF 4
ENDMDL
MODEL 3
REMARK VINA RESULT:      -7.3      0.672      1.836
REMARK  Name = 
REMARK  5 active torsions:
REMARK  status: ('A' for Active; 'I' for Inactive)
REMARK    1  A    between atoms: C_1  and  C_2
REMARK    2  A    between atoms: C_4  and  N_5
REMARK    3  A    between atoms: C_7  and  S_8
REMARK    4  A    between atoms: S_8  and  C_9
REMARK    5  A    between atoms: N_12  and  C_13
REMARK                            x       y       z     vdW  Elec       q    Type
REMARK                         _______ _______ _______ _____ _____    ______ ____
ROOT
ATOM      1  C   UNL     1       4.525   4.854  16.693  0.00  0.00    +0.000 C 
ATOM      2  C   UNL     1       3.597   3.921  17.450  0.00  0.00    +0.000 C 
ATOM      3  C   UNL     1       2.488   4.847  17.910  0.00  0.00    +0.000 C 
ATOM      4  N   UNL     1       3.089   6.159  18.020  0.00  0.00    +0.000 N 
ATOM      5  C   UNL     1       4.325   6.210  17.339  0.00  0.00    +0.000 C 
ATOM      6  O   UNL     1       5.073   7.165  17.189  0.00  0.00    +0.000 OA
ENDROOT
BRANCH   4   7
ATOM      7  C   UNL     1       2.414   7.258  18.628  0.00  0.00    +0.000 A 
ATOM      8  C   UNL     1       2.096   7.272  19.993  0.00  0.00    +0.000 A 
ATOM      9  C   UNL     1       1.417   8.350  20.575  0.00  0.00    +0.000 A 
ATOM     10  C   UNL     1       1.034   9.437  19.799  0.00  0.00    +0.000 A 
ATOM     11  C   UNL     1       1.350   9.454  18.446  0.00  0.00    +0.000 A 
ATOM     12  C   UNL     1       2.043   8.382  17.871  0.00  0.00    +0.000 A 
ENDBRANCH   4   7
BRANCH   1  13
ATOM     13  S   UNL     1       6.250   4.323  16.534  0.00  0.00    +0.000 S 
BRANCH  13  19
ATOM     14  C   UNL     1       8.903   6.161  12.529  0.00  0.00    +0.000 C 
ATOM     15  C   UNL     1       7.830   5.242  13.032  0.00  0.00    +0.000 A 
ATOM     16  C   UNL     1       7.232   4.336  12.182  0.00  0.00    +0.000 A 
ATOM     17  C   UNL     1       6.286   3.509  12.739  0.00  0.00    +0.000 A 
ATOM     18  N   UNL     1       5.969   3.543  14.033  0.00  0.00    +0.000 NA
ATOM     19  C   UNL     1       6.602   4.450  14.796  0.00  0.00    +0.000 A 
ATOM     20  N   UNL     1       7.526   5.311  14.346  0.00  0.00    +0.000 NA
BRANCH  17  21
ATOM     21  N   UNL     1       5.659   2.534  11.963  0.00  0.00    +0.000 N 
ATOM     22  H   UNL     1       5.269   1.785  12.524  0.00  0.00    +0.000 HD
ATOM     23  H   UNL     1       6.348   2.185  11.299  0.00  0.00    +0.000 HD
ENDBRANCH  17  21
ENDBRANCH  13  19
ENDBRANCH   1  13
TORSDOF 4
ENDMDL
MODEL 4
REMARK VINA RESULT:      -7.2      2.633      4.164
REMARK  Name = 
REMARK  5 active torsions:
REMARK  status: ('A' for Active; 'I' for Inactive)
REMARK    1  A    between atoms: C_1  and  C_2
REMARK    2  A    between atoms: C_4  and  N_5
REMARK    3  A    between atoms: C_7  and  S_8
REMARK    4  A    between atoms: S_8  and  C_9
REMARK    5  A    between atoms: N_12  and  C_13
REMARK                            x       y       z     vdW  Elec       q    Type
REMARK                         _______ _______ _______ _____ _____    ______ ____
ROOT
ATOM      1  C   UNL     1       2.742   7.134  18.687  0.00  0.00    +0.000 C 
ATOM      2  C   UNL     1       2.281   8.196  17.705  0.00  0.00    +0.000 C 
ATOM      3  C   UNL     1       1.791   9.307  18.614  0.00  0.00    +0.000 C 
ATOM      4  N   UNL     1       1.373   8.660  19.840  0.00  0.00    +0.000 N 
ATOM      5  C   UNL     1       1.885   7.346  19.919  0.00  0.00    +0.000 C 
ATOM      6  O   UNL     1       1.771   6.537  20.829  0.00  0.00    +0.000 OA
ENDROOT
BRANCH   4   7
ATOM      7  C   UNL     1       0.657   9.349  20.861  0.00  0.00    +0.000 A 
ATOM      8  C   UNL     1       0.675   8.925  22.197  0.00  0.00    +0.000 A 
ATOM      9  C   UNL     1      -0.048   9.602  23.188  0.00  0.00    +0.000 A 
ATOM     10  C   UNL     1      -0.812  10.715  22.861  0.00  0.00    +0.000 A 
ATOM     11  C   UNL     1      -0.835  11.164  21.546  0.00  0.00    +0.000 A 
ATOM     12  C   UNL     1      -0.098  10.495  20.561  0.00  0.00    +0.000 A 
ENDBRANCH   4   7
BRANCH   1  13
ATOM     13  S   UNL     1       2.793   5.432  18.068  0.00  0.00    +0.000 S 
BRANCH  13  19
ATOM     14  C   UNL     1       6.778   4.515  14.947  0.00  0.00    +0.000 C 
ATOM     15  C   UNL     1       6.283   4.762  16.341  0.00  0.00    +0.000 A 
ATOM     16  C   UNL     1       7.174   4.947  17.376  0.00  0.00    +0.000 A 
ATOM     17  C   UNL     1       6.630   5.204  18.612  0.00  0.00    +0.000 A 
ATOM     18  N   UNL     1       5.316   5.306  18.816  0.00  0.00    +0.000 NA
ATOM     19  C   UNL     1       4.515   5.119  17.754  0.00  0.00    +0.000 A 
ATOM     20  N   UNL     1       4.945   4.847  16.513  0.00  0.00    +0.000 NA
BRANCH  17  21
ATOM     21  N   UNL     1       7.457   5.445  19.709  0.00  0.00    +0.000 N 
ATOM     22  H   UNL     1       7.188   4.902  20.522  0.00  0.00    +0.000 HD
ATOM     23  H   UNL     1       7.425   6.446  19.899  0.00  0.00    +0.000 HD
ENDBRANCH  17  21
ENDBRANCH  13  19
ENDBRANCH   1  13
TORSDOF 4
ENDMDL
MODEL 5
REMARK VINA RESULT:      -7.1      2.644      4.292
REMARK  Name = 
REMARK  5 active torsions:
REMARK  status: ('A' for Active; 'I' for Inactive)
REMARK    1  A    between atoms: C_1  and  C_2
REMARK    2  A    between atoms: C_4  and  N_5
REMARK    3  A    between atoms: C_7  and  S_8
REMARK    4  A    between atoms: S_8  and  C_9
REMARK    5  A    between atoms: N_12  and  C_13
REMARK                            x       y       z     vdW  Elec       q    Type
REMARK                         _______ _______ _______ _____ _____    ______ ____
ROOT
ATOM      1  C   UNL     1       2.744   7.122  18.714  0.00  0.00    +0.000 C 
ATOM      2  C   UNL     1       2.307   8.187  17.724  0.00  0.00    +0.000 C 
ATOM      3  C   UNL     1       1.803   9.299  18.624  0.00  0.00    +0.000 C 
ATOM      4  N   UNL     1       1.358   8.652  19.840  0.00  0.00    +0.000 N 
ATOM      5  C   UNL     1       1.864   7.337  19.929  0.00  0.00    +0.000 C 
ATOM      6  O   UNL     1       1.728   6.527  20.836  0.00  0.00    +0.000 OA
ENDROOT
BRANCH   4   7
ATOM      7  C   UNL     1       0.624   9.344  20.848  0.00  0.00    +0.000 A 
ATOM      8  C   UNL     1      -0.154  10.472  20.557  0.00  0.00    +0.000 A 
ATOM      9  C   UNL     1      -0.857  11.154  21.559  0.00  0.00    +0.000 A 
ATOM     10  C   UNL     1      -0.788  10.724  22.878  0.00  0.00    +0.000 A 
ATOM     11  C   UNL     1      -0.035   9.599  23.191  0.00  0.00    +0.000 A 
ATOM     12  C   UNL     1       0.653   8.910  22.184  0.00  0.00    +0.000 A 
ENDBRANCH   4   7
BRANCH   1  13
ATOM     13  S   UNL     1       2.802   5.421  18.095  0.00  0.00    +0.000 S 
BRANCH  13  19
ATOM     14  C   UNL     1       6.787   4.527  14.967  0.00  0.00    +0.000 C 
ATOM     15  C   UNL     1       6.292   4.769  16.362  0.00  0.00    +0.000 A 
ATOM     16  C   UNL     1       7.184   4.954  17.397  0.00  0.00    +0.000 A 
ATOM     17  C   UNL     1       6.640   5.207  18.634  0.00  0.00    +0.000 A 
ATOM     18  N   UNL     1       5.327   5.303  18.840  0.00  0.00    +0.000 NA
ATOM     19  C   UNL     1       4.524   5.116  17.778  0.00  0.00    +0.000 A 
ATOM     20  N   UNL     1       4.955   4.848  16.536  0.00  0.00    +0.000 NA
BRANCH  17  21
ATOM     21  N   UNL     1       7.468   5.448  19.731  0.00  0.00    +0.000 N 
ATOM     22  H   UNL     1       8.337   5.898  19.468  0.00  0.00    +0.000 HD
ATOM     23  H   UNL     1       7.632   4.553  20.189  0.00  0.00    +0.000 HD
ENDBRANCH  17  21
ENDBRANCH  13  19
ENDBRANCH   1  13
TORSDOF 4
ENDMDL
MODEL 6
REMARK VINA RESULT:      -7.1      2.688      4.485
REMARK  Name = 
REMARK  5 active torsions:
REMARK  status: ('A' for Active; 'I' for Inactive)
REMARK    1  A    between atoms: C_1  and  C_2
REMARK    2  A    between atoms: C_4  and  N_5
REMARK    3  A    between atoms: C_7  and  S_8
REMARK    4  A    between atoms: S_8  and  C_9
REMARK    5  A    between atoms: N_12  and  C_13
REMARK                            x       y       z     vdW  Elec       q    Type
REMARK                         _______ _______ _______ _____ _____    ______ ____
ROOT
ATOM      1  C   UNL     1       2.611   7.528  18.688  0.00  0.00    +0.000 C 
ATOM      2  C   UNL     1       2.073   8.565  17.718  0.00  0.00    +0.000 C 
ATOM      3  C   UNL     1       1.528   9.640  18.639  0.00  0.00    +0.000 C 
ATOM      4  N   UNL     1       1.167   8.963  19.866  0.00  0.00    +0.000 N 
ATOM      5  C   UNL     1       1.759   7.683  19.932  0.00  0.00    +0.000 C 
ATOM      6  O   UNL     1       1.707   6.864  20.839  0.00  0.00    +0.000 OA
ENDROOT
BRANCH   4   7
ATOM      7  C   UNL     1       0.424   9.603  20.900  0.00  0.00    +0.000 A 
ATOM      8  C   UNL     1      -0.329  10.762  20.666  0.00  0.00    +0.000 A 
ATOM      9  C   UNL     1      -1.041  11.392  21.695  0.00  0.00    +0.000 A 
ATOM     10  C   UNL     1      -1.008  10.878  22.985  0.00  0.00    +0.000 A 
ATOM     11  C   UNL     1      -0.281   9.722  23.241  0.00  0.00    +0.000 A 
ATOM     12  C   UNL     1       0.416   9.086  22.207  0.00  0.00    +0.000 A 
ENDBRANCH   4   7
BRANCH   1  13
ATOM     13  S   UNL     1       2.758   5.836  18.060  0.00  0.00    +0.000 S 
BRANCH  13  19
ATOM     14  C   UNL     1       7.588   7.521  17.515  0.00  0.00    +0.000 C 
ATOM     15  C   UNL     1       6.551   6.494  17.170  0.00  0.00    +0.000 A 
ATOM     16  C   UNL     1       6.896   5.364  16.460  0.00  0.00    +0.000 A 
ATOM     17  C   UNL     1       5.888   4.461  16.222  0.00  0.00    +0.000 A 
ATOM     18  N   UNL     1       4.644   4.632  16.668  0.00  0.00    +0.000 NA
ATOM     19  C   UNL     1       4.389   5.757  17.358  0.00  0.00    +0.000 A 
ATOM     20  N   UNL     1       5.298   6.706  17.629  0.00  0.00    +0.000 NA
BRANCH  17  21
ATOM     21  N   UNL     1       6.155   3.269  15.547  0.00  0.00    +0.000 N 
ATOM     22  H   UNL     1       5.428   2.576  15.684  0.00  0.00    +0.000 HD
ATOM     23  H   UNL     1       7.061   2.933  15.873  0.00  0.00    +0.000 HD
ENDBRANCH  17  21
ENDBRANCH  13  19
ENDBRANCH   1  13
TORSDOF 4
ENDMDL
MODEL 7
REMARK VINA RESULT:      -7.1      2.632      4.333
REMARK  Name = 
REMARK  5 active torsions:
REMARK  status: ('A' for Active; 'I' for Inactive)
REMARK    1  A    between atoms: C_1  and  C_2
REMARK    2  A    between atoms: C_4  and  N_5
REMARK    3  A    between atoms: C_7  and  S_8
REMARK    4  A    between atoms: S_8  and  C_9
REMARK    5  A    between atoms: N_12  and  C_13
REMARK                            x       y       z     vdW  Elec       q    Type
REMARK                         _______ _______ _______ _____ _____    ______ ____
ROOT
ATOM      1  C   UNL     1       2.723   7.252  18.653  0.00  0.00    +0.000 C 
ATOM      2  C   UNL     1       2.208   8.299  17.681  0.00  0.00    +0.000 C 
ATOM      3  C   UNL     1       1.701   9.393  18.600  0.00  0.00    +0.000 C 
ATOM      4  N   UNL     1       1.329   8.734  19.834  0.00  0.00    +0.000 N 
ATOM      5  C   UNL     1       1.886   7.437  19.903  0.00  0.00    +0.000 C 
ATOM      6  O   UNL     1       1.816   6.626  20.815  0.00  0.00    +0.000 OA
ENDROOT
BRANCH   4   7
ATOM      7  C   UNL     1       0.612   9.400  20.870  0.00  0.00    +0.000 A 
ATOM      8  C   UNL     1       0.622   8.942  22.194  0.00  0.00    +0.000 A 
ATOM      9  C   UNL     1      -0.102   9.596  23.200  0.00  0.00    +0.000 A 
ATOM     10  C   UNL     1      -0.860  10.720  22.898  0.00  0.00    +0.000 A 
ATOM     11  C   UNL     1      -0.876  11.203  21.595  0.00  0.00    +0.000 A 
ATOM     12  C   UNL     1      -0.138  10.557  20.596  0.00  0.00    +0.000 A 
ENDBRANCH   4   7
BRANCH   1  13
ATOM     13  S   UNL     1       2.818   5.553  18.034  0.00  0.00    +0.000 S 
BRANCH  13  19
ATOM     14  C   UNL     1       7.840   5.785  19.123  0.00  0.00    +0.000 C 
ATOM     15  C   UNL     1       6.763   5.379  18.162  0.00  0.00    +0.000 A 
ATOM     16  C   UNL     1       7.070   4.638  17.041  0.00  0.00    +0.000 A 
ATOM     17  C   UNL     1       6.015   4.281  16.237  0.00  0.00    +0.000 A 
ATOM     18  N   UNL     1       4.751   4.596  16.520  0.00  0.00    +0.000 NA
ATOM     19  C   UNL     1       4.534   5.315  17.635  0.00  0.00    +0.000 A 
ATOM     20  N   UNL     1       5.495   5.726  18.475  0.00  0.00    +0.000 NA
BRANCH  17  21
ATOM     21  N   UNL     1       6.227   3.496  15.103  0.00  0.00    +0.000 N 
ATOM     22  H   UNL     1       7.163   3.108  15.071  0.00  0.00    +0.000 HD
ATOM     23  H   UNL     1       6.035   4.080  14.290  0.00  0.00    +0.000 HD
ENDBRANCH  17  21
ENDBRANCH  13  19
ENDBRANCH   1  13
TORSDOF 4
ENDMDL
MODEL 8
REMARK VINA RESULT:      -7.1      2.792      3.860
REMARK  Name = 
REMARK  5 active torsions:
REMARK  status: ('A' for Active; 'I' for Inactive)
REMARK    1  A    between atoms: C_1  and  C_2
REMARK    2  A    between atoms: C_4  and  N_5
REMARK    3  A    between atoms: C_7  and  S_8
REMARK    4  A    between atoms: S_8  and  C_9
REMARK    5  A    between atoms: N_12  and  C_13
REMARK                            x       y       z     vdW  Elec       q    Type
REMARK                         _______ _______ _______ _____ _____    ______ ____
ROOT
ATOM      1  C   UNL     1       4.145   4.748  17.233  0.00  0.00    +0.000 C 
ATOM      2  C   UNL     1       3.893   4.035  18.549  0.00  0.00    +0.000 C 
ATOM      3  C   UNL     1       2.798   4.872  19.183  0.00  0.00    +0.000 C 
ATOM      4  N   UNL     1       2.961   6.207  18.647  0.00  0.00    +0.000 N 
ATOM      5  C   UNL     1       3.785   6.196  17.500  0.00  0.00    +0.000 C 
ATOM      6  O   UNL     1       4.093   7.131  16.774  0.00  0.00    +0.000 OA
ENDROOT
BRANCH   4   7
ATOM      7  C   UNL     1       2.250   7.329  19.164  0.00  0.00    +0.000 A 
ATOM      8  C   UNL     1       1.847   7.399  20.505  0.00  0.00    +0.000 A 
ATOM      9  C   UNL     1       1.132   8.500  20.997  0.00  0.00    +0.000 A 
ATOM     10  C   UNL     1       0.798   9.551  20.153  0.00  0.00    +0.000 A 
ATOM     11  C   UNL     1       1.198   9.512  18.823  0.00  0.00    +0.000 A 
ATOM     12  C   UNL     1       1.926   8.419  18.338  0.00  0.00    +0.000 A 
ENDBRANCH   4   7
BRANCH   1  13
ATOM     13  S   UNL     1       5.767   4.486  16.471  0.00  0.00    +0.000 S 
BRANCH  13  19
ATOM     14  C   UNL     1       8.032   8.991  17.491  0.00  0.00    +0.000 C 
ATOM     15  C   UNL     1       7.831   7.553  17.866  0.00  0.00    +0.000 A 
ATOM     16  C   UNL     1       8.344   7.062  19.047  0.00  0.00    +0.000 A 
ATOM     17  C   UNL     1       8.079   5.742  19.326  0.00  0.00    +0.000 A 
ATOM     18  N   UNL     1       7.342   4.969  18.528  0.00  0.00    +0.000 NA
ATOM     19  C   UNL     1       6.873   5.525  17.398  0.00  0.00    +0.000 A 
ATOM     20  N   UNL     1       7.090   6.796  17.028  0.00  0.00    +0.000 NA
BRANCH  17  21
ATOM     21  N   UNL     1       8.523   5.171  20.519  0.00  0.00    +0.000 N 
ATOM     22  H   UNL     1       8.748   5.867  21.221  0.00  0.00    +0.000 HD
ATOM     23  H   UNL     1       9.330   4.590  20.295  0.00  0.00    +0.000 HD
ENDBRANCH  17  21
ENDBRANCH  13  19
ENDBRANCH   1  13
TORSDOF 4
ENDMDL
MODEL 9
REMARK VINA RESULT:      -7.0      2.960      4.340
REMARK  Name = 
REMARK  5 active torsions:
REMARK  status: ('A' for Active; 'I' for Inactive)
REMARK    1  A    between atoms: C_1  and  C_2
REMARK    2  A    between atoms: C_4  and  N_5
REMARK    3  A    between atoms: C_7  and  S_8
REMARK    4  A    between atoms: S_8  and  C_9
REMARK    5  A    between atoms: N_12  and  C_13
REMARK                            x       y       z     vdW  Elec       q    Type
REMARK                         _______ _______ _______ _____ _____    ______ ____
ROOT
ATOM      1  C   UNL     1       2.916   7.282  19.148  0.00  0.00    +0.000 C 
ATOM      2  C   UNL     1       2.761   7.765  17.717  0.00  0.00    +0.000 C 
ATOM      3  C   UNL     1       2.098   9.118  17.887  0.00  0.00    +0.000 C 
ATOM      4  N   UNL     1       1.357   9.043  19.129  0.00  0.00    +0.000 N 
ATOM      5  C   UNL     1       1.782   7.943  19.906  0.00  0.00    +0.000 C 
ATOM      6  O   UNL     1       1.409   7.609  21.022  0.00  0.00    +0.000 OA
ENDROOT
BRANCH   4   7
ATOM      7  C   UNL     1       0.431  10.050  19.527  0.00  0.00    +0.000 A 
ATOM      8  C   UNL     1       0.662  10.876  20.636  0.00  0.00    +0.000 A 
ATOM      9  C   UNL     1      -0.265  11.850  21.028  0.00  0.00    +0.000 A 
ATOM     10  C   UNL     1      -1.449  12.015  20.320  0.00  0.00    +0.000 A 
ATOM     11  C   UNL     1      -1.696  11.219  19.208  0.00  0.00    +0.000 A 
ATOM     12  C   UNL     1      -0.759  10.257  18.810  0.00  0.00    +0.000 A 
ENDBRANCH   4   7
BRANCH   1  13
ATOM     13  S   UNL     1       3.059   5.492  19.384  0.00  0.00    +0.000 S 
BRANCH  13  19
ATOM     14  C   UNL     1       6.172   4.020  15.563  0.00  0.00    +0.000 C 
ATOM     15  C   UNL     1       6.028   4.469  16.986  0.00  0.00    +0.000 A 
ATOM     16  C   UNL     1       7.143   4.755  17.744  0.00  0.00    +0.000 A 
ATOM     17  C   UNL     1       6.913   5.195  19.026  0.00  0.00    +0.000 A 
ATOM     18  N   UNL     1       5.687   5.371  19.521  0.00  0.00    +0.000 NA
ATOM     19  C   UNL     1       4.653   5.076  18.716  0.00  0.00    +0.000 A 
ATOM     20  N   UNL     1       4.771   4.625  17.458  0.00  0.00    +0.000 NA
BRANCH  17  21
ATOM     21  N   UNL     1       7.980   5.548  19.852  0.00  0.00    +0.000 N 
ATOM     22  H   UNL     1       7.687   6.107  20.646  0.00  0.00    +0.000 HD
ATOM     23  H   UNL     1       8.659   6.043  19.275  0.00  0.00    +0.000 HD
ENDBRANCH  17  21
ENDBRANCH  13  19
ENDBRANCH   1  13
TORSDOF 4
ENDMDL
