MODEL 1
REMARK VINA RESULT:      -9.6      0.000      0.000
REMARK  Name = 
REMARK  5 active torsions:
REMARK  status: ('A' for Active; 'I' for Inactive)
REMARK    1  A    between atoms: O_1  and  C_2
REMARK    2  A    between atoms: C_2  and  C_3
REMARK    3  A    between atoms: N_11  and  C_12
REMARK    4  A    between atoms: C_12  and  C_13
REMARK    5  A    between atoms: C_12  and  C_19
REMARK                            x       y       z     vdW  Elec       q    Type
REMARK                         _______ _______ _______ _____ _____    ______ ____
ROOT
ATOM      1  C   UNL     1       5.796   4.991  15.966  0.00  0.00    +0.000 C 
ATOM      2  C   UNL     1       5.161   6.377  16.138  0.00  0.00    +0.000 C 
ATOM      3  C   UNL     1       4.630   6.601  17.549  0.00  0.00    +0.000 C 
ATOM      4  N   UNL     1       3.595   5.593  17.882  0.00  0.00    +0.000 NA
ATOM      5  C   UNL     1       4.247   4.272  17.887  0.00  0.00    +0.000 C 
ATOM      6  C   UNL     1       4.831   3.923  16.510  0.00  0.00    +0.000 C 
ENDROOT
BRANCH   1   7
ATOM      7  C   UNL     1       6.237   4.686  14.527  0.00  0.00    +0.000 A 
ATOM      8  C   UNL     1       5.525   3.740  13.764  0.00  0.00    +0.000 A 
ATOM      9  C   UNL     1       5.919   3.408  12.464  0.00  0.00    +0.000 A 
ATOM     10  C   UNL     1       7.040   4.011  11.902  0.00  0.00    +0.000 A 
ATOM     11  C   UNL     1       7.763   4.944  12.635  0.00  0.00    +0.000 A 
ATOM     12  C   UNL     1       7.366   5.278  13.933  0.00  0.00    +0.000 A 
ENDBRANCH   1   7
BRANCH   1  13
ATOM     13  O   UNL     1       6.987   4.971  16.776  0.00  0.00    +0.000 OA
ATOM     14  H   UNL     1       6.764   4.496  17.596  0.00  0.00    +0.000 HD
ENDBRANCH   1  13
BRANCH   4  15
ATOM     15  C   UNL     1       2.935   5.935  19.180  0.00  0.00    +0.000 C 
BRANCH  15  16
ATOM     16  C   UNL     1       2.292   7.332  19.113  0.00  0.00    +0.000 A 
ATOM     17  C   UNL     1       1.734   7.945  20.247  0.00  0.00    +0.000 A 
ATOM     18  C   UNL     1       1.169   9.215  20.172  0.00  0.00    +0.000 A 
ATOM     19  C   UNL     1       1.110   9.881  18.952  0.00  0.00    +0.000 A 
ATOM     20  C   UNL     1       1.615   9.272  17.806  0.00  0.00    +0.000 A 
ATOM     21  C   UNL     1       2.208   8.011  17.885  0.00  0.00    +0.000 A 
ENDBRANCH  15  16
BRANCH  15  22
ATOM     22  C   UNL     1       1.934   4.863  19.733  0.00  0.00    +0.000 C 
ATOM     23  C   UNL     1       1.380   3.900  18.671  0.00  0.00    +0.000 C 
ATOM     24  C   UNL     1       0.784   2.759  19.478  0.00  0.00    +0.000 C 
ATOM     25  C   UNL     1       1.726   2.590  20.658  0.00  0.00    +0.000 C 
ATOM     26  C   UNL     1       2.413   3.942  20.868  0.00  0.00    +0.000 C 
ENDBRANCH  15  22
ENDBRANCH   4  15
TORSDOF 5
ENDMDL
MODEL 2
REMARK VINA RESULT:      -9.6      0.100      1.365
REMARK  Name = 
REMARK  5 active torsions:
REMARK  status: ('A' for Active; 'I' for Inactive)
REMARK    1  A    between atoms: O_1  and  C_2
REMARK    2  A    between atoms: C_2  and  C_3
REMARK    3  A    between atoms: N_11  and  C_12
REMARK    4  A    between atoms: C_12  and  C_13
REMARK    5  A    between atoms: C_12  and  C_19
REMARK                            x       y       z     vdW  Elec       q    Type
REMARK                         _______ _______ _______ _____ _____    ______ ____
ROOT
ATOM      1  C   UNL     1       5.761   4.899  16.011  0.00  0.00    +0.000 C 
ATOM      2  C   UNL     1       5.197   6.314  16.189  0.00  0.00    +0.000 C 
ATOM      3  C   UNL     1       4.647   6.548  17.591  0.00  0.00    +0.000 C 
ATOM      4  N   UNL     1       3.553   5.593  17.887  0.00  0.00    +0.000 NA
ATOM      5  C   UNL     1       4.133   4.239  17.887  0.00  0.00    +0.000 C 
ATOM      6  C   UNL     1       4.728   3.877  16.519  0.00  0.00    +0.000 C 
ENDROOT
BRANCH   1   7
ATOM      7  C   UNL     1       6.217   4.589  14.577  0.00  0.00    +0.000 A 
ATOM      8  C   UNL     1       7.336   5.254  14.041  0.00  0.00    +0.000 A 
ATOM      9  C   UNL     1       7.759   5.026  12.728  0.00  0.00    +0.000 A 
ATOM     10  C   UNL     1       7.064   4.131  11.920  0.00  0.00    +0.000 A 
ATOM     11  C   UNL     1       5.952   3.465  12.423  0.00  0.00    +0.000 A 
ATOM     12  C   UNL     1       5.534   3.692  13.737  0.00  0.00    +0.000 A 
ENDBRANCH   1   7
BRANCH   1  13
ATOM     13  O   UNL     1       6.930   4.804  16.846  0.00  0.00    +0.000 OA
ATOM     14  H   UNL     1       6.794   4.044  17.439  0.00  0.00    +0.000 HD
ENDBRANCH   1  13
BRANCH   4  15
ATOM     15  C   UNL     1       2.883   5.953  19.176  0.00  0.00    +0.000 C 
BRANCH  15  16
ATOM     16  C   UNL     1       2.252   7.354  19.089  0.00  0.00    +0.000 A 
ATOM     17  C   UNL     1       2.220   8.078  17.886  0.00  0.00    +0.000 A 
ATOM     18  C   UNL     1       1.632   9.338  17.822  0.00  0.00    +0.000 A 
ATOM     19  C   UNL     1       1.104   9.921  18.969  0.00  0.00    +0.000 A 
ATOM     20  C   UNL     1       1.168   9.241  20.183  0.00  0.00    +0.000 A 
ATOM     21  C   UNL     1       1.731   7.964  20.243  0.00  0.00    +0.000 A 
ENDBRANCH  15  16
BRANCH  15  22
ATOM     22  C   UNL     1       1.868   4.894  19.729  0.00  0.00    +0.000 C 
ATOM     23  C   UNL     1       1.404   3.855  18.697  0.00  0.00    +0.000 C 
ATOM     24  C   UNL     1       0.778   2.752  19.535  0.00  0.00    +0.000 C 
ATOM     25  C   UNL     1       1.643   2.678  20.782  0.00  0.00    +0.000 C 
ATOM     26  C   UNL     1       2.289   4.057  20.949  0.00  0.00    +0.000 C 
ENDBRANCH  15  22
ENDBRANCH   4  15
TORSDOF 5
ENDMDL
MODEL 3
REMARK VINA RESULT:      -9.5      0.748      1.458
REMARK  Name = 
REMARK  5 active torsions:
REMARK  status: ('A' for Active; 'I' for Inactive)
REMARK    1  A    between atoms: O_1  and  C_2
REMARK    2  A    between atoms: C_2  and  C_3
REMARK    3  A    between atoms: N_11  and  C_12
REMARK    4  A    between atoms: C_12  and  C_13
REMARK    5  A    between atoms: C_12  and  C_19
REMARK                            x       y       z     vdW  Elec       q    Type
REMARK                         _______ _______ _______ _____ _____    ______ ____
ROOT
ATOM      1  C   UNL     1       6.227   4.607  15.864  0.00  0.00    +0.000 C 
ATOM      2  C   UNL     1       5.985   6.031  16.381  0.00  0.00    +0.000 C 
ATOM      3  C   UNL     1       5.450   6.048  17.807  0.00  0.00    +0.000 C 
ATOM      4  N   UNL     1       4.160   5.322  17.888  0.00  0.00    +0.000 NA
ATOM      5  C   UNL     1       4.424   3.910  17.558  0.00  0.00    +0.000 C 
ATOM      6  C   UNL     1       4.974   3.753  16.134  0.00  0.00    +0.000 C 
ENDROOT
BRANCH   1   7
ATOM      7  C   UNL     1       6.656   4.546  14.391  0.00  0.00    +0.000 A 
ATOM      8  C   UNL     1       7.619   5.452  13.905  0.00  0.00    +0.000 A 
ATOM      9  C   UNL     1       8.007   5.451  12.562  0.00  0.00    +0.000 A 
ATOM     10  C   UNL     1       7.433   4.548  11.673  0.00  0.00    +0.000 A 
ATOM     11  C   UNL     1       6.476   3.647  12.125  0.00  0.00    +0.000 A 
ATOM     12  C   UNL     1       6.092   3.646  13.469  0.00  0.00    +0.000 A 
ENDBRANCH   1   7
BRANCH   1  13
ATOM     13  O   UNL     1       7.314   4.059  16.634  0.00  0.00    +0.000 OA
ATOM     14  H   UNL     1       8.134   4.261  16.149  0.00  0.00    +0.000 HD
ENDBRANCH   1  13
BRANCH   4  15
ATOM     15  C   UNL     1       3.540   5.511  19.236  0.00  0.00    +0.000 C 
BRANCH  15  16
ATOM     16  C   UNL     1       2.687   6.792  19.268  0.00  0.00    +0.000 A 
ATOM     17  C   UNL     1       2.060   7.235  20.444  0.00  0.00    +0.000 A 
ATOM     18  C   UNL     1       1.305   8.404  20.459  0.00  0.00    +0.000 A 
ATOM     19  C   UNL     1       1.122   9.132  19.287  0.00  0.00    +0.000 A 
ATOM     20  C   UNL     1       1.696   8.685  18.099  0.00  0.00    +0.000 A 
ATOM     21  C   UNL     1       2.478   7.529  18.089  0.00  0.00    +0.000 A 
ENDBRANCH  15  16
BRANCH  15  22
ATOM     22  C   UNL     1       2.752   4.278  19.797  0.00  0.00    +0.000 C 
ATOM     23  C   UNL     1       2.528   4.301  21.317  0.00  0.00    +0.000 C 
ATOM     24  C   UNL     1       1.443   3.263  21.551  0.00  0.00    +0.000 C 
ATOM     25  C   UNL     1       0.519   3.397  20.352  0.00  0.00    +0.000 C 
ATOM     26  C   UNL     1       1.360   3.981  19.213  0.00  0.00    +0.000 C 
ENDBRANCH  15  22
ENDBRANCH   4  15
TORSDOF 5
ENDMDL
MODEL 4
REMARK VINA RESULT:      -9.5      0.696      1.440
REMARK  Name = 
REMARK  5 active torsions:
REMARK  status: ('A' for Active; 'I' for Inactive)
REMARK    1  A    between atoms: O_1  and  C_2
REMARK    2  A    between atoms: C_2  and  C_3
REMARK    3  A    between atoms: N_11  and  C_12
REMARK    4  A    between atoms: C_12  and  C_13
REMARK    5  A    between atoms: C_12  and  C_19
REMARK                            x       y       z     vdW  Elec       q    Type
REMARK                         _______ _______ _______ _____ _____    ______ ____
ROOT
ATOM      1  C   UNL     1       6.263   4.780  15.784  0.00  0.00    +0.000 C 
ATOM      2  C   UNL     1       5.802   6.182  16.206  0.00  0.00    +0.000 C 
ATOM      3  C   UNL     1       5.302   6.220  17.645  0.00  0.00    +0.000 C 
ATOM      4  N   UNL     1       4.151   5.303  17.821  0.00  0.00    +0.000 NA
ATOM      5  C   UNL     1       4.635   3.932  17.584  0.00  0.00    +0.000 C 
ATOM      6  C   UNL     1       5.172   3.759  16.156  0.00  0.00    +0.000 C 
ENDROOT
BRANCH   1   7
ATOM      7  C   UNL     1       6.663   4.678  14.305  0.00  0.00    +0.000 A 
ATOM      8  C   UNL     1       6.059   3.707  13.483  0.00  0.00    +0.000 A 
ATOM      9  C   UNL     1       6.424   3.560  12.142  0.00  0.00    +0.000 A 
ATOM     10  C   UNL     1       7.410   4.377  11.596  0.00  0.00    +0.000 A 
ATOM     11  C   UNL     1       8.025   5.340  12.386  0.00  0.00    +0.000 A 
ATOM     12  C   UNL     1       7.656   5.489  13.726  0.00  0.00    +0.000 A 
ENDBRANCH   1   7
BRANCH   1  13
ATOM     13  O   UNL     1       7.441   4.476  16.553  0.00  0.00    +0.000 OA
ATOM     14  H   UNL     1       7.240   3.680  17.077  0.00  0.00    +0.000 HD
ENDBRANCH   1  13
BRANCH   4  15
ATOM     15  C   UNL     1       3.538   5.492  19.172  0.00  0.00    +0.000 C 
BRANCH  15  16
ATOM     16  C   UNL     1       2.680   6.769  19.208  0.00  0.00    +0.000 A 
ATOM     17  C   UNL     1       2.470   7.552  18.060  0.00  0.00    +0.000 A 
ATOM     18  C   UNL     1       1.679   8.696  18.106  0.00  0.00    +0.000 A 
ATOM     19  C   UNL     1       1.118   9.108  19.311  0.00  0.00    +0.000 A 
ATOM     20  C   UNL     1       1.352   8.374  20.470  0.00  0.00    +0.000 A 
ATOM     21  C   UNL     1       2.121   7.209  20.420  0.00  0.00    +0.000 A 
ENDBRANCH  15  16
BRANCH  15  22
ATOM     22  C   UNL     1       2.759   4.256  19.740  0.00  0.00    +0.000 C 
ATOM     23  C   UNL     1       2.510   4.299  21.256  0.00  0.00    +0.000 C 
ATOM     24  C   UNL     1       1.437   3.248  21.487  0.00  0.00    +0.000 C 
ATOM     25  C   UNL     1       0.530   3.351  20.272  0.00  0.00    +0.000 C 
ATOM     26  C   UNL     1       1.381   3.930  19.138  0.00  0.00    +0.000 C 
ENDBRANCH  15  22
ENDBRANCH   4  15
TORSDOF 5
ENDMDL
MODEL 5
REMARK VINA RESULT:      -8.6      2.546      7.820
REMARK  Name = 
REMARK  5 active torsions:
REMARK  status: ('A' for Active; 'I' for Inactive)
REMARK    1  A    between atoms: O_1  and  C_2
REMARK    2  A    between atoms: C_2  and  C_3
REMARK    3  A    between atoms: N_11  and  C_12
REMARK    4  A    between atoms: C_12  and  C_13
REMARK    5  A    between atoms: C_12  and  C_19
REMARK                            x       y       z     vdW  Elec       q    Type
REMARK                         _______ _______ _______ _____ _____    ______ ____
ROOT
ATOM      1  C   UNL     1       0.846   9.650  19.008  0.00  0.00    +0.000 C 
ATOM      2  C   UNL     1       0.791   8.477  19.996  0.00  0.00    +0.000 C 
ATOM      3  C   UNL     1       2.092   7.683  20.028  0.00  0.00    +0.000 C 
ATOM      4  N   UNL     1       2.392   7.122  18.690  0.00  0.00    +0.000 NA
ATOM      5  C   UNL     1       2.617   8.254  17.774  0.00  0.00    +0.000 C 
ATOM      6  C   UNL     1       1.370   9.142  17.652  0.00  0.00    +0.000 C 
ENDROOT
BRANCH   1   7
ATOM      7  C   UNL     1      -0.485  10.402  18.863  0.00  0.00    +0.000 A 
ATOM      8  C   UNL     1      -0.852  11.364  19.824  0.00  0.00    +0.000 A 
ATOM      9  C   UNL     1      -2.072  12.042  19.746  0.00  0.00    +0.000 A 
ATOM     10  C   UNL     1      -2.956  11.765  18.707  0.00  0.00    +0.000 A 
ATOM     11  C   UNL     1      -2.620  10.816  17.748  0.00  0.00    +0.000 A 
ATOM     12  C   UNL     1      -1.398  10.142  17.826  0.00  0.00    +0.000 A 
ENDBRANCH   1   7
BRANCH   1  13
ATOM     13  O   UNL     1       1.800  10.594  19.530  0.00  0.00    +0.000 OA
ATOM     14  H   UNL     1       2.676  10.172  19.475  0.00  0.00    +0.000 HD
ENDBRANCH   1  13
BRANCH   4  15
ATOM     15  C   UNL     1       3.552   6.181  18.769  0.00  0.00    +0.000 C 
BRANCH  15  16
ATOM     16  C   UNL     1       3.067   4.723  18.840  0.00  0.00    +0.000 A 
ATOM     17  C   UNL     1       1.822   4.330  18.321  0.00  0.00    +0.000 A 
ATOM     18  C   UNL     1       1.405   3.003  18.380  0.00  0.00    +0.000 A 
ATOM     19  C   UNL     1       2.204   2.048  19.001  0.00  0.00    +0.000 A 
ATOM     20  C   UNL     1       3.421   2.424  19.565  0.00  0.00    +0.000 A 
ATOM     21  C   UNL     1       3.854   3.749  19.479  0.00  0.00    +0.000 A 
ENDBRANCH  15  16
BRANCH  15  22
ATOM     22  C   UNL     1       4.653   6.372  17.669  0.00  0.00    +0.000 C 
ATOM     23  C   UNL     1       6.096   6.288  18.190  0.00  0.00    +0.000 C 
ATOM     24  C   UNL     1       6.935   6.103  16.936  0.00  0.00    +0.000 C 
ATOM     25  C   UNL     1       6.091   5.215  16.037  0.00  0.00    +0.000 C 
ATOM     26  C   UNL     1       4.633   5.430  16.453  0.00  0.00    +0.000 C 
ENDBRANCH  15  22
ENDBRANCH   4  15
TORSDOF 5
ENDMDL
MODEL 6
REMARK VINA RESULT:      -8.6      2.544      7.753
REMARK  Name = 
REMARK  5 active torsions:
REMARK  status: ('A' for Active; 'I' for Inactive)
REMARK    1  A    between atoms: O_1  and  C_2
REMARK    2  A    between atoms: C_2  and  C_3
REMARK    3  A    between atoms: N_11  and  C_12
REMARK    4  A    between atoms: C_12  and  C_13
REMARK    5  A    between atoms: C_12  and  C_19
REMARK                            x       y       z     vdW  Elec       q    Type
REMARK                         _______ _______ _______ _____ _____    ______ ____
ROOT
ATOM      1  C   UNL     1       0.850   9.627  19.023  0.00  0.00    +0.000 C 
ATOM      2  C   UNL     1       0.818   8.461  20.019  0.00  0.00    +0.000 C 
ATOM      3  C   UNL     1       2.126   7.679  20.040  0.00  0.00    +0.000 C 
ATOM      4  N   UNL     1       2.415   7.111  18.702  0.00  0.00    +0.000 NA
ATOM      5  C   UNL     1       2.618   8.239  17.776  0.00  0.00    +0.000 C 
ATOM      6  C   UNL     1       1.362   9.115  17.664  0.00  0.00    +0.000 C 
ENDROOT
BRANCH   1   7
ATOM      7  C   UNL     1      -0.489  10.366  18.889  0.00  0.00    +0.000 A 
ATOM      8  C   UNL     1      -1.315  10.120  17.775  0.00  0.00    +0.000 A 
ATOM      9  C   UNL     1      -2.523  10.800  17.600  0.00  0.00    +0.000 A 
ATOM     10  C   UNL     1      -2.929  11.749  18.534  0.00  0.00    +0.000 A 
ATOM     11  C   UNL     1      -2.130  12.015  19.640  0.00  0.00    +0.000 A 
ATOM     12  C   UNL     1      -0.924  11.331  19.816  0.00  0.00    +0.000 A 
ENDBRANCH   1   7
BRANCH   1  13
ATOM     13  O   UNL     1       1.801  10.584  19.527  0.00  0.00    +0.000 OA
ATOM     14  H   UNL     1       2.525  10.633  18.877  0.00  0.00    +0.000 HD
ENDBRANCH   1  13
BRANCH   4  15
ATOM     15  C   UNL     1       3.585   6.182  18.773  0.00  0.00    +0.000 C 
BRANCH  15  16
ATOM     16  C   UNL     1       3.115   4.718  18.829  0.00  0.00    +0.000 A 
ATOM     17  C   UNL     1       3.930   3.698  19.348  0.00  0.00    +0.000 A 
ATOM     18  C   UNL     1       3.483   2.381  19.405  0.00  0.00    +0.000 A 
ATOM     19  C   UNL     1       2.229   2.047  18.903  0.00  0.00    +0.000 A 
ATOM     20  C   UNL     1       1.424   3.034  18.341  0.00  0.00    +0.000 A 
ATOM     21  C   UNL     1       1.858   4.361  18.310  0.00  0.00    +0.000 A 
ENDBRANCH  15  16
BRANCH  15  22
ATOM     22  C   UNL     1       4.685   6.395  17.677  0.00  0.00    +0.000 C 
ATOM     23  C   UNL     1       6.129   6.277  18.190  0.00  0.00    +0.000 C 
ATOM     24  C   UNL     1       6.961   6.123  16.928  0.00  0.00    +0.000 C 
ATOM     25  C   UNL     1       6.104   5.275  16.004  0.00  0.00    +0.000 C 
ATOM     26  C   UNL     1       4.650   5.493  16.431  0.00  0.00    +0.000 C 
ENDBRANCH  15  22
ENDBRANCH   4  15
TORSDOF 5
ENDMDL
MODEL 7
REMARK VINA RESULT:      -8.4      2.605      7.857
REMARK  Name = 
REMARK  5 active torsions:
REMARK  status: ('A' for Active; 'I' for Inactive)
REMARK    1  A    between atoms: O_1  and  C_2
REMARK    2  A    between atoms: C_2  and  C_3
REMARK    3  A    between atoms: N_11  and  C_12
REMARK    4  A    between atoms: C_12  and  C_13
REMARK    5  A    between atoms: C_12  and  C_19
REMARK                            x       y       z     vdW  Elec       q    Type
REMARK                         _______ _______ _______ _____ _____    ______ ____
ROOT
ATOM      1  C   UNL     1       0.577   9.836  19.235  0.00  0.00    +0.000 C 
ATOM      2  C   UNL     1       0.633   8.789  20.355  0.00  0.00    +0.000 C 
ATOM      3  C   UNL     1       1.905   7.950  20.302  0.00  0.00    +0.000 C 
ATOM      4  N   UNL     1       1.996   7.225  19.012  0.00  0.00    +0.000 NA
ATOM      5  C   UNL     1       2.117   8.233  17.944  0.00  0.00    +0.000 C 
ATOM      6  C   UNL     1       0.889   9.153  17.891  0.00  0.00    +0.000 C 
ENDROOT
BRANCH   1   7
ATOM      7  C   UNL     1      -0.742  10.621  19.186  0.00  0.00    +0.000 A 
ATOM      8  C   UNL     1      -1.694  10.327  18.190  0.00  0.00    +0.000 A 
ATOM      9  C   UNL     1      -2.889  11.045  18.092  0.00  0.00    +0.000 A 
ATOM     10  C   UNL     1      -3.154  12.080  18.983  0.00  0.00    +0.000 A 
ATOM     11  C   UNL     1      -2.229  12.394  19.972  0.00  0.00    +0.000 A 
ATOM     12  C   UNL     1      -1.036  11.673  20.072  0.00  0.00    +0.000 A 
ENDBRANCH   1   7
BRANCH   1  13
ATOM     13  O   UNL     1       1.619  10.793  19.502  0.00  0.00    +0.000 OA
ATOM     14  H   UNL     1       1.769  10.788  20.464  0.00  0.00    +0.000 HD
ENDBRANCH   1  13
BRANCH   4  15
ATOM     15  C   UNL     1       3.132   6.252  19.042  0.00  0.00    +0.000 C 
BRANCH  15  16
ATOM     16  C   UNL     1       2.698   4.927  19.694  0.00  0.00    +0.000 A 
ATOM     17  C   UNL     1       3.634   3.977  20.135  0.00  0.00    +0.000 A 
ATOM     18  C   UNL     1       3.223   2.790  20.736  0.00  0.00    +0.000 A 
ATOM     19  C   UNL     1       1.867   2.507  20.868  0.00  0.00    +0.000 A 
ATOM     20  C   UNL     1       0.922   3.414  20.394  0.00  0.00    +0.000 A 
ATOM     21  C   UNL     1       1.332   4.618  19.818  0.00  0.00    +0.000 A 
ENDBRANCH  15  16
BRANCH  15  22
ATOM     22  C   UNL     1       3.855   6.013  17.671  0.00  0.00    +0.000 C 
ATOM     23  C   UNL     1       5.363   6.305  17.685  0.00  0.00    +0.000 C 
ATOM     24  C   UNL     1       5.883   5.640  16.422  0.00  0.00    +0.000 C 
ATOM     25  C   UNL     1       5.062   4.368  16.291  0.00  0.00    +0.000 C 
ATOM     26  C   UNL     1       3.743   4.620  17.028  0.00  0.00    +0.000 C 
ENDBRANCH  15  22
ENDBRANCH   4  15
TORSDOF 5
ENDMDL
MODEL 8
REMARK VINA RESULT:      -8.3      2.612      7.988
REMARK  Name = 
REMARK  5 active torsions:
REMARK  status: ('A' for Active; 'I' for Inactive)
REMARK    1  A    between atoms: O_1  and  C_2
REMARK    2  A    between atoms: C_2  and  C_3
REMARK    3  A    between atoms: N_11  and  C_12
REMARK    4  A    between atoms: C_12  and  C_13
REMARK    5  A    between atoms: C_12  and  C_19
REMARK                            x       y       z     vdW  Elec       q    Type
REMARK                         _______ _______ _______ _____ _____    ______ ____
ROOT
ATOM      1  C   UNL     1       0.574   9.990  19.346  0.00  0.00    +0.000 C 
ATOM      2  C   UNL     1       0.589   8.922  20.447  0.00  0.00    +0.000 C 
ATOM      3  C   UNL     1       1.802   8.005  20.349  0.00  0.00    +0.000 C 
ATOM      4  N   UNL     1       1.818   7.299  19.046  0.00  0.00    +0.000 NA
ATOM      5  C   UNL     1       1.979   8.317  17.993  0.00  0.00    +0.000 C 
ATOM      6  C   UNL     1       0.811   9.314  17.984  0.00  0.00    +0.000 C 
ENDROOT
BRANCH   1   7
ATOM      7  C   UNL     1      -0.693  10.859  19.343  0.00  0.00    +0.000 A 
ATOM      8  C   UNL     1      -0.912  11.779  20.386  0.00  0.00    +0.000 A 
ATOM      9  C   UNL     1      -2.070  12.560  20.436  0.00  0.00    +0.000 A 
ATOM     10  C   UNL     1      -3.039  12.431  19.446  0.00  0.00    +0.000 A 
ATOM     11  C   UNL     1      -2.850  11.526  18.408  0.00  0.00    +0.000 A 
ATOM     12  C   UNL     1      -1.690  10.749  18.357  0.00  0.00    +0.000 A 
ENDBRANCH   1   7
BRANCH   1  13
ATOM     13  O   UNL     1       1.681  10.875  19.604  0.00  0.00    +0.000 OA
ATOM     14  H   UNL     1       1.314  11.672  20.027  0.00  0.00    +0.000 HD
ENDBRANCH   1  13
BRANCH   4  15
ATOM     15  C   UNL     1       2.890   6.255  19.032  0.00  0.00    +0.000 C 
BRANCH  15  16
ATOM     16  C   UNL     1       2.383   4.947  19.663  0.00  0.00    +0.000 A 
ATOM     17  C   UNL     1       2.984   4.395  20.807  0.00  0.00    +0.000 A 
ATOM     18  C   UNL     1       2.503   3.217  21.373  0.00  0.00    +0.000 A 
ATOM     19  C   UNL     1       1.440   2.542  20.782  0.00  0.00    +0.000 A 
ATOM     20  C   UNL     1       0.860   3.046  19.621  0.00  0.00    +0.000 A 
ATOM     21  C   UNL     1       1.322   4.242  19.068  0.00  0.00    +0.000 A 
ENDBRANCH  15  16
BRANCH  15  22
ATOM     22  C   UNL     1       3.570   6.003  17.643  0.00  0.00    +0.000 C 
ATOM     23  C   UNL     1       4.908   6.732  17.445  0.00  0.00    +0.000 C 
ATOM     24  C   UNL     1       5.537   6.039  16.248  0.00  0.00    +0.000 C 
ATOM     25  C   UNL     1       5.152   4.577  16.404  0.00  0.00    +0.000 C 
ATOM     26  C   UNL     1       3.866   4.549  17.235  0.00  0.00    +0.000 C 
ENDBRANCH  15  22
ENDBRANCH   4  15
TORSDOF 5
ENDMDL
MODEL 9
REMARK VINA RESULT:      -8.1      2.732      7.254
REMARK  Name = 
REMARK  5 active torsions:
REMARK  status: ('A' for Active; 'I' for Inactive)
REMARK    1  A    between atoms: O_1  and  C_2
REMARK    2  A    between atoms: C_2  and  C_3
REMARK    3  A    between atoms: N_11  and  C_12
REMARK    4  A    between atoms: C_12  and  C_13
REMARK    5  A    between atoms: C_12  and  C_19
REMARK                            x       y       z     vdW  Elec       q    Type
REMARK                         _______ _______ _______ _____ _____    ______ ____
ROOT
ATOM      1  C   UNL     1       1.170  10.092  19.154  0.00  0.00    +0.000 C 
ATOM      2  C   UNL     1       1.880   9.524  17.918  0.00  0.00    +0.000 C 
ATOM      3  C   UNL     1       1.704   8.016  17.790  0.00  0.00    +0.000 C 
ATOM      4  N   UNL     1       2.261   7.325  18.977  0.00  0.00    +0.000 NA
ATOM      5  C   UNL     1       1.464   7.739  20.145  0.00  0.00    +0.000 C 
ATOM      6  C   UNL     1       1.555   9.253  20.386  0.00  0.00    +0.000 C 
ENDROOT
BRANCH   1   7
ATOM      7  C   UNL     1       1.422  11.590  19.380  0.00  0.00    +0.000 A 
ATOM      8  C   UNL     1       2.141  12.330  18.421  0.00  0.00    +0.000 A 
ATOM      9  C   UNL     1       2.422  13.686  18.609  0.00  0.00    +0.000 A 
ATOM     10  C   UNL     1       1.994  14.331  19.767  0.00  0.00    +0.000 A 
ATOM     11  C   UNL     1       1.287  13.623  20.731  0.00  0.00    +0.000 A 
ATOM     12  C   UNL     1       1.004  12.267  20.539  0.00  0.00    +0.000 A 
ENDBRANCH   1   7
BRANCH   1  13
ATOM     13  O   UNL     1      -0.245   9.939  18.934  0.00  0.00    +0.000 OA
ATOM     14  H   UNL     1      -0.679  10.037  19.800  0.00  0.00    +0.000 HD
ENDBRANCH   1  13
BRANCH   4  15
ATOM     15  C   UNL     1       2.271   5.844  18.760  0.00  0.00    +0.000 C 
BRANCH  15  16
ATOM     16  C   UNL     1       3.548   5.412  18.019  0.00  0.00    +0.000 A 
ATOM     17  C   UNL     1       3.595   4.241  17.245  0.00  0.00    +0.000 A 
ATOM     18  C   UNL     1       4.755   3.872  16.569  0.00  0.00    +0.000 A 
ATOM     19  C   UNL     1       5.907   4.641  16.690  0.00  0.00    +0.000 A 
ATOM     20  C   UNL     1       5.898   5.781  17.491  0.00  0.00    +0.000 A 
ATOM     21  C   UNL     1       4.727   6.168  18.146  0.00  0.00    +0.000 A 
ENDBRANCH  15  16
BRANCH  15  22
ATOM     22  C   UNL     1       2.019   4.971  20.038  0.00  0.00    +0.000 C 
ATOM     23  C   UNL     1       0.956   3.875  19.862  0.00  0.00    +0.000 C 
ATOM     24  C   UNL     1       1.176   2.950  21.047  0.00  0.00    +0.000 C 
ATOM     25  C   UNL     1       2.683   2.929  21.244  0.00  0.00    +0.000 C 
ATOM     26  C   UNL     1       3.219   4.241  20.663  0.00  0.00    +0.000 C 
ENDBRANCH  15  22
ENDBRANCH   4  15
TORSDOF 5
ENDMDL
