MODEL 1
REMARK VINA RESULT:      -8.5      0.000      0.000
REMARK  Name = 
REMARK  5 active torsions:
REMARK  status: ('A' for Active; 'I' for Inactive)
REMARK    1  A    between atoms: C_1  and  C_2
REMARK    2  A    between atoms: C_7  and  C_8
REMARK    3  A    between atoms: C_8  and  N_9
REMARK    4  A    between atoms: C_10  and  C_12
REMARK    5  A    between atoms: N_17  and  C_18
REMARK                            x       y       z     vdW  Elec       q    Type
REMARK                         _______ _______ _______ _____ _____    ______ ____
ROOT
ATOM      1  C   UNL     1       7.355   6.066  18.600  0.00  0.00    +0.000 C 
ATOM      2  C   UNL     1       7.939   4.812  17.962  0.00  0.00    +0.000 C 
ATOM      3  C   UNL     1       7.142   4.370  16.744  0.00  0.00    +0.000 C 
ATOM      4  C   UNL     1       5.627   4.406  16.886  0.00  0.00    +0.000 C 
ATOM      5  O   UNL     1       4.924   3.722  16.143  0.00  0.00    +0.000 OA
ATOM      6  N   UNL     1       5.115   5.359  17.763  0.00  0.00    +0.000 N 
ATOM      7  C   UNL     1       5.898   5.757  18.936  0.00  0.00    +0.000 C 
ENDROOT
BRANCH   6   8
ATOM      8  C   UNL     1       3.678   5.726  17.665  0.00  0.00    +0.000 C 
ATOM      9  C   UNL     1       2.752   4.784  18.450  0.00  0.00    +0.000 C 
ATOM     10  C   UNL     1       2.693   4.975  19.961  0.00  0.00    +0.000 C 
ATOM     11  C   UNL     1       1.769   6.097  20.423  0.00  0.00    +0.000 C 
ATOM     12  C   UNL     1       2.154   7.499  19.972  0.00  0.00    +0.000 C 
ATOM     13  C   UNL     1       2.153   7.699  18.458  0.00  0.00    +0.000 C 
ATOM     14  C   UNL     1       3.453   7.244  17.812  0.00  0.00    +0.000 C 
ENDBRANCH   6   8
BRANCH   1  16
ATOM     15  N   UNL     1       8.236   8.342  18.306  0.00  0.00    +0.000 N 
ATOM     16  C   UNL     1       7.480   7.336  17.753  0.00  0.00    +0.000 C 
ATOM     17  O   UNL     1       6.912   7.483  16.675  0.00  0.00    +0.000 OA
ATOM     18  H   UNL     1       8.502   8.302  19.279  0.00  0.00    +0.000 HD
BRANCH  15  19
ATOM     19  C   UNL     1       8.354   9.619  17.627  0.00  0.00    +0.000 C 
BRANCH  19  26
ATOM     20  C   UNL     1       7.914  12.582  17.104  0.00  0.00    +0.000 C 
ATOM     21  C   UNL     1       8.658  12.076  18.310  0.00  0.00    +0.000 A 
ATOM     22  C   UNL     1       9.206  13.012  19.204  0.00  0.00    +0.000 A 
ATOM     23  C   UNL     1       9.927  12.601  20.326  0.00  0.00    +0.000 A 
ATOM     24  C   UNL     1      10.115  11.246  20.570  0.00  0.00    +0.000 A 
ATOM     25  C   UNL     1       9.581  10.305  19.692  0.00  0.00    +0.000 A 
ATOM     26  C   UNL     1       8.846  10.701  18.558  0.00  0.00    +0.000 A 
ENDBRANCH  19  26
ENDBRANCH  15  19
ENDBRANCH   1  16
TORSDOF 4
ENDMDL
MODEL 2
REMARK VINA RESULT:      -8.4      4.068      6.667
REMARK  Name = 
REMARK  5 active torsions:
REMARK  status: ('A' for Active; 'I' for Inactive)
REMARK    1  A    between atoms: C_1  and  C_2
REMARK    2  A    between atoms: C_7  and  C_8
REMARK    3  A    between atoms: C_8  and  N_9
REMARK    4  A    between atoms: C_10  and  C_12
REMARK    5  A    between atoms: N_17  and  C_18
REMARK                            x       y       z     vdW  Elec       q    Type
REMARK                         _______ _______ _______ _____ _____    ______ ____
ROOT
ATOM      1  C   UNL     1       1.670   4.170  18.942  0.00  0.00    +0.000 C 
ATOM      2  C   UNL     1       1.454   2.978  19.865  0.00  0.00    +0.000 C 
ATOM      3  C   UNL     1       2.704   2.646  20.668  0.00  0.00    +0.000 C 
ATOM      4  C   UNL     1       4.018   2.670  19.900  0.00  0.00    +0.000 C 
ATOM      5  O   UNL     1       4.992   2.054  20.332  0.00  0.00    +0.000 OA
ATOM      6  N   UNL     1       4.080   3.540  18.814  0.00  0.00    +0.000 N 
ATOM      7  C   UNL     1       2.864   3.832  18.050  0.00  0.00    +0.000 C 
ENDROOT
BRANCH   6   8
ATOM      8  C   UNL     1       5.411   3.914  18.270  0.00  0.00    +0.000 C 
ATOM      9  C   UNL     1       5.470   3.897  16.734  0.00  0.00    +0.000 C 
ATOM     10  C   UNL     1       4.845   5.080  16.005  0.00  0.00    +0.000 C 
ATOM     11  C   UNL     1       5.735   6.315  15.921  0.00  0.00    +0.000 C 
ATOM     12  C   UNL     1       6.103   6.959  17.250  0.00  0.00    +0.000 C 
ATOM     13  C   UNL     1       6.906   6.059  18.188  0.00  0.00    +0.000 C 
ATOM     14  C   UNL     1       6.019   5.128  19.000  0.00  0.00    +0.000 C 
ENDBRANCH   6   8
BRANCH   1  16
ATOM     15  N   UNL     1       2.307   6.542  18.863  0.00  0.00    +0.000 N 
ATOM     16  C   UNL     1       1.865   5.510  19.656  0.00  0.00    +0.000 C 
ATOM     17  O   UNL     1       1.690   5.661  20.861  0.00  0.00    +0.000 OA
ATOM     18  H   UNL     1       2.667   6.355  17.938  0.00  0.00    +0.000 HD
BRANCH  15  19
ATOM     19  C   UNL     1       2.603   7.835  19.452  0.00  0.00    +0.000 C 
BRANCH  19  26
ATOM     20  C   UNL     1       1.086   8.862  21.878  0.00  0.00    +0.000 C 
ATOM     21  C   UNL     1       0.711   9.241  20.471  0.00  0.00    +0.000 A 
ATOM     22  C   UNL     1      -0.409  10.067  20.273  0.00  0.00    +0.000 A 
ATOM     23  C   UNL     1      -0.817  10.430  18.989  0.00  0.00    +0.000 A 
ATOM     24  C   UNL     1      -0.115   9.971  17.883  0.00  0.00    +0.000 A 
ATOM     25  C   UNL     1       0.996   9.149  18.062  0.00  0.00    +0.000 A 
ATOM     26  C   UNL     1       1.427   8.776  19.349  0.00  0.00    +0.000 A 
ENDBRANCH  19  26
ENDBRANCH  15  19
ENDBRANCH   1  16
TORSDOF 4
ENDMDL
MODEL 3
REMARK VINA RESULT:      -8.4      4.290      6.500
REMARK  Name = 
REMARK  5 active torsions:
REMARK  status: ('A' for Active; 'I' for Inactive)
REMARK    1  A    between atoms: C_1  and  C_2
REMARK    2  A    between atoms: C_7  and  C_8
REMARK    3  A    between atoms: C_8  and  N_9
REMARK    4  A    between atoms: C_10  and  C_12
REMARK    5  A    between atoms: N_17  and  C_18
REMARK                            x       y       z     vdW  Elec       q    Type
REMARK                         _______ _______ _______ _____ _____    ______ ____
ROOT
ATOM      1  C   UNL     1       1.395   3.529  18.502  0.00  0.00    +0.000 C 
ATOM      2  C   UNL     1       1.413   2.095  19.013  0.00  0.00    +0.000 C 
ATOM      3  C   UNL     1       2.686   1.784  19.789  0.00  0.00    +0.000 C 
ATOM      4  C   UNL     1       3.983   2.296  19.179  0.00  0.00    +0.000 C 
ATOM      5  O   UNL     1       5.055   1.780  19.496  0.00  0.00    +0.000 OA
ATOM      6  N   UNL     1       3.885   3.450  18.407  0.00  0.00    +0.000 N 
ATOM      7  C   UNL     1       2.654   3.718  17.659  0.00  0.00    +0.000 C 
ENDROOT
BRANCH   6   8
ATOM      8  C   UNL     1       5.120   4.224  18.114  0.00  0.00    +0.000 C 
ATOM      9  C   UNL     1       5.854   3.748  16.850  0.00  0.00    +0.000 C 
ATOM     10  C   UNL     1       5.272   4.178  15.509  0.00  0.00    +0.000 C 
ATOM     11  C   UNL     1       5.657   5.588  15.074  0.00  0.00    +0.000 C 
ATOM     12  C   UNL     1       5.169   6.715  15.973  0.00  0.00    +0.000 C 
ATOM     13  C   UNL     1       5.716   6.669  17.398  0.00  0.00    +0.000 C 
ATOM     14  C   UNL     1       4.915   5.741  18.298  0.00  0.00    +0.000 C 
ENDBRANCH   6   8
BRANCH   1  16
ATOM     15  N   UNL     1       1.992   5.754  19.360  0.00  0.00    +0.000 N 
ATOM     16  C   UNL     1       1.283   4.599  19.592  0.00  0.00    +0.000 C 
ATOM     17  O   UNL     1       0.649   4.437  20.630  0.00  0.00    +0.000 OA
ATOM     18  H   UNL     1       2.686   5.786  18.627  0.00  0.00    +0.000 HD
BRANCH  15  19
ATOM     19  C   UNL     1       2.024   6.801  20.364  0.00  0.00    +0.000 C 
BRANCH  19  26
ATOM     20  C   UNL     1       0.429   8.931  21.837  0.00  0.00    +0.000 C 
ATOM     21  C   UNL     1       0.956   9.136  20.442  0.00  0.00    +0.000 A 
ATOM     22  C   UNL     1       0.662  10.342  19.784  0.00  0.00    +0.000 A 
ATOM     23  C   UNL     1       1.104  10.577  18.481  0.00  0.00    +0.000 A 
ATOM     24  C   UNL     1       1.844   9.609  17.815  0.00  0.00    +0.000 A 
ATOM     25  C   UNL     1       2.141   8.406  18.453  0.00  0.00    +0.000 A 
ATOM     26  C   UNL     1       1.709   8.153  19.769  0.00  0.00    +0.000 A 
ENDBRANCH  19  26
ENDBRANCH  15  19
ENDBRANCH   1  16
TORSDOF 4
ENDMDL
MODEL 4
REMARK VINA RESULT:      -8.3      3.963      6.814
REMARK  Name = 
REMARK  5 active torsions:
REMARK  status: ('A' for Active; 'I' for Inactive)
REMARK    1  A    between atoms: C_1  and  C_2
REMARK    2  A    between atoms: C_7  and  C_8
REMARK    3  A    between atoms: C_8  and  N_9
REMARK    4  A    between atoms: C_10  and  C_12
REMARK    5  A    between atoms: N_17  and  C_18
REMARK                            x       y       z     vdW  Elec       q    Type
REMARK                         _______ _______ _______ _____ _____    ______ ____
ROOT
ATOM      1  C   UNL     1       1.755   4.746  19.264  0.00  0.00    +0.000 C 
ATOM      2  C   UNL     1       1.448   3.642  20.266  0.00  0.00    +0.000 C 
ATOM      3  C   UNL     1       2.708   3.123  20.945  0.00  0.00    +0.000 C 
ATOM      4  C   UNL     1       3.909   2.892  20.039  0.00  0.00    +0.000 C 
ATOM      5  O   UNL     1       4.808   2.130  20.395  0.00  0.00    +0.000 OA
ATOM      6  N   UNL     1       3.992   3.703  18.910  0.00  0.00    +0.000 N 
ATOM      7  C   UNL     1       2.763   4.177  18.268  0.00  0.00    +0.000 C 
ENDROOT
BRANCH   6   8
ATOM      8  C   UNL     1       5.296   3.821  18.206  0.00  0.00    +0.000 C 
ATOM      9  C   UNL     1       5.156   3.994  16.686  0.00  0.00    +0.000 C 
ATOM     10  C   UNL     1       4.764   5.378  16.181  0.00  0.00    +0.000 C 
ATOM     11  C   UNL     1       5.919   6.368  16.082  0.00  0.00    +0.000 C 
ATOM     12  C   UNL     1       6.600   6.724  17.396  0.00  0.00    +0.000 C 
ATOM     13  C   UNL     1       7.261   5.545  18.106  0.00  0.00    +0.000 C 
ATOM     14  C   UNL     1       6.277   4.750  18.950  0.00  0.00    +0.000 C 
ENDBRANCH   6   8
BRANCH   1  16
ATOM     15  N   UNL     1       1.393   6.655  20.770  0.00  0.00    +0.000 N 
ATOM     16  C   UNL     1       2.255   6.055  19.883  0.00  0.00    +0.000 C 
ATOM     17  O   UNL     1       3.326   6.573  19.585  0.00  0.00    +0.000 OA
ATOM     18  H   UNL     1       0.432   6.349  20.831  0.00  0.00    +0.000 HD
BRANCH  15  19
ATOM     19  C   UNL     1       1.729   7.940  21.354  0.00  0.00    +0.000 C 
BRANCH  19  26
ATOM     20  C   UNL     1      -0.284   9.556  22.960  0.00  0.00    +0.000 C 
ATOM     21  C   UNL     1      -0.041   9.796  21.495  0.00  0.00    +0.000 A 
ATOM     22  C   UNL     1      -0.805  10.775  20.838  0.00  0.00    +0.000 A 
ATOM     23  C   UNL     1      -0.639  11.023  19.474  0.00  0.00    +0.000 A 
ATOM     24  C   UNL     1       0.291  10.293  18.745  0.00  0.00    +0.000 A 
ATOM     25  C   UNL     1       1.054   9.316  19.381  0.00  0.00    +0.000 A 
ATOM     26  C   UNL     1       0.906   9.055  20.757  0.00  0.00    +0.000 A 
ENDBRANCH  19  26
ENDBRANCH  15  19
ENDBRANCH   1  16
TORSDOF 4
ENDMDL
MODEL 5
REMARK VINA RESULT:      -8.1      4.013      6.830
REMARK  Name = 
REMARK  5 active torsions:
REMARK  status: ('A' for Active; 'I' for Inactive)
REMARK    1  A    between atoms: C_1  and  C_2
REMARK    2  A    between atoms: C_7  and  C_8
REMARK    3  A    between atoms: C_8  and  N_9
REMARK    4  A    between atoms: C_10  and  C_12
REMARK    5  A    between atoms: N_17  and  C_18
REMARK                            x       y       z     vdW  Elec       q    Type
REMARK                         _______ _______ _______ _____ _____    ______ ____
ROOT
ATOM      1  C   UNL     1       1.611   5.138  19.356  0.00  0.00    +0.000 C 
ATOM      2  C   UNL     1       1.165   4.077  20.353  0.00  0.00    +0.000 C 
ATOM      3  C   UNL     1       2.346   3.445  21.076  0.00  0.00    +0.000 C 
ATOM      4  C   UNL     1       3.548   3.090  20.212  0.00  0.00    +0.000 C 
ATOM      5  O   UNL     1       4.356   2.248  20.601  0.00  0.00    +0.000 OA
ATOM      6  N   UNL     1       3.745   3.879  19.081  0.00  0.00    +0.000 N 
ATOM      7  C   UNL     1       2.590   4.465  18.396  0.00  0.00    +0.000 C 
ENDROOT
BRANCH   6   8
ATOM      8  C   UNL     1       5.077   3.864  18.420  0.00  0.00    +0.000 C 
ATOM      9  C   UNL     1       4.998   3.922  16.886  0.00  0.00    +0.000 C 
ATOM     10  C   UNL     1       4.707   5.281  16.260  0.00  0.00    +0.000 C 
ATOM     11  C   UNL     1       5.923   6.190  16.127  0.00  0.00    +0.000 C 
ATOM     12  C   UNL     1       6.582   6.612  17.433  0.00  0.00    +0.000 C 
ATOM     13  C   UNL     1       7.146   5.457  18.258  0.00  0.00    +0.000 C 
ATOM     14  C   UNL     1       6.087   4.791  19.124  0.00  0.00    +0.000 C 
ENDBRANCH   6   8
BRANCH   1  16
ATOM     15  N   UNL     1       1.477   6.965  20.994  0.00  0.00    +0.000 N 
ATOM     16  C   UNL     1       2.216   6.397  19.984  0.00  0.00    +0.000 C 
ATOM     17  O   UNL     1       3.261   6.907  19.593  0.00  0.00    +0.000 OA
ATOM     18  H   UNL     1       0.521   6.679  21.148  0.00  0.00    +0.000 HD
BRANCH  15  19
ATOM     19  C   UNL     1       1.915   8.207  21.605  0.00  0.00    +0.000 C 
BRANCH  19  26
ATOM     20  C   UNL     1       1.038   9.820  19.181  0.00  0.00    +0.000 C 
ATOM     21  C   UNL     1       0.404   9.988  20.535  0.00  0.00    +0.000 A 
ATOM     22  C   UNL     1      -0.602  10.957  20.692  0.00  0.00    +0.000 A 
ATOM     23  C   UNL     1      -1.207  11.173  21.930  0.00  0.00    +0.000 A 
ATOM     24  C   UNL     1      -0.815  10.425  23.033  0.00  0.00    +0.000 A 
ATOM     25  C   UNL     1       0.184   9.463  22.896  0.00  0.00    +0.000 A 
ATOM     26  C   UNL     1       0.802   9.226  21.653  0.00  0.00    +0.000 A 
ENDBRANCH  19  26
ENDBRANCH  15  19
ENDBRANCH   1  16
TORSDOF 4
ENDMDL
MODEL 6
REMARK VINA RESULT:      -8.1      4.196      6.548
REMARK  Name = 
REMARK  5 active torsions:
REMARK  status: ('A' for Active; 'I' for Inactive)
REMARK    1  A    between atoms: C_1  and  C_2
REMARK    2  A    between atoms: C_7  and  C_8
REMARK    3  A    between atoms: C_8  and  N_9
REMARK    4  A    between atoms: C_10  and  C_12
REMARK    5  A    between atoms: N_17  and  C_18
REMARK                            x       y       z     vdW  Elec       q    Type
REMARK                         _______ _______ _______ _____ _____    ______ ____
ROOT
ATOM      1  C   UNL     1       1.566   4.044  19.156  0.00  0.00    +0.000 C 
ATOM      2  C   UNL     1       1.382   2.756  19.947  0.00  0.00    +0.000 C 
ATOM      3  C   UNL     1       2.657   2.345  20.669  0.00  0.00    +0.000 C 
ATOM      4  C   UNL     1       3.947   2.462  19.870  0.00  0.00    +0.000 C 
ATOM      5  O   UNL     1       4.935   1.808  20.201  0.00  0.00    +0.000 OA
ATOM      6  N   UNL     1       3.972   3.448  18.887  0.00  0.00    +0.000 N 
ATOM      7  C   UNL     1       2.733   3.815  18.197  0.00  0.00    +0.000 C 
ENDROOT
BRANCH   6   8
ATOM      8  C   UNL     1       5.286   3.888  18.347  0.00  0.00    +0.000 C 
ATOM      9  C   UNL     1       5.387   3.774  16.818  0.00  0.00    +0.000 C 
ATOM     10  C   UNL     1       4.693   4.854  15.997  0.00  0.00    +0.000 C 
ATOM     11  C   UNL     1       5.488   6.147  15.848  0.00  0.00    +0.000 C 
ATOM     12  C   UNL     1       5.768   6.904  17.138  0.00  0.00    +0.000 C 
ATOM     13  C   UNL     1       6.612   6.135  18.152  0.00  0.00    +0.000 C 
ATOM     14  C   UNL     1       5.778   5.193  19.006  0.00  0.00    +0.000 C 
ENDBRANCH   6   8
BRANCH   1  16
ATOM     15  N   UNL     1       2.210   6.410  19.326  0.00  0.00    +0.000 N 
ATOM     16  C   UNL     1       1.778   5.298  20.009  0.00  0.00    +0.000 C 
ATOM     17  O   UNL     1       1.625   5.316  21.226  0.00  0.00    +0.000 OA
ATOM     18  H   UNL     1       2.553   6.324  18.380  0.00  0.00    +0.000 HD
BRANCH  15  19
ATOM     19  C   UNL     1       2.522   7.630  20.047  0.00  0.00    +0.000 C 
BRANCH  19  26
ATOM     20  C   UNL     1       1.976   9.410  17.643  0.00  0.00    +0.000 C 
ATOM     21  C   UNL     1       1.132   9.454  18.889  0.00  0.00    +0.000 A 
ATOM     22  C   UNL     1       0.080  10.382  18.956  0.00  0.00    +0.000 A 
ATOM     23  C   UNL     1      -0.719  10.484  20.096  0.00  0.00    +0.000 A 
ATOM     24  C   UNL     1      -0.476   9.660  21.188  0.00  0.00    +0.000 A 
ATOM     25  C   UNL     1       0.566   8.736  21.139  0.00  0.00    +0.000 A 
ATOM     26  C   UNL     1       1.379   8.615  19.995  0.00  0.00    +0.000 A 
ENDBRANCH  19  26
ENDBRANCH  15  19
ENDBRANCH   1  16
TORSDOF 4
ENDMDL
MODEL 7
REMARK VINA RESULT:      -8.0      4.172      5.851
REMARK  Name = 
REMARK  5 active torsions:
REMARK  status: ('A' for Active; 'I' for Inactive)
REMARK    1  A    between atoms: C_1  and  C_2
REMARK    2  A    between atoms: C_7  and  C_8
REMARK    3  A    between atoms: C_8  and  N_9
REMARK    4  A    between atoms: C_10  and  C_12
REMARK    5  A    between atoms: N_17  and  C_18
REMARK                            x       y       z     vdW  Elec       q    Type
REMARK                         _______ _______ _______ _____ _____    ______ ____
ROOT
ATOM      1  C   UNL     1       4.602   6.732  18.320  0.00  0.00    +0.000 C 
ATOM      2  C   UNL     1       5.479   6.804  17.078  0.00  0.00    +0.000 C 
ATOM      3  C   UNL     1       5.117   5.730  16.062  0.00  0.00    +0.000 C 
ATOM      4  C   UNL     1       4.861   4.338  16.623  0.00  0.00    +0.000 C 
ATOM      5  O   UNL     1       4.953   3.355  15.888  0.00  0.00    +0.000 OA
ATOM      6  N   UNL     1       4.370   4.281  17.924  0.00  0.00    +0.000 N 
ATOM      7  C   UNL     1       4.746   5.321  18.886  0.00  0.00    +0.000 C 
ENDROOT
BRANCH   6   8
ATOM      8  C   UNL     1       3.731   3.024  18.395  0.00  0.00    +0.000 C 
ATOM      9  C   UNL     1       3.867   2.800  19.909  0.00  0.00    +0.000 C 
ATOM     10  C   UNL     1       2.939   3.604  20.813  0.00  0.00    +0.000 C 
ATOM     11  C   UNL     1       1.537   3.024  20.959  0.00  0.00    +0.000 C 
ATOM     12  C   UNL     1       0.710   2.962  19.682  0.00  0.00    +0.000 C 
ATOM     13  C   UNL     1       1.301   2.075  18.588  0.00  0.00    +0.000 C 
ATOM     14  C   UNL     1       2.347   2.800  17.755  0.00  0.00    +0.000 C 
ENDBRANCH   6   8
BRANCH   1  16
ATOM     15  N   UNL     1       2.849   8.443  18.119  0.00  0.00    +0.000 N 
ATOM     16  C   UNL     1       3.132   7.098  18.092  0.00  0.00    +0.000 C 
ATOM     17  O   UNL     1       2.247   6.262  17.941  0.00  0.00    +0.000 OA
ATOM     18  H   UNL     1       3.531   9.100  18.470  0.00  0.00    +0.000 HD
BRANCH  15  19
ATOM     19  C   UNL     1       1.476   8.899  17.996  0.00  0.00    +0.000 C 
BRANCH  19  26
ATOM     20  C   UNL     1      -0.728  10.963  18.349  0.00  0.00    +0.000 C 
ATOM     21  C   UNL     1      -0.128  10.215  19.509  0.00  0.00    +0.000 A 
ATOM     22  C   UNL     1      -0.577  10.515  20.806  0.00  0.00    +0.000 A 
ATOM     23  C   UNL     1      -0.038   9.871  21.921  0.00  0.00    +0.000 A 
ATOM     24  C   UNL     1       0.959   8.918  21.756  0.00  0.00    +0.000 A 
ATOM     25  C   UNL     1       1.417   8.611  20.477  0.00  0.00    +0.000 A 
ATOM     26  C   UNL     1       0.882   9.247  19.339  0.00  0.00    +0.000 A 
ENDBRANCH  19  26
ENDBRANCH  15  19
ENDBRANCH   1  16
TORSDOF 4
ENDMDL
MODEL 8
REMARK VINA RESULT:      -7.8      4.162      5.691
REMARK  Name = 
REMARK  5 active torsions:
REMARK  status: ('A' for Active; 'I' for Inactive)
REMARK    1  A    between atoms: C_1  and  C_2
REMARK    2  A    between atoms: C_7  and  C_8
REMARK    3  A    between atoms: C_8  and  N_9
REMARK    4  A    between atoms: C_10  and  C_12
REMARK    5  A    between atoms: N_17  and  C_18
REMARK                            x       y       z     vdW  Elec       q    Type
REMARK                         _______ _______ _______ _____ _____    ______ ____
ROOT
ATOM      1  C   UNL     1       4.613   6.739  18.336  0.00  0.00    +0.000 C 
ATOM      2  C   UNL     1       5.470   6.824  17.081  0.00  0.00    +0.000 C 
ATOM      3  C   UNL     1       5.097   5.754  16.064  0.00  0.00    +0.000 C 
ATOM      4  C   UNL     1       4.859   4.357  16.620  0.00  0.00    +0.000 C 
ATOM      5  O   UNL     1       4.945   3.379  15.878  0.00  0.00    +0.000 OA
ATOM      6  N   UNL     1       4.390   4.289  17.929  0.00  0.00    +0.000 N 
ATOM      7  C   UNL     1       4.775   5.325  18.891  0.00  0.00    +0.000 C 
ENDROOT
BRANCH   6   8
ATOM      8  C   UNL     1       3.766   3.025  18.402  0.00  0.00    +0.000 C 
ATOM      9  C   UNL     1       3.878   2.820  19.921  0.00  0.00    +0.000 C 
ATOM     10  C   UNL     1       2.919   3.617  20.798  0.00  0.00    +0.000 C 
ATOM     11  C   UNL     1       1.525   3.012  20.925  0.00  0.00    +0.000 C 
ATOM     12  C   UNL     1       0.723   2.920  19.635  0.00  0.00    +0.000 C 
ATOM     13  C   UNL     1       1.351   2.032  18.562  0.00  0.00    +0.000 C 
ATOM     14  C   UNL     1       2.398   2.768  17.740  0.00  0.00    +0.000 C 
ENDBRANCH   6   8
BRANCH   1  16
ATOM     15  N   UNL     1       2.863   8.442  18.054  0.00  0.00    +0.000 N 
ATOM     16  C   UNL     1       3.138   7.098  18.134  0.00  0.00    +0.000 C 
ATOM     17  O   UNL     1       2.242   6.260  18.092  0.00  0.00    +0.000 OA
ATOM     18  H   UNL     1       3.563   9.121  18.320  0.00  0.00    +0.000 HD
BRANCH  15  19
ATOM     19  C   UNL     1       1.490   8.899  17.945  0.00  0.00    +0.000 C 
BRANCH  19  26
ATOM     20  C   UNL     1       0.987   8.167  20.853  0.00  0.00    +0.000 C 
ATOM     21  C   UNL     1       0.907   9.583  20.351  0.00  0.00    +0.000 A 
ATOM     22  C   UNL     1       0.544  10.597  21.254  0.00  0.00    +0.000 A 
ATOM     23  C   UNL     1       0.429  11.924  20.838  0.00  0.00    +0.000 A 
ATOM     24  C   UNL     1       0.673  12.258  19.512  0.00  0.00    +0.000 A 
ATOM     25  C   UNL     1       1.031  11.264  18.603  0.00  0.00    +0.000 A 
ATOM     26  C   UNL     1       1.157   9.920  19.005  0.00  0.00    +0.000 A 
ENDBRANCH  19  26
ENDBRANCH  15  19
ENDBRANCH   1  16
TORSDOF 4
ENDMDL
MODEL 9
REMARK VINA RESULT:      -7.8      3.849      5.130
REMARK  Name = 
REMARK  5 active torsions:
REMARK  status: ('A' for Active; 'I' for Inactive)
REMARK    1  A    between atoms: C_1  and  C_2
REMARK    2  A    between atoms: C_7  and  C_8
REMARK    3  A    between atoms: C_8  and  N_9
REMARK    4  A    between atoms: C_10  and  C_12
REMARK    5  A    between atoms: N_17  and  C_18
REMARK                            x       y       z     vdW  Elec       q    Type
REMARK                         _______ _______ _______ _____ _____    ______ ____
ROOT
ATOM      1  C   UNL     1       6.275   5.647  18.318  0.00  0.00    +0.000 C 
ATOM      2  C   UNL     1       7.398   5.302  17.349  0.00  0.00    +0.000 C 
ATOM      3  C   UNL     1       6.869   4.696  16.057  0.00  0.00    +0.000 C 
ATOM      4  C   UNL     1       5.770   3.654  16.208  0.00  0.00    +0.000 C 
ATOM      5  O   UNL     1       5.562   2.846  15.303  0.00  0.00    +0.000 OA
ATOM      6  N   UNL     1       4.944   3.789  17.321  0.00  0.00    +0.000 N 
ATOM      7  C   UNL     1       5.483   4.363  18.557  0.00  0.00    +0.000 C 
ENDROOT
BRANCH   6   8
ATOM      8  C   UNL     1       3.638   3.080  17.335  0.00  0.00    +0.000 C 
ATOM      9  C   UNL     1       3.599   1.889  18.306  0.00  0.00    +0.000 C 
ATOM     10  C   UNL     1       3.436   2.210  19.787  0.00  0.00    +0.000 C 
ATOM     11  C   UNL     1       1.999   2.477  20.223  0.00  0.00    +0.000 C 
ATOM     12  C   UNL     1       1.330   3.690  19.591  0.00  0.00    +0.000 C 
ATOM     13  C   UNL     1       1.185   3.613  18.073  0.00  0.00    +0.000 C 
ATOM     14  C   UNL     1       2.445   4.057  17.346  0.00  0.00    +0.000 C 
ENDBRANCH   6   8
BRANCH   1  16
ATOM     15  N   UNL     1       4.054   6.698  18.268  0.00  0.00    +0.000 N 
ATOM     16  C   UNL     1       5.365   6.793  17.866  0.00  0.00    +0.000 C 
ATOM     17  O   UNL     1       5.749   7.715  17.154  0.00  0.00    +0.000 OA
ATOM     18  H   UNL     1       3.700   5.831  18.649  0.00  0.00    +0.000 HD
BRANCH  15  19
ATOM     19  C   UNL     1       3.086   7.685  17.828  0.00  0.00    +0.000 C 
BRANCH  19  26
ATOM     20  C   UNL     1       1.549  10.309  17.844  0.00  0.00    +0.000 C 
ATOM     21  C   UNL     1       1.450   9.308  18.964  0.00  0.00    +0.000 A 
ATOM     22  C   UNL     1       0.650   9.620  20.076  0.00  0.00    +0.000 A 
ATOM     23  C   UNL     1       0.542   8.741  21.154  0.00  0.00    +0.000 A 
ATOM     24  C   UNL     1       1.234   7.537  21.139  0.00  0.00    +0.000 A 
ATOM     25  C   UNL     1       2.034   7.214  20.045  0.00  0.00    +0.000 A 
ATOM     26  C   UNL     1       2.152   8.085  18.945  0.00  0.00    +0.000 A 
ENDBRANCH  19  26
ENDBRANCH  15  19
ENDBRANCH   1  16
TORSDOF 4
ENDMDL
