MODEL 1
REMARK VINA RESULT:      -7.9      0.000      0.000
REMARK  Name = 
REMARK  2 active torsions:
REMARK  status: ('A' for Active; 'I' for Inactive)
REMARK    1  A    between atoms: C_1  and  C_2
REMARK    2  A    between atoms: C_6  and  C_8
REMARK                            x       y       z     vdW  Elec       q    Type
REMARK                         _______ _______ _______ _____ _____    ______ ____
ROOT
ATOM      1  C   UNL     1      -0.576  11.062  18.125  0.00  0.00    +0.000 C 
ATOM      2  C   UNL     1       0.719  10.950  18.941  0.00  0.00    +0.000 C 
ATOM      3  C   UNL     1       1.795  10.172  18.205  0.00  0.00    +0.000 C 
ATOM      4  C   UNL     1       1.507   8.687  18.261  0.00  0.00    +0.000 C 
ATOM      5  N   UNL     1       1.460   8.146  19.628  0.00  0.00    +0.000 N 
ATOM      6  C   UNL     1       2.030   6.891  19.964  0.00  0.00    +0.000 C 
ATOM      7  O   UNL     1       2.244   6.486  21.109  0.00  0.00    +0.000 OA
ATOM      8  C   UNL     1       0.814   8.996  20.614  0.00  0.00    +0.000 A 
ATOM      9  C   UNL     1       0.498   8.539  21.906  0.00  0.00    +0.000 A 
ATOM     10  C   UNL     1      -0.125   9.364  22.852  0.00  0.00    +0.000 A 
ATOM     11  C   UNL     1      -0.459  10.670  22.531  0.00  0.00    +0.000 A 
ATOM     12  C   UNL     1      -0.173  11.149  21.259  0.00  0.00    +0.000 A 
ATOM     13  C   UNL     1       0.455  10.330  20.296  0.00  0.00    +0.000 A 
ENDROOT
BRANCH   6  14
ATOM     14  C   UNL     1       2.508   5.953  18.899  0.00  0.00    +0.000 A 
ATOM     15  C   UNL     1       1.726   4.836  18.590  0.00  0.00    +0.000 A 
ATOM     16  C   UNL     1       2.199   3.935  17.651  0.00  0.00    +0.000 A 
ATOM     17  N   UNL     1       3.402   4.050  17.049  0.00  0.00    +0.000 NA
ATOM     18  C   UNL     1       4.136   5.152  17.347  0.00  0.00    +0.000 A 
ATOM     19  N   UNL     1       5.466   5.234  16.851  0.00  0.00    +0.000 N 
ATOM     20  C   UNL     1       6.119   4.316  16.070  0.00  0.00    +0.000 A 
ATOM     21  N   UNL     1       7.368   4.682  15.884  0.00  0.00    +0.000 NA
ATOM     22  C   UNL     1       7.448   5.848  16.585  0.00  0.00    +0.000 A 
ATOM     23  N   UNL     1       6.325   6.233  17.194  0.00  0.00    +0.000 NA
ATOM     24  C   UNL     1       3.688   6.160  18.190  0.00  0.00    +0.000 A 
ENDBRANCH   6  14
TORSDOF 1
ENDMDL
MODEL 2
REMARK VINA RESULT:      -7.7      1.912      3.923
REMARK  Name = 
REMARK  2 active torsions:
REMARK  status: ('A' for Active; 'I' for Inactive)
REMARK    1  A    between atoms: C_1  and  C_2
REMARK    2  A    between atoms: C_6  and  C_8
REMARK                            x       y       z     vdW  Elec       q    Type
REMARK                         _______ _______ _______ _____ _____    ______ ____
ROOT
ATOM      1  C   UNL     1       0.366   9.631  23.421  0.00  0.00    +0.000 C 
ATOM      2  C   UNL     1      -0.437   9.480  22.122  0.00  0.00    +0.000 C 
ATOM      3  C   UNL     1      -0.216   8.131  21.464  0.00  0.00    +0.000 C 
ATOM      4  C   UNL     1       1.125   8.097  20.763  0.00  0.00    +0.000 C 
ATOM      5  N   UNL     1       1.262   9.106  19.702  0.00  0.00    +0.000 N 
ATOM      6  C   UNL     1       1.887   8.819  18.462  0.00  0.00    +0.000 C 
ATOM      7  O   UNL     1       1.826   9.522  17.450  0.00  0.00    +0.000 OA
ATOM      8  C   UNL     1       0.691  10.408  20.002  0.00  0.00    +0.000 A 
ATOM      9  C   UNL     1       0.924  11.535  19.193  0.00  0.00    +0.000 A 
ATOM     10  C   UNL     1       0.370  12.787  19.488  0.00  0.00    +0.000 A 
ATOM     11  C   UNL     1      -0.427  12.954  20.608  0.00  0.00    +0.000 A 
ATOM     12  C   UNL     1      -0.666  11.865  21.438  0.00  0.00    +0.000 A 
ATOM     13  C   UNL     1      -0.116  10.598  21.152  0.00  0.00    +0.000 A 
ENDROOT
BRANCH   6  14
ATOM     14  C   UNL     1       2.639   7.540  18.256  0.00  0.00    +0.000 A 
ATOM     15  C   UNL     1       3.786   7.558  17.456  0.00  0.00    +0.000 A 
ATOM     16  C   UNL     1       4.444   6.365  17.214  0.00  0.00    +0.000 A 
ATOM     17  N   UNL     1       4.011   5.170  17.671  0.00  0.00    +0.000 NA
ATOM     18  C   UNL     1       2.909   5.177  18.462  0.00  0.00    +0.000 A 
ATOM     19  N   UNL     1       2.337   3.931  18.839  0.00  0.00    +0.000 N 
ATOM     20  C   UNL     1       2.782   2.678  18.503  0.00  0.00    +0.000 A 
ATOM     21  N   UNL     1       1.951   1.764  18.950  0.00  0.00    +0.000 NA
ATOM     22  C   UNL     1       0.985   2.507  19.560  0.00  0.00    +0.000 A 
ATOM     23  N   UNL     1       1.166   3.829  19.523  0.00  0.00    +0.000 NA
ATOM     24  C   UNL     1       2.256   6.340  18.848  0.00  0.00    +0.000 A 
ENDBRANCH   6  14
TORSDOF 1
ENDMDL
MODEL 3
REMARK VINA RESULT:      -7.6      2.433      7.567
REMARK  Name = 
REMARK  2 active torsions:
REMARK  status: ('A' for Active; 'I' for Inactive)
REMARK    1  A    between atoms: C_1  and  C_2
REMARK    2  A    between atoms: C_6  and  C_8
REMARK                            x       y       z     vdW  Elec       q    Type
REMARK                         _______ _______ _______ _____ _____    ______ ____
ROOT
ATOM      1  C   UNL     1       0.914   2.926  20.681  0.00  0.00    +0.000 C 
ATOM      2  C   UNL     1       2.297   3.589  20.729  0.00  0.00    +0.000 C 
ATOM      3  C   UNL     1       2.234   5.009  21.260  0.00  0.00    +0.000 C 
ATOM      4  C   UNL     1       1.704   5.949  20.198  0.00  0.00    +0.000 C 
ATOM      5  N   UNL     1       2.530   5.993  18.983  0.00  0.00    +0.000 N 
ATOM      6  C   UNL     1       2.805   7.206  18.300  0.00  0.00    +0.000 C 
ATOM      7  O   UNL     1       3.670   7.359  17.434  0.00  0.00    +0.000 OA
ATOM      8  C   UNL     1       3.066   4.716  18.545  0.00  0.00    +0.000 A 
ATOM      9  C   UNL     1       3.690   4.551  17.295  0.00  0.00    +0.000 A 
ATOM     10  C   UNL     1       4.205   3.316  16.879  0.00  0.00    +0.000 A 
ATOM     11  C   UNL     1       4.103   2.204  17.699  0.00  0.00    +0.000 A 
ATOM     12  C   UNL     1       3.480   2.328  18.935  0.00  0.00    +0.000 A 
ATOM     13  C   UNL     1       2.958   3.565  19.366  0.00  0.00    +0.000 A 
ENDROOT
BRANCH   6  14
ATOM     14  C   UNL     1       2.083   8.469  18.653  0.00  0.00    +0.000 A 
ATOM     15  C   UNL     1       2.199   9.569  17.797  0.00  0.00    +0.000 A 
ATOM     16  C   UNL     1       1.584  10.755  18.155  0.00  0.00    +0.000 A 
ATOM     17  N   UNL     1       0.914  10.926  19.316  0.00  0.00    +0.000 NA
ATOM     18  C   UNL     1       0.795   9.842  20.122  0.00  0.00    +0.000 A 
ATOM     19  N   UNL     1       0.229  10.017  21.415  0.00  0.00    +0.000 N 
ATOM     20  C   UNL     1      -0.241  11.182  21.964  0.00  0.00    +0.000 A 
ATOM     21  N   UNL     1      -0.603  10.984  23.212  0.00  0.00    +0.000 NA
ATOM     22  C   UNL     1      -0.329   9.662  23.399  0.00  0.00    +0.000 A 
ATOM     23  N   UNL     1       0.180   9.024  22.344  0.00  0.00    +0.000 NA
ATOM     24  C   UNL     1       1.283   8.586  19.786  0.00  0.00    +0.000 A 
ENDBRANCH   6  14
TORSDOF 1
ENDMDL
MODEL 4
REMARK VINA RESULT:      -7.6      2.593      7.663
REMARK  Name = 
REMARK  2 active torsions:
REMARK  status: ('A' for Active; 'I' for Inactive)
REMARK    1  A    between atoms: C_1  and  C_2
REMARK    2  A    between atoms: C_6  and  C_8
REMARK                            x       y       z     vdW  Elec       q    Type
REMARK                         _______ _______ _______ _____ _____    ______ ____
ROOT
ATOM      1  C   UNL     1       1.080   2.944  20.066  0.00  0.00    +0.000 C 
ATOM      2  C   UNL     1       2.316   3.808  20.349  0.00  0.00    +0.000 C 
ATOM      3  C   UNL     1       1.965   5.089  21.084  0.00  0.00    +0.000 C 
ATOM      4  C   UNL     1       1.350   6.094  20.134  0.00  0.00    +0.000 C 
ATOM      5  N   UNL     1       2.237   6.478  19.026  0.00  0.00    +0.000 N 
ATOM      6  C   UNL     1       2.337   7.817  18.569  0.00  0.00    +0.000 C 
ATOM      7  O   UNL     1       3.219   8.254  17.825  0.00  0.00    +0.000 OA
ATOM      8  C   UNL     1       3.020   5.398  18.451  0.00  0.00    +0.000 A 
ATOM      9  C   UNL     1       3.748   5.552  17.257  0.00  0.00    +0.000 A 
ATOM     10  C   UNL     1       4.502   4.507  16.707  0.00  0.00    +0.000 A 
ATOM     11  C   UNL     1       4.543   3.271  17.331  0.00  0.00    +0.000 A 
ATOM     12  C   UNL     1       3.825   3.080  18.505  0.00  0.00    +0.000 A 
ATOM     13  C   UNL     1       3.062   4.124  19.070  0.00  0.00    +0.000 A 
ENDROOT
BRANCH   6  14
ATOM     14  C   UNL     1       1.379   8.866  19.041  0.00  0.00    +0.000 A 
ATOM     15  C   UNL     1       1.477   9.317  20.361  0.00  0.00    +0.000 A 
ATOM     16  C   UNL     1       0.551  10.240  20.815  0.00  0.00    +0.000 A 
ATOM     17  N   UNL     1      -0.476  10.697  20.066  0.00  0.00    +0.000 NA
ATOM     18  C   UNL     1      -0.540  10.263  18.782  0.00  0.00    +0.000 A 
ATOM     19  N   UNL     1      -1.683  10.602  18.009  0.00  0.00    +0.000 N 
ATOM     20  C   UNL     1      -2.762  11.349  18.406  0.00  0.00    +0.000 A 
ATOM     21  N   UNL     1      -3.672  11.375  17.458  0.00  0.00    +0.000 NA
ATOM     22  C   UNL     1      -3.110  10.613  16.478  0.00  0.00    +0.000 A 
ATOM     23  N   UNL     1      -1.903  10.115  16.757  0.00  0.00    +0.000 NA
ATOM     24  C   UNL     1       0.412   9.428  18.212  0.00  0.00    +0.000 A 
ENDBRANCH   6  14
TORSDOF 1
ENDMDL
MODEL 5
REMARK VINA RESULT:      -7.6      2.185      3.944
REMARK  Name = 
REMARK  2 active torsions:
REMARK  status: ('A' for Active; 'I' for Inactive)
REMARK    1  A    between atoms: C_1  and  C_2
REMARK    2  A    between atoms: C_6  and  C_8
REMARK                            x       y       z     vdW  Elec       q    Type
REMARK                         _______ _______ _______ _____ _____    ______ ____
ROOT
ATOM      1  C   UNL     1       0.012   9.870  23.293  0.00  0.00    +0.000 C 
ATOM      2  C   UNL     1      -0.691   9.526  21.973  0.00  0.00    +0.000 C 
ATOM      3  C   UNL     1      -0.314   8.147  21.464  0.00  0.00    +0.000 C 
ATOM      4  C   UNL     1       1.067   8.170  20.845  0.00  0.00    +0.000 C 
ATOM      5  N   UNL     1       1.185   9.085  19.700  0.00  0.00    +0.000 N 
ATOM      6  C   UNL     1       1.911   8.741  18.530  0.00  0.00    +0.000 C 
ATOM      7  O   UNL     1       1.855   9.339  17.453  0.00  0.00    +0.000 OA
ATOM      8  C   UNL     1       0.488  10.352  19.838  0.00  0.00    +0.000 A 
ATOM      9  C   UNL     1       0.675  11.415  18.936  0.00  0.00    +0.000 A 
ATOM     10  C   UNL     1      -0.001  12.634  19.075  0.00  0.00    +0.000 A 
ATOM     11  C   UNL     1      -0.879  12.831  20.128  0.00  0.00    +0.000 A 
ATOM     12  C   UNL     1      -1.078  11.807  21.046  0.00  0.00    +0.000 A 
ATOM     13  C   UNL     1      -0.404  10.574  20.917  0.00  0.00    +0.000 A 
ENDROOT
BRANCH   6  14
ATOM     14  C   UNL     1       2.780   7.523  18.493  0.00  0.00    +0.000 A 
ATOM     15  C   UNL     1       3.690   7.381  17.441  0.00  0.00    +0.000 A 
ATOM     16  C   UNL     1       4.448   6.225  17.372  0.00  0.00    +0.000 A 
ATOM     17  N   UNL     1       4.324   5.199  18.243  0.00  0.00    +0.000 NA
ATOM     18  C   UNL     1       3.451   5.366  19.268  0.00  0.00    +0.000 A 
ATOM     19  N   UNL     1       3.182   4.258  20.116  0.00  0.00    +0.000 N 
ATOM     20  C   UNL     1       3.723   3.000  20.035  0.00  0.00    +0.000 A 
ATOM     21  N   UNL     1       3.170   2.208  20.926  0.00  0.00    +0.000 NA
ATOM     22  C   UNL     1       2.272   3.028  21.543  0.00  0.00    +0.000 A 
ATOM     23  N   UNL     1       2.234   4.283  21.092  0.00  0.00    +0.000 NA
ATOM     24  C   UNL     1       2.736   6.538  19.476  0.00  0.00    +0.000 A 
ENDBRANCH   6  14
TORSDOF 1
ENDMDL
MODEL 6
REMARK VINA RESULT:      -7.6      1.561      2.677
REMARK  Name = 
REMARK  2 active torsions:
REMARK  status: ('A' for Active; 'I' for Inactive)
REMARK    1  A    between atoms: C_1  and  C_2
REMARK    2  A    between atoms: C_6  and  C_8
REMARK                            x       y       z     vdW  Elec       q    Type
REMARK                         _______ _______ _______ _____ _____    ______ ____
ROOT
ATOM      1  C   UNL     1       0.536   9.469  23.352  0.00  0.00    +0.000 C 
ATOM      2  C   UNL     1      -0.286   9.447  22.057  0.00  0.00    +0.000 C 
ATOM      3  C   UNL     1      -0.225   8.100  21.361  0.00  0.00    +0.000 C 
ATOM      4  C   UNL     1       1.099   7.932  20.648  0.00  0.00    +0.000 C 
ATOM      5  N   UNL     1       1.345   8.948  19.614  0.00  0.00    +0.000 N 
ATOM      6  C   UNL     1       1.926   8.625  18.360  0.00  0.00    +0.000 C 
ATOM      7  O   UNL     1       1.940   9.358  17.368  0.00  0.00    +0.000 OA
ATOM      8  C   UNL     1       0.929  10.298  19.953  0.00  0.00    +0.000 A 
ATOM      9  C   UNL     1       1.285  11.412  19.172  0.00  0.00    +0.000 A 
ATOM     10  C   UNL     1       0.880  12.712  19.505  0.00  0.00    +0.000 A 
ATOM     11  C   UNL     1       0.114  12.937  20.637  0.00  0.00    +0.000 A 
ATOM     12  C   UNL     1      -0.244  11.861  21.439  0.00  0.00    +0.000 A 
ATOM     13  C   UNL     1       0.156  10.547  21.115  0.00  0.00    +0.000 A 
ENDROOT
BRANCH   6  14
ATOM     14  C   UNL     1       2.525   7.275  18.114  0.00  0.00    +0.000 A 
ATOM     15  C   UNL     1       1.677   6.163  18.073  0.00  0.00    +0.000 A 
ATOM     16  C   UNL     1       2.237   4.909  17.909  0.00  0.00    +0.000 A 
ATOM     17  N   UNL     1       3.568   4.691  17.834  0.00  0.00    +0.000 NA
ATOM     18  C   UNL     1       4.372   5.784  17.854  0.00  0.00    +0.000 A 
ATOM     19  N   UNL     1       5.778   5.590  17.927  0.00  0.00    +0.000 N 
ATOM     20  C   UNL     1       6.450   4.396  17.967  0.00  0.00    +0.000 A 
ATOM     21  N   UNL     1       7.738   4.602  18.130  0.00  0.00    +0.000 NA
ATOM     22  C   UNL     1       7.819   5.961  18.194  0.00  0.00    +0.000 A 
ATOM     23  N   UNL     1       6.661   6.614  18.078  0.00  0.00    +0.000 NA
ATOM     24  C   UNL     1       3.887   7.085  17.901  0.00  0.00    +0.000 A 
ENDBRANCH   6  14
TORSDOF 1
ENDMDL
MODEL 7
REMARK VINA RESULT:      -7.4      1.524      2.661
REMARK  Name = 
REMARK  2 active torsions:
REMARK  status: ('A' for Active; 'I' for Inactive)
REMARK    1  A    between atoms: C_1  and  C_2
REMARK    2  A    between atoms: C_6  and  C_8
REMARK                            x       y       z     vdW  Elec       q    Type
REMARK                         _______ _______ _______ _____ _____    ______ ____
ROOT
ATOM      1  C   UNL     1       0.277   9.644  23.233  0.00  0.00    +0.000 C 
ATOM      2  C   UNL     1      -0.429   9.335  21.906  0.00  0.00    +0.000 C 
ATOM      3  C   UNL     1      -0.148   7.924  21.422  0.00  0.00    +0.000 C 
ATOM      4  C   UNL     1       1.241   7.836  20.825  0.00  0.00    +0.000 C 
ATOM      5  N   UNL     1       1.444   8.723  19.670  0.00  0.00    +0.000 N 
ATOM      6  C   UNL     1       2.160   8.309  18.517  0.00  0.00    +0.000 C 
ATOM      7  O   UNL     1       2.165   8.894  17.431  0.00  0.00    +0.000 OA
ATOM      8  C   UNL     1       0.840  10.040  19.780  0.00  0.00    +0.000 A 
ATOM      9  C   UNL     1       1.119  11.073  18.867  0.00  0.00    +0.000 A 
ATOM     10  C   UNL     1       0.534  12.340  18.979  0.00  0.00    +0.000 A 
ATOM     11  C   UNL     1      -0.344  12.617  20.015  0.00  0.00    +0.000 A 
ATOM     12  C   UNL     1      -0.631  11.623  20.943  0.00  0.00    +0.000 A 
ATOM     13  C   UNL     1      -0.049  10.342  20.842  0.00  0.00    +0.000 A 
ENDROOT
BRANCH   6  14
ATOM     14  C   UNL     1       2.937   7.030  18.511  0.00  0.00    +0.000 A 
ATOM     15  C   UNL     1       2.843   6.183  19.620  0.00  0.00    +0.000 A 
ATOM     16  C   UNL     1       3.610   5.032  19.642  0.00  0.00    +0.000 A 
ATOM     17  N   UNL     1       4.485   4.701  18.667  0.00  0.00    +0.000 NA
ATOM     18  C   UNL     1       4.545   5.524  17.590  0.00  0.00    +0.000 A 
ATOM     19  N   UNL     1       5.555   5.294  16.617  0.00  0.00    +0.000 N 
ATOM     20  C   UNL     1       6.502   4.302  16.621  0.00  0.00    +0.000 A 
ATOM     21  N   UNL     1       7.329   4.456  15.611  0.00  0.00    +0.000 NA
ATOM     22  C   UNL     1       6.854   5.578  15.002  0.00  0.00    +0.000 A 
ATOM     23  N   UNL     1       5.780   6.132  15.568  0.00  0.00    +0.000 NA
ATOM     24  C   UNL     1       3.729   6.637  17.436  0.00  0.00    +0.000 A 
ENDBRANCH   6  14
TORSDOF 1
ENDMDL
MODEL 8
REMARK VINA RESULT:      -7.4      2.535      3.803
REMARK  Name = 
REMARK  2 active torsions:
REMARK  status: ('A' for Active; 'I' for Inactive)
REMARK    1  A    between atoms: C_1  and  C_2
REMARK    2  A    between atoms: C_6  and  C_8
REMARK                            x       y       z     vdW  Elec       q    Type
REMARK                         _______ _______ _______ _____ _____    ______ ____
ROOT
ATOM      1  C   UNL     1      -3.037  11.492  18.501  0.00  0.00    +0.000 C 
ATOM      2  C   UNL     1      -1.714  12.040  19.050  0.00  0.00    +0.000 C 
ATOM      3  C   UNL     1      -0.508  11.419  18.368  0.00  0.00    +0.000 C 
ATOM      4  C   UNL     1      -0.267  10.019  18.891  0.00  0.00    +0.000 C 
ATOM      5  N   UNL     1      -0.003   9.967  20.336  0.00  0.00    +0.000 N 
ATOM      6  C   UNL     1       0.989   9.118  20.893  0.00  0.00    +0.000 C 
ATOM      7  O   UNL     1       1.431   9.192  22.042  0.00  0.00    +0.000 OA
ATOM      8  C   UNL     1      -0.807  10.861  21.151  0.00  0.00    +0.000 A 
ATOM      9  C   UNL     1      -0.831  10.780  22.556  0.00  0.00    +0.000 A 
ATOM     10  C   UNL     1      -1.609  11.646  23.335  0.00  0.00    +0.000 A 
ATOM     11  C   UNL     1      -2.395  12.615  22.733  0.00  0.00    +0.000 A 
ATOM     12  C   UNL     1      -2.406  12.713  21.347  0.00  0.00    +0.000 A 
ATOM     13  C   UNL     1      -1.627  11.849  20.550  0.00  0.00    +0.000 A 
ENDROOT
BRANCH   6  14
ATOM     14  C   UNL     1       1.659   8.069  20.061  0.00  0.00    +0.000 A 
ATOM     15  C   UNL     1       2.214   8.442  18.833  0.00  0.00    +0.000 A 
ATOM     16  C   UNL     1       2.777   7.461  18.035  0.00  0.00    +0.000 A 
ATOM     17  N   UNL     1       2.779   6.149  18.357  0.00  0.00    +0.000 NA
ATOM     18  C   UNL     1       2.255   5.811  19.563  0.00  0.00    +0.000 A 
ATOM     19  N   UNL     1       2.103   4.432  19.873  0.00  0.00    +0.000 N 
ATOM     20  C   UNL     1       2.443   3.362  19.087  0.00  0.00    +0.000 A 
ATOM     21  N   UNL     1       2.071   2.239  19.659  0.00  0.00    +0.000 NA
ATOM     22  C   UNL     1       1.488   2.668  20.814  0.00  0.00    +0.000 A 
ATOM     23  N   UNL     1       1.477   3.990  20.997  0.00  0.00    +0.000 NA
ATOM     24  C   UNL     1       1.773   6.744  20.472  0.00  0.00    +0.000 A 
ENDBRANCH   6  14
TORSDOF 1
ENDMDL
MODEL 9
REMARK VINA RESULT:      -7.3      2.059      7.657
REMARK  Name = 
REMARK  2 active torsions:
REMARK  status: ('A' for Active; 'I' for Inactive)
REMARK    1  A    between atoms: C_1  and  C_2
REMARK    2  A    between atoms: C_6  and  C_8
REMARK                            x       y       z     vdW  Elec       q    Type
REMARK                         _______ _______ _______ _____ _____    ______ ____
ROOT
ATOM      1  C   UNL     1       2.333   2.601  17.504  0.00  0.00    +0.000 C 
ATOM      2  C   UNL     1       3.332   3.434  18.319  0.00  0.00    +0.000 C 
ATOM      3  C   UNL     1       2.639   4.360  19.301  0.00  0.00    +0.000 C 
ATOM      4  C   UNL     1       2.063   5.561  18.582  0.00  0.00    +0.000 C 
ATOM      5  N   UNL     1       3.073   6.371  17.885  0.00  0.00    +0.000 N 
ATOM      6  C   UNL     1       3.039   7.789  17.891  0.00  0.00    +0.000 C 
ATOM      7  O   UNL     1       3.964   8.528  17.545  0.00  0.00    +0.000 OA
ATOM      8  C   UNL     1       4.120   5.621  17.213  0.00  0.00    +0.000 A 
ATOM      9  C   UNL     1       5.030   6.229  16.329  0.00  0.00    +0.000 A 
ATOM     10  C   UNL     1       6.038   5.499  15.684  0.00  0.00    +0.000 A 
ATOM     11  C   UNL     1       6.160   4.136  15.897  0.00  0.00    +0.000 A 
ATOM     12  C   UNL     1       5.269   3.501  16.753  0.00  0.00    +0.000 A 
ATOM     13  C   UNL     1       4.250   4.223  17.409  0.00  0.00    +0.000 A 
ENDROOT
BRANCH   6  14
ATOM     14  C   UNL     1       1.848   8.529  18.417  0.00  0.00    +0.000 A 
ATOM     15  C   UNL     1       1.065   9.262  17.520  0.00  0.00    +0.000 A 
ATOM     16  C   UNL     1       0.002   9.997  18.016  0.00  0.00    +0.000 A 
ATOM     17  N   UNL     1      -0.294  10.085  19.331  0.00  0.00    +0.000 NA
ATOM     18  C   UNL     1       0.466   9.350  20.183  0.00  0.00    +0.000 A 
ATOM     19  N   UNL     1       0.284   9.530  21.581  0.00  0.00    +0.000 N 
ATOM     20  C   UNL     1      -0.603  10.372  22.201  0.00  0.00    +0.000 A 
ATOM     21  N   UNL     1      -0.425  10.344  23.502  0.00  0.00    +0.000 NA
ATOM     22  C   UNL     1       0.605   9.463  23.647  0.00  0.00    +0.000 A 
ATOM     23  N   UNL     1       1.076   8.938  22.515  0.00  0.00    +0.000 NA
ATOM     24  C   UNL     1       1.477   8.498  19.759  0.00  0.00    +0.000 A 
ENDBRANCH   6  14
TORSDOF 1
ENDMDL
