MODEL 1
REMARK VINA RESULT:      -7.7      0.000      0.000
REMARK  Name = 
REMARK  9 active torsions:
REMARK  status: ('A' for Active; 'I' for Inactive)
REMARK    1  A    between atoms: C_2  and  O_3
REMARK    2  A    between atoms: C_2  and  C_4
REMARK    3  A    between atoms: C_6  and  N_7
REMARK    4  A    between atoms: N_8  and  C_9
REMARK    5  A    between atoms: C_9  and  C_10
REMARK    6  A    between atoms: C_9  and  C_17
REMARK    7  A    between atoms: C_10  and  C_11
REMARK    8  A    between atoms: C_17  and  O_19
REMARK    9  A    between atoms: C_22  and  O_23
REMARK                            x       y       z     vdW  Elec       q    Type
REMARK                         _______ _______ _______ _____ _____    ______ ____
ROOT
ATOM      1  N   UNL     1       5.147   4.086  17.430  0.00  0.00    +0.000 NA
ATOM      2  N   UNL     1       5.092   4.003  16.186  0.00  0.00    +0.000 NA
ENDROOT
BRANCH   1   5
ATOM      3  C   UNL     1       2.648   3.205  20.037  0.00  0.00    +0.000 A 
ATOM      4  C   UNL     1       3.861   3.382  19.351  0.00  0.00    +0.000 A 
ATOM      5  C   UNL     1       3.887   3.889  18.044  0.00  0.00    +0.000 A 
ATOM      6  C   UNL     1       2.665   4.204  17.431  0.00  0.00    +0.000 A 
ATOM      7  C   UNL     1       1.449   4.034  18.104  0.00  0.00    +0.000 A 
ATOM      8  C   UNL     1       1.448   3.550  19.408  0.00  0.00    +0.000 A 
BRANCH   3  10
ATOM      9  O   UNL     1       1.772   2.714  22.191  0.00  0.00    +0.000 OA
ATOM     10  C   UNL     1       2.707   2.630  21.405  0.00  0.00    +0.000 C 
BRANCH  10  11
ATOM     11  O   UNL     1       3.838   1.952  21.690  0.00  0.00    +0.000 OA
ATOM     12  H   UNL     1       3.767   0.999  21.461  0.00  0.00    +0.000 HD
ENDBRANCH  10  11
ENDBRANCH   3  10
BRANCH   8  13
ATOM     13  O   UNL     1       0.260   3.435  20.081  0.00  0.00    +0.000 OA
ATOM     14  H   UNL     1      -0.391   4.043  19.681  0.00  0.00    +0.000 HD
ENDBRANCH   8  13
ENDBRANCH   1   5
BRANCH   2  15
ATOM     15  C   UNL     1       6.419   4.135  15.537  0.00  0.00    +0.000 C 
BRANCH  15  16
ATOM     16  C   UNL     1       7.323   4.932  16.473  0.00  0.00    +0.000 C 
ATOM     17  O   UNL     1       7.488   6.143  16.417  0.00  0.00    +0.000 OA
BRANCH  16  18
ATOM     18  O   UNL     1       8.028   4.159  17.340  0.00  0.00    +0.000 OA
ATOM     19  H   UNL     1       8.926   4.526  17.464  0.00  0.00    +0.000 HD
ENDBRANCH  16  18
ENDBRANCH  15  16
BRANCH  15  20
ATOM     20  C   UNL     1       6.290   4.778  14.153  0.00  0.00    +0.000 C 
BRANCH  20  21
ATOM     21  C   UNL     1       6.021   3.817  13.016  0.00  0.00    +0.000 A 
ATOM     22  C   UNL     1       7.072   3.092  12.435  0.00  0.00    +0.000 A 
ATOM     23  C   UNL     1       6.828   2.213  11.379  0.00  0.00    +0.000 A 
ATOM     24  C   UNL     1       5.533   2.041  10.900  0.00  0.00    +0.000 A 
ATOM     25  C   UNL     1       4.480   2.754  11.471  0.00  0.00    +0.000 A 
ATOM     26  C   UNL     1       4.723   3.640  12.522  0.00  0.00    +0.000 A 
ENDBRANCH  20  21
ENDBRANCH  15  20
ENDBRANCH   2  15
TORSDOF 9
ENDMDL
MODEL 2
REMARK VINA RESULT:      -7.6      1.226      1.993
REMARK  Name = 
REMARK  9 active torsions:
REMARK  status: ('A' for Active; 'I' for Inactive)
REMARK    1  A    between atoms: C_2  and  O_3
REMARK    2  A    between atoms: C_2  and  C_4
REMARK    3  A    between atoms: C_6  and  N_7
REMARK    4  A    between atoms: N_8  and  C_9
REMARK    5  A    between atoms: C_9  and  C_10
REMARK    6  A    between atoms: C_9  and  C_17
REMARK    7  A    between atoms: C_10  and  C_11
REMARK    8  A    between atoms: C_17  and  O_19
REMARK    9  A    between atoms: C_22  and  O_23
REMARK                            x       y       z     vdW  Elec       q    Type
REMARK                         _______ _______ _______ _____ _____    ______ ____
ROOT
ATOM      1  N   UNL     1       4.876   5.206  17.910  0.00  0.00    +0.000 NA
ATOM      2  N   UNL     1       5.764   4.378  17.614  0.00  0.00    +0.000 NA
ENDROOT
BRANCH   1   5
ATOM      3  C   UNL     1       2.543   3.335  20.117  0.00  0.00    +0.000 A 
ATOM      4  C   UNL     1       3.702   3.931  19.594  0.00  0.00    +0.000 A 
ATOM      5  C   UNL     1       3.684   4.587  18.354  0.00  0.00    +0.000 A 
ATOM      6  C   UNL     1       2.476   4.620  17.641  0.00  0.00    +0.000 A 
ATOM      7  C   UNL     1       1.313   4.032  18.151  0.00  0.00    +0.000 A 
ATOM      8  C   UNL     1       1.349   3.406  19.393  0.00  0.00    +0.000 A 
BRANCH   3  10
ATOM      9  O   UNL     1       3.662   2.009  21.741  0.00  0.00    +0.000 OA
ATOM     10  C   UNL     1       2.657   2.631  21.420  0.00  0.00    +0.000 C 
BRANCH  10  11
ATOM     11  O   UNL     1       1.602   2.787  22.246  0.00  0.00    +0.000 OA
ATOM     12  H   UNL     1       0.758   2.511  21.824  0.00  0.00    +0.000 HD
ENDBRANCH  10  11
ENDBRANCH   3  10
BRANCH   8  13
ATOM     13  O   UNL     1       0.196   2.877  19.912  0.00  0.00    +0.000 OA
ATOM     14  H   UNL     1      -0.154   3.485  20.591  0.00  0.00    +0.000 HD
ENDBRANCH   8  13
ENDBRANCH   1   5
BRANCH   2  15
ATOM     15  C   UNL     1       7.042   5.018  17.216  0.00  0.00    +0.000 C 
BRANCH  15  16
ATOM     16  C   UNL     1       7.559   5.819  18.407  0.00  0.00    +0.000 C 
ATOM     17  O   UNL     1       8.070   6.928  18.331  0.00  0.00    +0.000 OA
BRANCH  16  18
ATOM     18  O   UNL     1       7.495   5.146  19.585  0.00  0.00    +0.000 OA
ATOM     19  H   UNL     1       7.353   4.192  19.421  0.00  0.00    +0.000 HD
ENDBRANCH  16  18
ENDBRANCH  15  16
BRANCH  15  20
ATOM     20  C   UNL     1       6.855   5.879  15.963  0.00  0.00    +0.000 C 
BRANCH  20  21
ATOM     21  C   UNL     1       6.717   5.112  14.666  0.00  0.00    +0.000 A 
ATOM     22  C   UNL     1       5.640   4.235  14.471  0.00  0.00    +0.000 A 
ATOM     23  C   UNL     1       5.516   3.519  13.280  0.00  0.00    +0.000 A 
ATOM     24  C   UNL     1       6.458   3.678  12.269  0.00  0.00    +0.000 A 
ATOM     25  C   UNL     1       7.531   4.550  12.449  0.00  0.00    +0.000 A 
ATOM     26  C   UNL     1       7.662   5.261  13.643  0.00  0.00    +0.000 A 
ENDBRANCH  20  21
ENDBRANCH  15  20
ENDBRANCH   2  15
TORSDOF 9
ENDMDL
MODEL 3
REMARK VINA RESULT:      -7.4      1.273      2.014
REMARK  Name = 
REMARK  9 active torsions:
REMARK  status: ('A' for Active; 'I' for Inactive)
REMARK    1  A    between atoms: C_2  and  O_3
REMARK    2  A    between atoms: C_2  and  C_4
REMARK    3  A    between atoms: C_6  and  N_7
REMARK    4  A    between atoms: N_8  and  C_9
REMARK    5  A    between atoms: C_9  and  C_10
REMARK    6  A    between atoms: C_9  and  C_17
REMARK    7  A    between atoms: C_10  and  C_11
REMARK    8  A    between atoms: C_17  and  O_19
REMARK    9  A    between atoms: C_22  and  O_23
REMARK                            x       y       z     vdW  Elec       q    Type
REMARK                         _______ _______ _______ _____ _____    ______ ____
ROOT
ATOM      1  N   UNL     1       4.894   5.079  17.050  0.00  0.00    +0.000 NA
ATOM      2  N   UNL     1       5.161   4.000  16.481  0.00  0.00    +0.000 NA
ENDROOT
BRANCH   1   5
ATOM      3  C   UNL     1       1.983   3.576  18.807  0.00  0.00    +0.000 A 
ATOM      4  C   UNL     1       3.068   3.766  17.936  0.00  0.00    +0.000 A 
ATOM      5  C   UNL     1       3.782   4.973  17.919  0.00  0.00    +0.000 A 
ATOM      6  C   UNL     1       3.374   5.995  18.790  0.00  0.00    +0.000 A 
ATOM      7  C   UNL     1       2.296   5.819  19.664  0.00  0.00    +0.000 A 
ATOM      8  C   UNL     1       1.615   4.605  19.679  0.00  0.00    +0.000 A 
BRANCH   3  10
ATOM      9  O   UNL     1       0.061   2.212  18.499  0.00  0.00    +0.000 OA
ATOM     10  C   UNL     1       1.261   2.281  18.736  0.00  0.00    +0.000 C 
BRANCH  10  11
ATOM     11  O   UNL     1       2.037   1.187  18.884  0.00  0.00    +0.000 OA
ATOM     12  H   UNL     1       2.891   1.272  18.406  0.00  0.00    +0.000 HD
ENDBRANCH  10  11
ENDBRANCH   3  10
BRANCH   8  13
ATOM     13  O   UNL     1       0.594   4.419  20.573  0.00  0.00    +0.000 OA
ATOM     14  H   UNL     1       0.837   4.833  21.423  0.00  0.00    +0.000 HD
ENDBRANCH   8  13
ENDBRANCH   1   5
BRANCH   2  15
ATOM     15  C   UNL     1       6.369   4.082  15.624  0.00  0.00    +0.000 C 
BRANCH  15  16
ATOM     16  C   UNL     1       7.460   4.799  16.413  0.00  0.00    +0.000 C 
ATOM     17  O   UNL     1       8.175   4.268  17.252  0.00  0.00    +0.000 OA
BRANCH  16  18
ATOM     18  O   UNL     1       7.515   6.135  16.176  0.00  0.00    +0.000 OA
ATOM     19  H   UNL     1       7.991   6.587  16.903  0.00  0.00    +0.000 HD
ENDBRANCH  16  18
ENDBRANCH  15  16
BRANCH  15  20
ATOM     20  C   UNL     1       6.051   4.774  14.295  0.00  0.00    +0.000 C 
BRANCH  20  21
ATOM     21  C   UNL     1       5.929   3.855  13.099  0.00  0.00    +0.000 A 
ATOM     22  C   UNL     1       4.669   3.552  12.562  0.00  0.00    +0.000 A 
ATOM     23  C   UNL     1       4.554   2.696  11.466  0.00  0.00    +0.000 A 
ATOM     24  C   UNL     1       5.693   2.142  10.890  0.00  0.00    +0.000 A 
ATOM     25  C   UNL     1       6.951   2.439  11.413  0.00  0.00    +0.000 A 
ATOM     26  C   UNL     1       7.068   3.288  12.515  0.00  0.00    +0.000 A 
ENDBRANCH  20  21
ENDBRANCH  15  20
ENDBRANCH   2  15
TORSDOF 9
ENDMDL
MODEL 4
REMARK VINA RESULT:      -7.4      0.526      1.311
REMARK  Name = 
REMARK  9 active torsions:
REMARK  status: ('A' for Active; 'I' for Inactive)
REMARK    1  A    between atoms: C_2  and  O_3
REMARK    2  A    between atoms: C_2  and  C_4
REMARK    3  A    between atoms: C_6  and  N_7
REMARK    4  A    between atoms: N_8  and  C_9
REMARK    5  A    between atoms: C_9  and  C_10
REMARK    6  A    between atoms: C_9  and  C_17
REMARK    7  A    between atoms: C_10  and  C_11
REMARK    8  A    between atoms: C_17  and  O_19
REMARK    9  A    between atoms: C_22  and  O_23
REMARK                            x       y       z     vdW  Elec       q    Type
REMARK                         _______ _______ _______ _____ _____    ______ ____
ROOT
ATOM      1  N   UNL     1       4.590   4.437  16.708  0.00  0.00    +0.000 NA
ATOM      2  N   UNL     1       5.374   3.509  16.421  0.00  0.00    +0.000 NA
ENDROOT
BRANCH   1   5
ATOM      3  C   UNL     1       2.948   3.116  19.770  0.00  0.00    +0.000 A 
ATOM      4  C   UNL     1       3.921   3.502  18.834  0.00  0.00    +0.000 A 
ATOM      5  C   UNL     1       3.558   4.025  17.585  0.00  0.00    +0.000 A 
ATOM      6  C   UNL     1       2.191   4.140  17.288  0.00  0.00    +0.000 A 
ATOM      7  C   UNL     1       1.211   3.761  18.212  0.00  0.00    +0.000 A 
ATOM      8  C   UNL     1       1.595   3.265  19.454  0.00  0.00    +0.000 A 
BRANCH   3  10
ATOM      9  O   UNL     1       2.722   2.530  22.063  0.00  0.00    +0.000 OA
ATOM     10  C   UNL     1       3.419   2.540  21.056  0.00  0.00    +0.000 C 
BRANCH  10  11
ATOM     11  O   UNL     1       4.641   1.970  21.011  0.00  0.00    +0.000 OA
ATOM     12  H   UNL     1       4.797   1.368  21.773  0.00  0.00    +0.000 HD
ENDBRANCH  10  11
ENDBRANCH   3  10
BRANCH   8  13
ATOM     13  O   UNL     1       0.633   2.944  20.375  0.00  0.00    +0.000 OA
ATOM     14  H   UNL     1      -0.247   3.100  19.982  0.00  0.00    +0.000 HD
ENDBRANCH   8  13
ENDBRANCH   1   5
BRANCH   2  15
ATOM     15  C   UNL     1       6.500   3.947  15.561  0.00  0.00    +0.000 C 
BRANCH  15  16
ATOM     16  C   UNL     1       7.423   4.822  16.404  0.00  0.00    +0.000 C 
ATOM     17  O   UNL     1       8.104   4.419  17.336  0.00  0.00    +0.000 OA
BRANCH  16  18
ATOM     18  O   UNL     1       7.356   6.143  16.093  0.00  0.00    +0.000 OA
ATOM     19  H   UNL     1       7.395   6.263  15.122  0.00  0.00    +0.000 HD
ENDBRANCH  16  18
ENDBRANCH  15  16
BRANCH  15  20
ATOM     20  C   UNL     1       5.985   4.667  14.310  0.00  0.00    +0.000 C 
BRANCH  20  21
ATOM     21  C   UNL     1       5.821   3.795  13.084  0.00  0.00    +0.000 A 
ATOM     22  C   UNL     1       4.561   3.641  12.487  0.00  0.00    +0.000 A 
ATOM     23  C   UNL     1       4.405   2.829  11.362  0.00  0.00    +0.000 A 
ATOM     24  C   UNL     1       5.504   2.172  10.818  0.00  0.00    +0.000 A 
ATOM     25  C   UNL     1       6.762   2.320  11.402  0.00  0.00    +0.000 A 
ATOM     26  C   UNL     1       6.919   3.125  12.531  0.00  0.00    +0.000 A 
ENDBRANCH  20  21
ENDBRANCH  15  20
ENDBRANCH   2  15
TORSDOF 9
ENDMDL
MODEL 5
REMARK VINA RESULT:      -7.4      1.712      2.356
REMARK  Name = 
REMARK  9 active torsions:
REMARK  status: ('A' for Active; 'I' for Inactive)
REMARK    1  A    between atoms: C_2  and  O_3
REMARK    2  A    between atoms: C_2  and  C_4
REMARK    3  A    between atoms: C_6  and  N_7
REMARK    4  A    between atoms: N_8  and  C_9
REMARK    5  A    between atoms: C_9  and  C_10
REMARK    6  A    between atoms: C_9  and  C_17
REMARK    7  A    between atoms: C_10  and  C_11
REMARK    8  A    between atoms: C_17  and  O_19
REMARK    9  A    between atoms: C_22  and  O_23
REMARK                            x       y       z     vdW  Elec       q    Type
REMARK                         _______ _______ _______ _____ _____    ______ ____
ROOT
ATOM      1  N   UNL     1       5.092   5.580  18.411  0.00  0.00    +0.000 NA
ATOM      2  N   UNL     1       5.596   4.702  17.679  0.00  0.00    +0.000 NA
ENDROOT
BRANCH   1   5
ATOM      3  C   UNL     1       2.051   3.526  19.004  0.00  0.00    +0.000 A 
ATOM      4  C   UNL     1       3.267   3.997  18.482  0.00  0.00    +0.000 A 
ATOM      5  C   UNL     1       3.842   5.189  18.947  0.00  0.00    +0.000 A 
ATOM      6  C   UNL     1       3.161   5.909  19.941  0.00  0.00    +0.000 A 
ATOM      7  C   UNL     1       1.950   5.450  20.470  0.00  0.00    +0.000 A 
ATOM      8  C   UNL     1       1.409   4.254  20.010  0.00  0.00    +0.000 A 
BRANCH   3  10
ATOM      9  O   UNL     1       0.297   2.021  18.451  0.00  0.00    +0.000 OA
ATOM     10  C   UNL     1       1.495   2.274  18.432  0.00  0.00    +0.000 C 
BRANCH  10  11
ATOM     11  O   UNL     1       2.399   1.471  17.832  0.00  0.00    +0.000 OA
ATOM     12  H   UNL     1       2.878   1.930  17.107  0.00  0.00    +0.000 HD
ENDBRANCH  10  11
ENDBRANCH   3  10
BRANCH   8  13
ATOM     13  O   UNL     1       0.250   3.782  20.568  0.00  0.00    +0.000 OA
ATOM     14  H   UNL     1      -0.223   3.241  19.907  0.00  0.00    +0.000 HD
ENDBRANCH   8  13
ENDBRANCH   1   5
BRANCH   2  15
ATOM     15  C   UNL     1       6.939   5.072  17.171  0.00  0.00    +0.000 C 
BRANCH  15  16
ATOM     16  C   UNL     1       7.675   5.815  18.282  0.00  0.00    +0.000 C 
ATOM     17  O   UNL     1       8.019   6.988  18.225  0.00  0.00    +0.000 OA
BRANCH  16  18
ATOM     18  O   UNL     1       8.015   5.026  19.333  0.00  0.00    +0.000 OA
ATOM     19  H   UNL     1       7.452   4.225  19.349  0.00  0.00    +0.000 HD
ENDBRANCH  16  18
ENDBRANCH  15  16
BRANCH  15  20
ATOM     20  C   UNL     1       6.829   5.895  15.883  0.00  0.00    +0.000 C 
BRANCH  20  21
ATOM     21  C   UNL     1       6.681   5.090  14.611  0.00  0.00    +0.000 A 
ATOM     22  C   UNL     1       7.638   5.193  13.590  0.00  0.00    +0.000 A 
ATOM     23  C   UNL     1       7.499   4.458  12.412  0.00  0.00    +0.000 A 
ATOM     24  C   UNL     1       6.410   3.608  12.245  0.00  0.00    +0.000 A 
ATOM     25  C   UNL     1       5.455   3.494  13.254  0.00  0.00    +0.000 A 
ATOM     26  C   UNL     1       5.588   4.234  14.430  0.00  0.00    +0.000 A 
ENDBRANCH  20  21
ENDBRANCH  15  20
ENDBRANCH   2  15
TORSDOF 9
ENDMDL
MODEL 6
REMARK VINA RESULT:      -7.3      1.731      2.527
REMARK  Name = 
REMARK  9 active torsions:
REMARK  status: ('A' for Active; 'I' for Inactive)
REMARK    1  A    between atoms: C_2  and  O_3
REMARK    2  A    between atoms: C_2  and  C_4
REMARK    3  A    between atoms: C_6  and  N_7
REMARK    4  A    between atoms: N_8  and  C_9
REMARK    5  A    between atoms: C_9  and  C_10
REMARK    6  A    between atoms: C_9  and  C_17
REMARK    7  A    between atoms: C_10  and  C_11
REMARK    8  A    between atoms: C_17  and  O_19
REMARK    9  A    between atoms: C_22  and  O_23
REMARK                            x       y       z     vdW  Elec       q    Type
REMARK                         _______ _______ _______ _____ _____    ______ ____
ROOT
ATOM      1  N   UNL     1       5.127   5.580  18.500  0.00  0.00    +0.000 NA
ATOM      2  N   UNL     1       5.581   4.754  17.681  0.00  0.00    +0.000 NA
ENDROOT
BRANCH   1   5
ATOM      3  C   UNL     1       2.051   3.560  19.020  0.00  0.00    +0.000 A 
ATOM      4  C   UNL     1       3.289   4.011  18.535  0.00  0.00    +0.000 A 
ATOM      5  C   UNL     1       3.855   5.208  18.997  0.00  0.00    +0.000 A 
ATOM      6  C   UNL     1       3.144   5.953  19.951  0.00  0.00    +0.000 A 
ATOM      7  C   UNL     1       1.910   5.513  20.444  0.00  0.00    +0.000 A 
ATOM      8  C   UNL     1       1.377   4.311  19.987  0.00  0.00    +0.000 A 
BRANCH   3  10
ATOM      9  O   UNL     1       0.305   2.066  18.410  0.00  0.00    +0.000 OA
ATOM     10  C   UNL     1       1.507   2.300  18.453  0.00  0.00    +0.000 C 
BRANCH  10  11
ATOM     11  O   UNL     1       2.429   1.465  17.929  0.00  0.00    +0.000 OA
ATOM     12  H   UNL     1       2.208   0.521  18.091  0.00  0.00    +0.000 HD
ENDBRANCH  10  11
ENDBRANCH   3  10
BRANCH   8  13
ATOM     13  O   UNL     1       0.195   3.859  20.511  0.00  0.00    +0.000 OA
ATOM     14  H   UNL     1      -0.540   4.164  19.945  0.00  0.00    +0.000 HD
ENDBRANCH   8  13
ENDBRANCH   1   5
BRANCH   2  15
ATOM     15  C   UNL     1       6.945   5.097  17.209  0.00  0.00    +0.000 C 
BRANCH  15  16
ATOM     16  C   UNL     1       7.663   5.832  18.337  0.00  0.00    +0.000 C 
ATOM     17  O   UNL     1       8.032   6.998  18.283  0.00  0.00    +0.000 OA
BRANCH  16  18
ATOM     18  O   UNL     1       7.956   5.043  19.402  0.00  0.00    +0.000 OA
ATOM     19  H   UNL     1       7.147   4.592  19.720  0.00  0.00    +0.000 HD
ENDBRANCH  16  18
ENDBRANCH  15  16
BRANCH  15  20
ATOM     20  C   UNL     1       6.887   5.915  15.915  0.00  0.00    +0.000 C 
BRANCH  20  21
ATOM     21  C   UNL     1       6.693   5.110  14.649  0.00  0.00    +0.000 A 
ATOM     22  C   UNL     1       5.575   4.276  14.502  0.00  0.00    +0.000 A 
ATOM     23  C   UNL     1       5.399   3.524  13.339  0.00  0.00    +0.000 A 
ATOM     24  C   UNL     1       6.332   3.604  12.310  0.00  0.00    +0.000 A 
ATOM     25  C   UNL     1       7.446   4.432  12.443  0.00  0.00    +0.000 A 
ATOM     26  C   UNL     1       7.628   5.179  13.608  0.00  0.00    +0.000 A 
ENDBRANCH  20  21
ENDBRANCH  15  20
ENDBRANCH   2  15
TORSDOF 9
ENDMDL
MODEL 7
REMARK VINA RESULT:      -7.3      2.755      7.592
REMARK  Name = 
REMARK  9 active torsions:
REMARK  status: ('A' for Active; 'I' for Inactive)
REMARK    1  A    between atoms: C_2  and  O_3
REMARK    2  A    between atoms: C_2  and  C_4
REMARK    3  A    between atoms: C_6  and  N_7
REMARK    4  A    between atoms: N_8  and  C_9
REMARK    5  A    between atoms: C_9  and  C_10
REMARK    6  A    between atoms: C_9  and  C_17
REMARK    7  A    between atoms: C_10  and  C_11
REMARK    8  A    between atoms: C_17  and  O_19
REMARK    9  A    between atoms: C_22  and  O_23
REMARK                            x       y       z     vdW  Elec       q    Type
REMARK                         _______ _______ _______ _____ _____    ______ ____
ROOT
ATOM      1  N   UNL     1       4.675   3.705  17.343  0.00  0.00    +0.000 NA
ATOM      2  N   UNL     1       4.912   4.298  18.416  0.00  0.00    +0.000 NA
ENDROOT
BRANCH   1   5
ATOM      3  C   UNL     1       6.089   4.005  13.918  0.00  0.00    +0.000 A 
ATOM      4  C   UNL     1       5.294   3.615  15.008  0.00  0.00    +0.000 A 
ATOM      5  C   UNL     1       5.543   4.104  16.299  0.00  0.00    +0.000 A 
ATOM      6  C   UNL     1       6.620   4.987  16.476  0.00  0.00    +0.000 A 
ATOM      7  C   UNL     1       7.418   5.386  15.398  0.00  0.00    +0.000 A 
ATOM      8  C   UNL     1       7.139   4.905  14.122  0.00  0.00    +0.000 A 
BRANCH   3  10
ATOM      9  O   UNL     1       4.682   3.539  12.060  0.00  0.00    +0.000 OA
ATOM     10  C   UNL     1       5.778   3.414  12.592  0.00  0.00    +0.000 C 
BRANCH  10  11
ATOM     11  O   UNL     1       6.811   2.789  11.990  0.00  0.00    +0.000 OA
ATOM     12  H   UNL     1       7.561   2.636  12.607  0.00  0.00    +0.000 HD
ENDBRANCH  10  11
ENDBRANCH   3  10
BRANCH   8  13
ATOM     13  O   UNL     1       7.891   5.339  13.062  0.00  0.00    +0.000 OA
ATOM     14  H   UNL     1       8.495   4.623  12.788  0.00  0.00    +0.000 HD
ENDBRANCH   8  13
ENDBRANCH   1   5
BRANCH   2  15
ATOM     15  C   UNL     1       4.055   3.835  19.535  0.00  0.00    +0.000 C 
BRANCH  15  16
ATOM     16  C   UNL     1       4.232   2.326  19.670  0.00  0.00    +0.000 C 
ATOM     17  O   UNL     1       5.062   1.785  20.388  0.00  0.00    +0.000 OA
BRANCH  16  18
ATOM     18  O   UNL     1       3.438   1.606  18.835  0.00  0.00    +0.000 OA
ATOM     19  H   UNL     1       3.901   0.792  18.549  0.00  0.00    +0.000 HD
ENDBRANCH  16  18
ENDBRANCH  15  16
BRANCH  15  20
ATOM     20  C   UNL     1       2.594   4.240  19.309  0.00  0.00    +0.000 C 
BRANCH  20  21
ATOM     21  C   UNL     1       2.328   5.729  19.309  0.00  0.00    +0.000 A 
ATOM     22  C   UNL     1       1.895   6.372  20.478  0.00  0.00    +0.000 A 
ATOM     23  C   UNL     1       1.639   7.745  20.478  0.00  0.00    +0.000 A 
ATOM     24  C   UNL     1       1.822   8.488  19.316  0.00  0.00    +0.000 A 
ATOM     25  C   UNL     1       2.256   7.860  18.150  0.00  0.00    +0.000 A 
ATOM     26  C   UNL     1       2.505   6.486  18.145  0.00  0.00    +0.000 A 
ENDBRANCH  20  21
ENDBRANCH  15  20
ENDBRANCH   2  15
TORSDOF 9
ENDMDL
MODEL 8
REMARK VINA RESULT:      -7.2      3.875      6.354
REMARK  Name = 
REMARK  9 active torsions:
REMARK  status: ('A' for Active; 'I' for Inactive)
REMARK    1  A    between atoms: C_2  and  O_3
REMARK    2  A    between atoms: C_2  and  C_4
REMARK    3  A    between atoms: C_6  and  N_7
REMARK    4  A    between atoms: N_8  and  C_9
REMARK    5  A    between atoms: C_9  and  C_10
REMARK    6  A    between atoms: C_9  and  C_17
REMARK    7  A    between atoms: C_10  and  C_11
REMARK    8  A    between atoms: C_17  and  O_19
REMARK    9  A    between atoms: C_22  and  O_23
REMARK                            x       y       z     vdW  Elec       q    Type
REMARK                         _______ _______ _______ _____ _____    ______ ____
ROOT
ATOM      1  N   UNL     1       3.527   6.694  18.570  0.00  0.00    +0.000 NA
ATOM      2  N   UNL     1       3.321   6.022  17.537  0.00  0.00    +0.000 NA
ENDROOT
BRANCH   1   5
ATOM      3  C   UNL     1       1.048   8.786  20.383  0.00  0.00    +0.000 A 
ATOM      4  C   UNL     1       2.008   7.807  20.085  0.00  0.00    +0.000 A 
ATOM      5  C   UNL     1       2.528   7.672  18.789  0.00  0.00    +0.000 A 
ATOM      6  C   UNL     1       2.051   8.536  17.792  0.00  0.00    +0.000 A 
ATOM      7  C   UNL     1       1.096   9.518  18.076  0.00  0.00    +0.000 A 
ATOM      8  C   UNL     1       0.610   9.648  19.374  0.00  0.00    +0.000 A 
BRANCH   3  10
ATOM      9  O   UNL     1       1.153   9.355  22.689  0.00  0.00    +0.000 OA
ATOM     10  C   UNL     1       0.525   8.839  21.773  0.00  0.00    +0.000 C 
BRANCH  10  11
ATOM     11  O   UNL     1      -0.717   8.337  21.934  0.00  0.00    +0.000 OA
ATOM     12  H   UNL     1      -0.955   8.237  22.882  0.00  0.00    +0.000 HD
ENDBRANCH  10  11
ENDBRANCH   3  10
BRANCH   8  13
ATOM     13  O   UNL     1      -0.286  10.645  19.658  0.00  0.00    +0.000 OA
ATOM     14  H   UNL     1      -0.681  10.963  18.824  0.00  0.00    +0.000 HD
ENDBRANCH   8  13
ENDBRANCH   1   5
BRANCH   2  15
ATOM     15  C   UNL     1       4.324   4.947  17.337  0.00  0.00    +0.000 C 
BRANCH  15  16
ATOM     16  C   UNL     1       5.033   5.205  16.011  0.00  0.00    +0.000 C 
ATOM     17  O   UNL     1       5.340   4.337  15.205  0.00  0.00    +0.000 OA
BRANCH  16  18
ATOM     18  O   UNL     1       5.395   6.502  15.829  0.00  0.00    +0.000 OA
ATOM     19  H   UNL     1       6.350   6.613  16.010  0.00  0.00    +0.000 HD
ENDBRANCH  16  18
ENDBRANCH  15  16
BRANCH  15  20
ATOM     20  C   UNL     1       3.664   3.566  17.394  0.00  0.00    +0.000 C 
BRANCH  20  21
ATOM     21  C   UNL     1       2.848   3.290  18.638  0.00  0.00    +0.000 A 
ATOM     22  C   UNL     1       1.448   3.229  18.570  0.00  0.00    +0.000 A 
ATOM     23  C   UNL     1       0.693   2.985  19.718  0.00  0.00    +0.000 A 
ATOM     24  C   UNL     1       1.327   2.789  20.941  0.00  0.00    +0.000 A 
ATOM     25  C   UNL     1       2.718   2.844  21.020  0.00  0.00    +0.000 A 
ATOM     26  C   UNL     1       3.475   3.096  19.875  0.00  0.00    +0.000 A 
ENDBRANCH  20  21
ENDBRANCH  15  20
ENDBRANCH   2  15
TORSDOF 9
ENDMDL
MODEL 9
REMARK VINA RESULT:      -7.2      3.780      6.376
REMARK  Name = 
REMARK  9 active torsions:
REMARK  status: ('A' for Active; 'I' for Inactive)
REMARK    1  A    between atoms: C_2  and  O_3
REMARK    2  A    between atoms: C_2  and  C_4
REMARK    3  A    between atoms: C_6  and  N_7
REMARK    4  A    between atoms: N_8  and  C_9
REMARK    5  A    between atoms: C_9  and  C_10
REMARK    6  A    between atoms: C_9  and  C_17
REMARK    7  A    between atoms: C_10  and  C_11
REMARK    8  A    between atoms: C_17  and  O_19
REMARK    9  A    between atoms: C_22  and  O_23
REMARK                            x       y       z     vdW  Elec       q    Type
REMARK                         _______ _______ _______ _____ _____    ______ ____
ROOT
ATOM      1  N   UNL     1       3.527   6.152  18.898  0.00  0.00    +0.000 NA
ATOM      2  N   UNL     1       3.762   5.724  17.748  0.00  0.00    +0.000 NA
ENDROOT
BRANCH   1   5
ATOM      3  C   UNL     1       1.242   8.801  20.154  0.00  0.00    +0.000 A 
ATOM      4  C   UNL     1       2.040   7.648  20.077  0.00  0.00    +0.000 A 
ATOM      5  C   UNL     1       2.702   7.302  18.891  0.00  0.00    +0.000 A 
ATOM      6  C   UNL     1       2.536   8.134  17.773  0.00  0.00    +0.000 A 
ATOM      7  C   UNL     1       1.745   9.287  17.836  0.00  0.00    +0.000 A 
ATOM      8  C   UNL     1       1.115   9.623  19.030  0.00  0.00    +0.000 A 
BRANCH   3  10
ATOM      9  O   UNL     1       0.902   9.973  22.194  0.00  0.00    +0.000 OA
ATOM     10  C   UNL     1       0.549   9.076  21.438  0.00  0.00    +0.000 C 
BRANCH  10  11
ATOM     11  O   UNL     1      -0.535   8.309  21.676  0.00  0.00    +0.000 OA
ATOM     12  H   UNL     1      -1.323   8.617  21.175  0.00  0.00    +0.000 HD
ENDBRANCH  10  11
ENDBRANCH   3  10
BRANCH   8  13
ATOM     13  O   UNL     1       0.385  10.780  19.102  0.00  0.00    +0.000 OA
ATOM     14  H   UNL     1       0.923  11.516  18.754  0.00  0.00    +0.000 HD
ENDBRANCH   8  13
ENDBRANCH   1   5
BRANCH   2  15
ATOM     15  C   UNL     1       4.566   4.477  17.748  0.00  0.00    +0.000 C 
BRANCH  15  16
ATOM     16  C   UNL     1       5.478   4.505  16.525  0.00  0.00    +0.000 C 
ATOM     17  O   UNL     1       5.127   4.845  15.403  0.00  0.00    +0.000 OA
BRANCH  16  18
ATOM     18  O   UNL     1       6.723   4.017  16.762  0.00  0.00    +0.000 OA
ATOM     19  H   UNL     1       6.888   3.967  17.725  0.00  0.00    +0.000 HD
ENDBRANCH  16  18
ENDBRANCH  15  16
BRANCH  15  20
ATOM     20  C   UNL     1       3.661   3.242  17.781  0.00  0.00    +0.000 C 
BRANCH  20  21
ATOM     21  C   UNL     1       2.826   3.086  19.033  0.00  0.00    +0.000 A 
ATOM     22  C   UNL     1       3.434   2.771  20.257  0.00  0.00    +0.000 A 
ATOM     23  C   UNL     1       2.665   2.616  21.411  0.00  0.00    +0.000 A 
ATOM     24  C   UNL     1       1.285   2.783  21.357  0.00  0.00    +0.000 A 
ATOM     25  C   UNL     1       0.669   3.099  20.147  0.00  0.00    +0.000 A 
ATOM     26  C   UNL     1       1.436   3.247  18.989  0.00  0.00    +0.000 A 
ENDBRANCH  20  21
ENDBRANCH  15  20
ENDBRANCH   2  15
TORSDOF 9
ENDMDL
