MODEL 1
REMARK VINA RESULT:      -8.2      0.000      0.000
REMARK  Name = 
REMARK  4 active torsions:
REMARK  status: ('A' for Active; 'I' for Inactive)
REMARK    1  A    between atoms: C_2  and  C_3
REMARK    2  A    between atoms: C_3  and  N_4
REMARK    3  A    between atoms: C_9  and  C_10
REMARK    4  A    between atoms: N_17  and  C_18
REMARK                            x       y       z     vdW  Elec       q    Type
REMARK                         _______ _______ _______ _____ _____    ______ ____
ROOT
ATOM      1  N   UNL     1       6.781   5.551  17.562  0.00  0.00    +0.000 N 
ATOM      2  C   UNL     1       6.802   5.333  16.215  0.00  0.00    +0.000 C 
ATOM      3  O   UNL     1       7.688   5.621  15.428  0.00  0.00    +0.000 OA
ATOM      4  S   UNL     1       5.325   4.517  15.726  0.00  0.00    +0.000 S 
ATOM      5  C   UNL     1       4.625   4.661  17.298  0.00  0.00    +0.000 C 
ATOM      6  C   UNL     1       3.349   4.349  17.561  0.00  0.00    +0.000 C 
ATOM      7  C   UNL     1       5.628   5.238  18.239  0.00  0.00    +0.000 C 
ATOM      8  O   UNL     1       5.469   5.442  19.435  0.00  0.00    +0.000 OA
ENDROOT
BRANCH   6   9
ATOM      9  C   UNL     1       2.768   4.626  18.821  0.00  0.00    +0.000 A 
ATOM     10  C   UNL     1       2.156   5.796  19.249  0.00  0.00    +0.000 A 
ATOM     11  C   UNL     1       1.812   5.627  20.611  0.00  0.00    +0.000 A 
ATOM     12  C   UNL     1       2.202   4.353  20.939  0.00  0.00    +0.000 A 
ATOM     13  O   UNL     1       2.763   3.737  19.869  0.00  0.00    +0.000 OA
ENDBRANCH   6   9
BRANCH   1  14
ATOM     14  C   UNL     1       7.889   6.165  18.263  0.00  0.00    +0.000 C 
BRANCH  14  16
ATOM     15  O   UNL     1       6.999   8.148  17.258  0.00  0.00    +0.000 OA
ATOM     16  C   UNL     1       7.836   7.675  18.017  0.00  0.00    +0.000 C 
ATOM     17  N   UNL     1       8.737   8.386  18.798  0.00  0.00    +0.000 N 
ATOM     18  H   UNL     1       9.251   7.854  19.500  0.00  0.00    +0.000 HD
BRANCH  17  19
ATOM     19  C   UNL     1       8.912   9.785  18.839  0.00  0.00    +0.000 A 
ATOM     20  C   UNL     1       8.674  10.628  17.752  0.00  0.00    +0.000 A 
ATOM     21  C   UNL     1       8.858  12.010  17.867  0.00  0.00    +0.000 A 
ATOM     22  C   UNL     1       9.294  12.554  19.071  0.00  0.00    +0.000 A 
ATOM     23 BR   UNL     1       9.553  14.419  19.217  0.00  0.00    +0.000 Br
ATOM     24  C   UNL     1       9.540  11.729  20.164  0.00  0.00    +0.000 A 
ATOM     25  C   UNL     1       9.347  10.347  20.048  0.00  0.00    +0.000 A 
ENDBRANCH  17  19
ENDBRANCH  14  16
ENDBRANCH   1  14
TORSDOF 4
ENDMDL
MODEL 2
REMARK VINA RESULT:      -8.0      0.562      1.245
REMARK  Name = 
REMARK  4 active torsions:
REMARK  status: ('A' for Active; 'I' for Inactive)
REMARK    1  A    between atoms: C_2  and  C_3
REMARK    2  A    between atoms: C_3  and  N_4
REMARK    3  A    between atoms: C_9  and  C_10
REMARK    4  A    between atoms: N_17  and  C_18
REMARK                            x       y       z     vdW  Elec       q    Type
REMARK                         _______ _______ _______ _____ _____    ______ ____
ROOT
ATOM      1  N   UNL     1       6.801   5.567  17.647  0.00  0.00    +0.000 N 
ATOM      2  C   UNL     1       6.800   5.360  16.297  0.00  0.00    +0.000 C 
ATOM      3  O   UNL     1       7.680   5.637  15.501  0.00  0.00    +0.000 OA
ATOM      4  S   UNL     1       5.301   4.576  15.822  0.00  0.00    +0.000 S 
ATOM      5  C   UNL     1       4.624   4.720  17.405  0.00  0.00    +0.000 C 
ATOM      6  C   UNL     1       3.347   4.431  17.682  0.00  0.00    +0.000 C 
ATOM      7  C   UNL     1       5.651   5.270  18.336  0.00  0.00    +0.000 C 
ATOM      8  O   UNL     1       5.512   5.467  19.536  0.00  0.00    +0.000 OA
ENDROOT
BRANCH   6   9
ATOM      9  C   UNL     1       2.788   4.708  18.953  0.00  0.00    +0.000 A 
ATOM     10  C   UNL     1       2.524   3.823  19.989  0.00  0.00    +0.000 A 
ATOM     11  C   UNL     1       1.883   4.549  21.020  0.00  0.00    +0.000 A 
ATOM     12  C   UNL     1       1.816   5.845  20.577  0.00  0.00    +0.000 A 
ATOM     13  O   UNL     1       2.369   5.956  19.344  0.00  0.00    +0.000 OA
ENDBRANCH   6   9
BRANCH   1  14
ATOM     14  C   UNL     1       7.929   6.155  18.337  0.00  0.00    +0.000 C 
BRANCH  14  16
ATOM     15  O   UNL     1       7.069   8.163  17.359  0.00  0.00    +0.000 OA
ATOM     16  C   UNL     1       7.889   7.670  18.124  0.00  0.00    +0.000 C 
ATOM     17  N   UNL     1       8.778   8.359  18.937  0.00  0.00    +0.000 N 
ATOM     18  H   UNL     1       9.275   7.809  19.638  0.00  0.00    +0.000 HD
BRANCH  17  19
ATOM     19  C   UNL     1       8.959   9.756  19.012  0.00  0.00    +0.000 A 
ATOM     20  C   UNL     1       9.287  10.432  20.189  0.00  0.00    +0.000 A 
ATOM     21  C   UNL     1       9.463  11.819  20.189  0.00  0.00    +0.000 A 
ATOM     22  C   UNL     1       9.298  12.539  19.010  0.00  0.00    +0.000 A 
ATOM     23 BR   UNL     1       9.523  14.415  19.019  0.00  0.00    +0.000 Br
ATOM     24  C   UNL     1       8.966  11.883  17.829  0.00  0.00    +0.000 A 
ATOM     25  C   UNL     1       8.799  10.493  17.830  0.00  0.00    +0.000 A 
ENDBRANCH  17  19
ENDBRANCH  14  16
ENDBRANCH   1  14
TORSDOF 4
ENDMDL
MODEL 3
REMARK VINA RESULT:      -8.0      3.836      6.802
REMARK  Name = 
REMARK  4 active torsions:
REMARK  status: ('A' for Active; 'I' for Inactive)
REMARK    1  A    between atoms: C_2  and  C_3
REMARK    2  A    between atoms: C_3  and  N_4
REMARK    3  A    between atoms: C_9  and  C_10
REMARK    4  A    between atoms: N_17  and  C_18
REMARK                            x       y       z     vdW  Elec       q    Type
REMARK                         _______ _______ _______ _____ _____    ______ ____
ROOT
ATOM      1  N   UNL     1       3.135   3.854  19.768  0.00  0.00    +0.000 N 
ATOM      2  C   UNL     1       2.782   2.665  19.199  0.00  0.00    +0.000 C 
ATOM      3  O   UNL     1       1.998   1.837  19.630  0.00  0.00    +0.000 OA
ATOM      4  S   UNL     1       3.622   2.471  17.668  0.00  0.00    +0.000 S 
ATOM      5  C   UNL     1       4.576   3.890  17.915  0.00  0.00    +0.000 C 
ATOM      6  C   UNL     1       5.598   4.230  17.120  0.00  0.00    +0.000 C 
ATOM      7  C   UNL     1       4.122   4.584  19.154  0.00  0.00    +0.000 C 
ATOM      8  O   UNL     1       4.564   5.635  19.601  0.00  0.00    +0.000 OA
ENDROOT
BRANCH   6   9
ATOM      9  C   UNL     1       6.453   5.311  17.441  0.00  0.00    +0.000 A 
ATOM     10  C   UNL     1       7.557   5.316  18.284  0.00  0.00    +0.000 A 
ATOM     11  C   UNL     1       8.034   6.645  18.358  0.00  0.00    +0.000 A 
ATOM     12  C   UNL     1       7.219   7.381  17.535  0.00  0.00    +0.000 A 
ATOM     13  O   UNL     1       6.276   6.588  16.967  0.00  0.00    +0.000 OA
ENDBRANCH   6   9
BRANCH   1  14
ATOM     14  C   UNL     1       2.565   4.312  21.018  0.00  0.00    +0.000 C 
BRANCH  14  16
ATOM     15  O   UNL     1       0.391   5.116  20.418  0.00  0.00    +0.000 OA
ATOM     16  C   UNL     1       1.545   5.410  20.709  0.00  0.00    +0.000 C 
ATOM     17  N   UNL     1       2.049   6.690  20.891  0.00  0.00    +0.000 N 
ATOM     18  H   UNL     1       2.983   6.758  21.295  0.00  0.00    +0.000 HD
BRANCH  17  19
ATOM     19  C   UNL     1       1.360   7.910  20.729  0.00  0.00    +0.000 A 
ATOM     20  C   UNL     1       0.516   8.457  21.698  0.00  0.00    +0.000 A 
ATOM     21  C   UNL     1      -0.128   9.679  21.475  0.00  0.00    +0.000 A 
ATOM     22  C   UNL     1       0.061  10.353  20.273  0.00  0.00    +0.000 A 
ATOM     23 BR   UNL     1      -0.822  11.996  19.972  0.00  0.00    +0.000 Br
ATOM     24  C   UNL     1       0.895   9.821  19.294  0.00  0.00    +0.000 A 
ATOM     25  C   UNL     1       1.545   8.602  19.524  0.00  0.00    +0.000 A 
ENDBRANCH  17  19
ENDBRANCH  14  16
ENDBRANCH   1  14
TORSDOF 4
ENDMDL
MODEL 4
REMARK VINA RESULT:      -7.5      7.437      9.887
REMARK  Name = 
REMARK  4 active torsions:
REMARK  status: ('A' for Active; 'I' for Inactive)
REMARK    1  A    between atoms: C_2  and  C_3
REMARK    2  A    between atoms: C_3  and  N_4
REMARK    3  A    between atoms: C_9  and  C_10
REMARK    4  A    between atoms: N_17  and  C_18
REMARK                            x       y       z     vdW  Elec       q    Type
REMARK                         _______ _______ _______ _____ _____    ______ ____
ROOT
ATOM      1  N   UNL     1       0.160  10.684  21.094  0.00  0.00    +0.000 N 
ATOM      2  C   UNL     1       0.354  11.054  19.794  0.00  0.00    +0.000 C 
ATOM      3  O   UNL     1       1.283  10.752  19.065  0.00  0.00    +0.000 OA
ATOM      4  S   UNL     1      -0.987  12.055  19.259  0.00  0.00    +0.000 S 
ATOM      5  C   UNL     1      -1.679  12.122  20.840  0.00  0.00    +0.000 C 
ATOM      6  C   UNL     1      -2.708  12.919  21.154  0.00  0.00    +0.000 C 
ATOM      7  C   UNL     1      -0.910  11.232  21.758  0.00  0.00    +0.000 C 
ATOM      8  O   UNL     1      -1.153  11.023  22.939  0.00  0.00    +0.000 OA
ENDROOT
BRANCH   6   9
ATOM      9  C   UNL     1      -3.147  13.063  22.492  0.00  0.00    +0.000 A 
ATOM     10  C   UNL     1      -2.762  14.013  23.428  0.00  0.00    +0.000 A 
ATOM     11  C   UNL     1      -3.403  13.697  24.648  0.00  0.00    +0.000 A 
ATOM     12  C   UNL     1      -4.171  12.590  24.391  0.00  0.00    +0.000 A 
ATOM     13  O   UNL     1      -4.038  12.209  23.096  0.00  0.00    +0.000 OA
ENDBRANCH   6   9
BRANCH   1  14
ATOM     14  C   UNL     1       1.080   9.814  21.795  0.00  0.00    +0.000 C 
BRANCH  14  16
ATOM     15  O   UNL     1      -0.244   7.844  21.486  0.00  0.00    +0.000 OA
ATOM     16  C   UNL     1       0.845   8.379  21.318  0.00  0.00    +0.000 C 
ATOM     17  N   UNL     1       1.927   7.849  20.629  0.00  0.00    +0.000 N 
ATOM     18  H   UNL     1       2.700   8.487  20.434  0.00  0.00    +0.000 HD
BRANCH  17  19
ATOM     19  C   UNL     1       2.017   6.575  20.031  0.00  0.00    +0.000 A 
ATOM     20  C   UNL     1       1.780   5.381  20.714  0.00  0.00    +0.000 A 
ATOM     21  C   UNL     1       1.877   4.151  20.054  0.00  0.00    +0.000 A 
ATOM     22  C   UNL     1       2.225   4.111  18.708  0.00  0.00    +0.000 A 
ATOM     23 BR   UNL     1       2.367   2.447  17.826  0.00  0.00    +0.000 Br
ATOM     24  C   UNL     1       2.469   5.292  18.012  0.00  0.00    +0.000 A 
ATOM     25  C   UNL     1       2.363   6.521  18.673  0.00  0.00    +0.000 A 
ENDBRANCH  17  19
ENDBRANCH  14  16
ENDBRANCH   1  14
TORSDOF 4
ENDMDL
MODEL 5
REMARK VINA RESULT:      -7.5      3.288      6.580
REMARK  Name = 
REMARK  4 active torsions:
REMARK  status: ('A' for Active; 'I' for Inactive)
REMARK    1  A    between atoms: C_2  and  C_3
REMARK    2  A    between atoms: C_3  and  N_4
REMARK    3  A    between atoms: C_9  and  C_10
REMARK    4  A    between atoms: N_17  and  C_18
REMARK                            x       y       z     vdW  Elec       q    Type
REMARK                         _______ _______ _______ _____ _____    ______ ____
ROOT
ATOM      1  N   UNL     1       4.102   4.047  18.732  0.00  0.00    +0.000 N 
ATOM      2  C   UNL     1       4.005   3.000  17.863  0.00  0.00    +0.000 C 
ATOM      3  O   UNL     1       3.345   1.983  17.993  0.00  0.00    +0.000 OA
ATOM      4  S   UNL     1       4.981   3.323  16.438  0.00  0.00    +0.000 S 
ATOM      5  C   UNL     1       5.653   4.760  17.120  0.00  0.00    +0.000 C 
ATOM      6  C   UNL     1       6.660   5.436  16.552  0.00  0.00    +0.000 C 
ATOM      7  C   UNL     1       4.993   5.047  18.426  0.00  0.00    +0.000 C 
ATOM      8  O   UNL     1       5.210   6.006  19.155  0.00  0.00    +0.000 OA
ENDROOT
BRANCH   6   9
ATOM      9  C   UNL     1       7.288   6.518  17.216  0.00  0.00    +0.000 A 
ATOM     10  C   UNL     1       8.036   6.493  18.385  0.00  0.00    +0.000 A 
ATOM     11  C   UNL     1       8.378   7.828  18.703  0.00  0.00    +0.000 A 
ATOM     12  C   UNL     1       7.851   8.598  17.698  0.00  0.00    +0.000 A 
ATOM     13  O   UNL     1       7.207   7.822  16.792  0.00  0.00    +0.000 OA
ENDBRANCH   6   9
BRANCH   1  14
ATOM     14  C   UNL     1       3.368   4.087  19.979  0.00  0.00    +0.000 C 
BRANCH  14  16
ATOM     15  O   UNL     1       1.110   4.752  19.537  0.00  0.00    +0.000 OA
ATOM     16  C   UNL     1       2.241   5.114  19.841  0.00  0.00    +0.000 C 
ATOM     17  N   UNL     1       2.631   6.401  20.185  0.00  0.00    +0.000 N 
ATOM     18  H   UNL     1       3.568   6.505  20.575  0.00  0.00    +0.000 HD
BRANCH  17  19
ATOM     19  C   UNL     1       1.827   7.560  20.203  0.00  0.00    +0.000 A 
ATOM     20  C   UNL     1       1.029   7.932  21.286  0.00  0.00    +0.000 A 
ATOM     21  C   UNL     1       0.264   9.102  21.241  0.00  0.00    +0.000 A 
ATOM     22  C   UNL     1       0.287   9.901  20.102  0.00  0.00    +0.000 A 
ATOM     23 BR   UNL     1      -0.758  11.474  20.040  0.00  0.00    +0.000 Br
ATOM     24  C   UNL     1       1.074   9.544  19.011  0.00  0.00    +0.000 A 
ATOM     25  C   UNL     1       1.844   8.377  19.063  0.00  0.00    +0.000 A 
ENDBRANCH  17  19
ENDBRANCH  14  16
ENDBRANCH   1  14
TORSDOF 4
ENDMDL
MODEL 6
REMARK VINA RESULT:      -7.3      6.043      8.317
REMARK  Name = 
REMARK  4 active torsions:
REMARK  status: ('A' for Active; 'I' for Inactive)
REMARK    1  A    between atoms: C_2  and  C_3
REMARK    2  A    between atoms: C_3  and  N_4
REMARK    3  A    between atoms: C_9  and  C_10
REMARK    4  A    between atoms: N_17  and  C_18
REMARK                            x       y       z     vdW  Elec       q    Type
REMARK                         _______ _______ _______ _____ _____    ______ ____
ROOT
ATOM      1  N   UNL     1       1.930   8.483  19.484  0.00  0.00    +0.000 N 
ATOM      2  C   UNL     1       2.230   8.835  18.200  0.00  0.00    +0.000 C 
ATOM      3  O   UNL     1       2.102   9.930  17.679  0.00  0.00    +0.000 OA
ATOM      4  S   UNL     1       2.887   7.447  17.345  0.00  0.00    +0.000 S 
ATOM      5  C   UNL     1       2.563   6.377  18.662  0.00  0.00    +0.000 C 
ATOM      6  C   UNL     1       2.698   5.048  18.572  0.00  0.00    +0.000 C 
ATOM      7  C   UNL     1       2.057   7.159  19.826  0.00  0.00    +0.000 C 
ATOM      8  O   UNL     1       1.763   6.714  20.928  0.00  0.00    +0.000 OA
ENDROOT
BRANCH   6   9
ATOM      9  C   UNL     1       2.276   4.192  19.618  0.00  0.00    +0.000 A 
ATOM     10  C   UNL     1       1.026   3.621  19.812  0.00  0.00    +0.000 A 
ATOM     11  C   UNL     1       1.061   2.919  21.040  0.00  0.00    +0.000 A 
ATOM     12  C   UNL     1       2.337   3.069  21.519  0.00  0.00    +0.000 A 
ATOM     13  O   UNL     1       3.080   3.819  20.667  0.00  0.00    +0.000 OA
ENDBRANCH   6   9
BRANCH   1  14
ATOM     14  C   UNL     1       1.415   9.435  20.445  0.00  0.00    +0.000 C 
BRANCH  14  16
ATOM     15  O   UNL     1      -0.867   8.986  21.015  0.00  0.00    +0.000 OA
ATOM     16  C   UNL     1      -0.098   9.551  20.246  0.00  0.00    +0.000 C 
ATOM     17  N   UNL     1      -0.447  10.405  19.209  0.00  0.00    +0.000 N 
ATOM     18  H   UNL     1       0.314  10.925  18.771  0.00  0.00    +0.000 HD
BRANCH  17  19
ATOM     19  C   UNL     1      -1.748  10.756  18.794  0.00  0.00    +0.000 A 
ATOM     20  C   UNL     1      -2.432  10.113  17.760  0.00  0.00    +0.000 A 
ATOM     21  C   UNL     1      -3.727  10.507  17.408  0.00  0.00    +0.000 A 
ATOM     22  C   UNL     1      -4.340  11.557  18.083  0.00  0.00    +0.000 A 
ATOM     23 BR   UNL     1      -6.085  12.094  17.595  0.00  0.00    +0.000 Br
ATOM     24  C   UNL     1      -3.673  12.213  19.114  0.00  0.00    +0.000 A 
ATOM     25  C   UNL     1      -2.380  11.811  19.469  0.00  0.00    +0.000 A 
ENDBRANCH  17  19
ENDBRANCH  14  16
ENDBRANCH   1  14
TORSDOF 4
ENDMDL
MODEL 7
REMARK VINA RESULT:      -7.2      4.593      6.553
REMARK  Name = 
REMARK  4 active torsions:
REMARK  status: ('A' for Active; 'I' for Inactive)
REMARK    1  A    between atoms: C_2  and  C_3
REMARK    2  A    between atoms: C_3  and  N_4
REMARK    3  A    between atoms: C_9  and  C_10
REMARK    4  A    between atoms: N_17  and  C_18
REMARK                            x       y       z     vdW  Elec       q    Type
REMARK                         _______ _______ _______ _____ _____    ______ ____
ROOT
ATOM      1  N   UNL     1       5.126   4.271  17.965  0.00  0.00    +0.000 N 
ATOM      2  C   UNL     1       6.072   5.044  18.571  0.00  0.00    +0.000 C 
ATOM      3  O   UNL     1       6.048   5.501  19.702  0.00  0.00    +0.000 OA
ATOM      4  S   UNL     1       7.421   5.296  17.474  0.00  0.00    +0.000 S 
ATOM      5  C   UNL     1       6.604   4.529  16.159  0.00  0.00    +0.000 C 
ATOM      6  C   UNL     1       7.072   4.536  14.905  0.00  0.00    +0.000 C 
ATOM      7  C   UNL     1       5.315   3.956  16.641  0.00  0.00    +0.000 C 
ATOM      8  O   UNL     1       4.508   3.319  15.976  0.00  0.00    +0.000 OA
ENDROOT
BRANCH   6   9
ATOM      9  C   UNL     1       6.302   4.033  13.829  0.00  0.00    +0.000 A 
ATOM     10  C   UNL     1       6.695   3.160  12.823  0.00  0.00    +0.000 A 
ATOM     11  C   UNL     1       5.609   3.022  11.928  0.00  0.00    +0.000 A 
ATOM     12  C   UNL     1       4.597   3.790  12.445  0.00  0.00    +0.000 A 
ATOM     13  O   UNL     1       4.997   4.391  13.594  0.00  0.00    +0.000 OA
ENDBRANCH   6   9
BRANCH   1  14
ATOM     14  C   UNL     1       3.916   3.855  18.643  0.00  0.00    +0.000 C 
BRANCH  14  16
ATOM     15  O   UNL     1       1.797   4.673  17.889  0.00  0.00    +0.000 OA
ATOM     16  C   UNL     1       2.855   4.940  18.445  0.00  0.00    +0.000 C 
ATOM     17  N   UNL     1       3.196   6.150  19.033  0.00  0.00    +0.000 N 
ATOM     18  H   UNL     1       4.044   6.158  19.600  0.00  0.00    +0.000 HD
BRANCH  17  19
ATOM     19  C   UNL     1       2.425   7.331  19.065  0.00  0.00    +0.000 A 
ATOM     20  C   UNL     1       2.242   8.166  17.961  0.00  0.00    +0.000 A 
ATOM     21  C   UNL     1       1.454   9.318  18.061  0.00  0.00    +0.000 A 
ATOM     22  C   UNL     1       0.854   9.644  19.273  0.00  0.00    +0.000 A 
ATOM     23 BR   UNL     1      -0.198  11.208  19.406  0.00  0.00    +0.000 Br
ATOM     24  C   UNL     1       1.029   8.825  20.385  0.00  0.00    +0.000 A 
ATOM     25  C   UNL     1       1.811   7.669  20.279  0.00  0.00    +0.000 A 
ENDBRANCH  17  19
ENDBRANCH  14  16
ENDBRANCH   1  14
TORSDOF 4
ENDMDL
MODEL 8
REMARK VINA RESULT:      -7.1      6.106      8.270
REMARK  Name = 
REMARK  4 active torsions:
REMARK  status: ('A' for Active; 'I' for Inactive)
REMARK    1  A    between atoms: C_2  and  C_3
REMARK    2  A    between atoms: C_3  and  N_4
REMARK    3  A    between atoms: C_9  and  C_10
REMARK    4  A    between atoms: N_17  and  C_18
REMARK                            x       y       z     vdW  Elec       q    Type
REMARK                         _______ _______ _______ _____ _____    ______ ____
ROOT
ATOM      1  N   UNL     1       1.796   8.046  20.317  0.00  0.00    +0.000 N 
ATOM      2  C   UNL     1       1.730   8.930  19.278  0.00  0.00    +0.000 C 
ATOM      3  O   UNL     1       1.416  10.107  19.322  0.00  0.00    +0.000 OA
ATOM      4  S   UNL     1       2.207   8.127  17.790  0.00  0.00    +0.000 S 
ATOM      5  C   UNL     1       2.292   6.580  18.552  0.00  0.00    +0.000 C 
ATOM      6  C   UNL     1       2.465   5.439  17.872  0.00  0.00    +0.000 C 
ATOM      7  C   UNL     1       2.073   6.735  20.019  0.00  0.00    +0.000 C 
ATOM      8  O   UNL     1       2.100   5.842  20.856  0.00  0.00    +0.000 OA
ENDROOT
BRANCH   6   9
ATOM      9  C   UNL     1       2.374   4.180  18.511  0.00  0.00    +0.000 A 
ATOM     10  C   UNL     1       1.259   3.366  18.657  0.00  0.00    +0.000 A 
ATOM     11  C   UNL     1       1.639   2.254  19.443  0.00  0.00    +0.000 A 
ATOM     12  C   UNL     1       2.974   2.425  19.711  0.00  0.00    +0.000 A 
ATOM     13  O   UNL     1       3.430   3.570  19.144  0.00  0.00    +0.000 OA
ENDBRANCH   6   9
BRANCH   1  14
ATOM     14  C   UNL     1       1.505   8.434  21.681  0.00  0.00    +0.000 C 
BRANCH  14  16
ATOM     15  O   UNL     1      -0.882   8.251  21.690  0.00  0.00    +0.000 OA
ATOM     16  C   UNL     1       0.084   9.003  21.728  0.00  0.00    +0.000 C 
ATOM     17  N   UNL     1       0.054  10.378  21.909  0.00  0.00    +0.000 N 
ATOM     18  H   UNL     1       0.949  10.835  22.086  0.00  0.00    +0.000 HD
BRANCH  17  19
ATOM     19  C   UNL     1      -1.088  11.198  22.032  0.00  0.00    +0.000 A 
ATOM     20  C   UNL     1      -1.781  11.385  23.230  0.00  0.00    +0.000 A 
ATOM     21  C   UNL     1      -2.900  12.222  23.283  0.00  0.00    +0.000 A 
ATOM     22  C   UNL     1      -3.339  12.867  22.131  0.00  0.00    +0.000 A 
ATOM     23 BR   UNL     1      -4.860  13.985  22.205  0.00  0.00    +0.000 Br
ATOM     24  C   UNL     1      -2.664  12.688  20.927  0.00  0.00    +0.000 A 
ATOM     25  C   UNL     1      -1.538  11.857  20.880  0.00  0.00    +0.000 A 
ENDBRANCH  17  19
ENDBRANCH  14  16
ENDBRANCH   1  14
TORSDOF 4
ENDMDL
MODEL 9
REMARK VINA RESULT:      -7.1      4.570      6.570
REMARK  Name = 
REMARK  4 active torsions:
REMARK  status: ('A' for Active; 'I' for Inactive)
REMARK    1  A    between atoms: C_2  and  C_3
REMARK    2  A    between atoms: C_3  and  N_4
REMARK    3  A    between atoms: C_9  and  C_10
REMARK    4  A    between atoms: N_17  and  C_18
REMARK                            x       y       z     vdW  Elec       q    Type
REMARK                         _______ _______ _______ _____ _____    ______ ____
ROOT
ATOM      1  N   UNL     1       5.173   4.280  17.949  0.00  0.00    +0.000 N 
ATOM      2  C   UNL     1       6.097   5.058  18.584  0.00  0.00    +0.000 C 
ATOM      3  O   UNL     1       6.053   5.487  19.724  0.00  0.00    +0.000 OA
ATOM      4  S   UNL     1       7.451   5.364  17.506  0.00  0.00    +0.000 S 
ATOM      5  C   UNL     1       6.662   4.612  16.165  0.00  0.00    +0.000 C 
ATOM      6  C   UNL     1       7.142   4.660  14.916  0.00  0.00    +0.000 C 
ATOM      7  C   UNL     1       5.380   4.002  16.621  0.00  0.00    +0.000 C 
ATOM      8  O   UNL     1       4.594   3.365  15.932  0.00  0.00    +0.000 OA
ENDROOT
BRANCH   6   9
ATOM      9  C   UNL     1       6.392   4.168  13.820  0.00  0.00    +0.000 A 
ATOM     10  C   UNL     1       5.142   4.579  13.378  0.00  0.00    +0.000 A 
ATOM     11  C   UNL     1       4.767   3.734  12.308  0.00  0.00    +0.000 A 
ATOM     12  C   UNL     1       5.817   2.870  12.128  0.00  0.00    +0.000 A 
ATOM     13  O   UNL     1       6.805   3.131  13.020  0.00  0.00    +0.000 OA
ENDBRANCH   6   9
BRANCH   1  14
ATOM     14  C   UNL     1       3.966   3.823  18.606  0.00  0.00    +0.000 C 
BRANCH  14  16
ATOM     15  O   UNL     1       1.823   4.642  17.919  0.00  0.00    +0.000 OA
ATOM     16  C   UNL     1       2.894   4.905  18.452  0.00  0.00    +0.000 C 
ATOM     17  N   UNL     1       3.245   6.108  19.050  0.00  0.00    +0.000 N 
ATOM     18  H   UNL     1       4.107   6.112  19.596  0.00  0.00    +0.000 HD
BRANCH  17  19
ATOM     19  C   UNL     1       2.469   7.284  19.121  0.00  0.00    +0.000 A 
ATOM     20  C   UNL     1       1.792   7.698  20.270  0.00  0.00    +0.000 A 
ATOM     21  C   UNL     1       1.049   8.883  20.273  0.00  0.00    +0.000 A 
ATOM     22  C   UNL     1       0.969   9.654  19.117  0.00  0.00    +0.000 A 
ATOM     23 BR   UNL     1      -0.047  11.246  19.122  0.00  0.00    +0.000 Br
ATOM     24  C   UNL     1       1.633   9.255  17.961  0.00  0.00    +0.000 A 
ATOM     25  C   UNL     1       2.383   8.073  17.964  0.00  0.00    +0.000 A 
ENDBRANCH  17  19
ENDBRANCH  14  16
ENDBRANCH   1  14
TORSDOF 4
ENDMDL
