MODEL 1
REMARK VINA RESULT:      -6.6      0.000      0.000
REMARK  Name = 
REMARK  10 active torsions:
REMARK  status: ('A' for Active; 'I' for Inactive)
REMARK    1  A    between atoms: O_1  and  C_2
REMARK    2  A    between atoms: C_2  and  C_3
REMARK    3  A    between atoms: C_2  and  C_15
REMARK    4  A    between atoms: C_3  and  N_4
REMARK    5  A    between atoms: N_4  and  C_5
REMARK    6  A    between atoms: C_5  and  C_6
REMARK    7  A    between atoms: C_6  and  O_7
REMARK    8  A    between atoms: O_7  and  C_8
REMARK    9  A    between atoms: C_15  and  O_16
REMARK   10  A    between atoms: O_16  and  C_17
REMARK                            x       y       z     vdW  Elec       q    Type
REMARK                         _______ _______ _______ _____ _____    ______ ____
ROOT
ATOM      1  C   UNL     1       1.362   2.498  19.588  0.00  0.00    +0.000 C 
ENDROOT
BRANCH   1   2
ATOM      2  N   UNL     1       2.441   1.659  19.037  0.00  0.00    +0.000 NA
ATOM      3  H   UNL     1       2.108   0.694  19.010  0.00  0.00    +0.000 HD
BRANCH   2   4
ATOM      4  C   UNL     1       2.789   2.054  17.659  0.00  0.00    +0.000 C 
BRANCH   4   5
ATOM      5  C   UNL     1       3.383   3.467  17.560  0.00  0.00    +0.000 C 
BRANCH   5   6
ATOM      6  O   UNL     1       4.593   3.450  16.796  0.00  0.00    +0.000 OA
BRANCH   6   7
ATOM      7  C   UNL     1       5.409   4.524  17.042  0.00  0.00    +0.000 A 
ATOM      8  C   UNL     1       6.537   4.490  17.870  0.00  0.00    +0.000 A 
ATOM      9  C   UNL     1       7.310   5.637  18.057  0.00  0.00    +0.000 A 
ATOM     10  C   UNL     1       6.964   6.818  17.407  0.00  0.00    +0.000 A 
ATOM     11 CL   UNL     1       7.921   8.227  17.639  0.00  0.00    +0.000 Cl
ATOM     12  C   UNL     1       5.851   6.860  16.569  0.00  0.00    +0.000 A 
ATOM     13  C   UNL     1       5.078   5.710  16.384  0.00  0.00    +0.000 A 
ENDBRANCH   6   7
ENDBRANCH   5   6
ENDBRANCH   4   5
ENDBRANCH   2   4
ENDBRANCH   1   2
BRANCH   1  14
ATOM     14  C   UNL     1       1.832   3.320  20.800  0.00  0.00    +0.000 C 
BRANCH  14  15
ATOM     15  O   UNL     1       1.363   2.692  21.999  0.00  0.00    +0.000 OA
ATOM     16  H   UNL     1       0.406   2.570  21.871  0.00  0.00    +0.000 HD
ENDBRANCH  14  15
BRANCH  14  17
ATOM     17  C   UNL     1       1.278   4.747  20.681  0.00  0.00    +0.000 C 
BRANCH  17  18
ATOM     18  O   UNL     1       2.361   5.683  20.652  0.00  0.00    +0.000 OA
BRANCH  18  19
ATOM     19  C   UNL     1       2.133   6.804  19.900  0.00  0.00    +0.000 A 
ATOM     20  C   UNL     1       1.470   7.843  20.554  0.00  0.00    +0.000 A 
ATOM     21  C   UNL     1       1.205   9.040  19.889  0.00  0.00    +0.000 A 
ATOM     22  C   UNL     1       1.615   9.208  18.567  0.00  0.00    +0.000 A 
ATOM     23  C   UNL     1       2.295   8.180  17.914  0.00  0.00    +0.000 A 
ATOM     24  C   UNL     1       2.555   6.980  18.580  0.00  0.00    +0.000 A 
ENDBRANCH  18  19
ENDBRANCH  17  18
ENDBRANCH  14  17
ENDBRANCH   1  14
TORSDOF 10
ENDMDL
MODEL 2
REMARK VINA RESULT:      -6.6      1.249      1.645
REMARK  Name = 
REMARK  10 active torsions:
REMARK  status: ('A' for Active; 'I' for Inactive)
REMARK    1  A    between atoms: O_1  and  C_2
REMARK    2  A    between atoms: C_2  and  C_3
REMARK    3  A    between atoms: C_2  and  C_15
REMARK    4  A    between atoms: C_3  and  N_4
REMARK    5  A    between atoms: N_4  and  C_5
REMARK    6  A    between atoms: C_5  and  C_6
REMARK    7  A    between atoms: C_6  and  O_7
REMARK    8  A    between atoms: O_7  and  C_8
REMARK    9  A    between atoms: C_15  and  O_16
REMARK   10  A    between atoms: O_16  and  C_17
REMARK                            x       y       z     vdW  Elec       q    Type
REMARK                         _______ _______ _______ _____ _____    ______ ____
ROOT
ATOM      1  C   UNL     1       1.367   2.772  19.669  0.00  0.00    +0.000 C 
ENDROOT
BRANCH   1   2
ATOM      2  N   UNL     1       1.977   2.031  18.551  0.00  0.00    +0.000 NA
ATOM      3  H   UNL     1       2.054   2.667  17.755  0.00  0.00    +0.000 HD
BRANCH   2   4
ATOM      4  C   UNL     1       3.335   1.561  18.885  0.00  0.00    +0.000 C 
BRANCH   4   5
ATOM      5  C   UNL     1       4.381   2.685  18.917  0.00  0.00    +0.000 C 
BRANCH   5   6
ATOM      6  O   UNL     1       4.295   3.483  17.732  0.00  0.00    +0.000 OA
BRANCH   6   7
ATOM      7  C   UNL     1       5.148   4.558  17.734  0.00  0.00    +0.000 A 
ATOM      8  C   UNL     1       6.251   4.693  18.584  0.00  0.00    +0.000 A 
ATOM      9  C   UNL     1       7.065   5.824  18.509  0.00  0.00    +0.000 A 
ATOM     10  C   UNL     1       6.784   6.818  17.575  0.00  0.00    +0.000 A 
ATOM     11 CL   UNL     1       7.791   8.209  17.486  0.00  0.00    +0.000 Cl
ATOM     12  C   UNL     1       5.696   6.687  16.715  0.00  0.00    +0.000 A 
ATOM     13  C   UNL     1       4.882   5.553  16.791  0.00  0.00    +0.000 A 
ENDBRANCH   6   7
ENDBRANCH   5   6
ENDBRANCH   4   5
ENDBRANCH   2   4
ENDBRANCH   1   2
BRANCH   1  14
ATOM     14  C   UNL     1       1.159   4.258  19.331  0.00  0.00    +0.000 C 
BRANCH  14  15
ATOM     15  O   UNL     1       1.586   4.494  17.985  0.00  0.00    +0.000 OA
ATOM     16  H   UNL     1       1.604   3.618  17.560  0.00  0.00    +0.000 HD
ENDBRANCH  14  15
BRANCH  14  17
ATOM     17  C   UNL     1       1.969   5.114  20.316  0.00  0.00    +0.000 C 
BRANCH  17  18
ATOM     18  O   UNL     1       2.772   6.051  19.592  0.00  0.00    +0.000 OA
BRANCH  18  19
ATOM     19  C   UNL     1       2.231   7.303  19.475  0.00  0.00    +0.000 A 
ATOM     20  C   UNL     1       2.353   7.897  18.218  0.00  0.00    +0.000 A 
ATOM     21  C   UNL     1       1.819   9.163  17.981  0.00  0.00    +0.000 A 
ATOM     22  C   UNL     1       1.146   9.837  18.998  0.00  0.00    +0.000 A 
ATOM     23  C   UNL     1       1.003   9.240  20.251  0.00  0.00    +0.000 A 
ATOM     24  C   UNL     1       1.543   7.974  20.489  0.00  0.00    +0.000 A 
ENDBRANCH  18  19
ENDBRANCH  17  18
ENDBRANCH  14  17
ENDBRANCH   1  14
TORSDOF 10
ENDMDL
MODEL 3
REMARK VINA RESULT:      -6.6      0.742      1.627
REMARK  Name = 
REMARK  10 active torsions:
REMARK  status: ('A' for Active; 'I' for Inactive)
REMARK    1  A    between atoms: O_1  and  C_2
REMARK    2  A    between atoms: C_2  and  C_3
REMARK    3  A    between atoms: C_2  and  C_15
REMARK    4  A    between atoms: C_3  and  N_4
REMARK    5  A    between atoms: N_4  and  C_5
REMARK    6  A    between atoms: C_5  and  C_6
REMARK    7  A    between atoms: C_6  and  O_7
REMARK    8  A    between atoms: O_7  and  C_8
REMARK    9  A    between atoms: C_15  and  O_16
REMARK   10  A    between atoms: O_16  and  C_17
REMARK                            x       y       z     vdW  Elec       q    Type
REMARK                         _______ _______ _______ _____ _____    ______ ____
ROOT
ATOM      1  C   UNL     1       2.924   3.403  19.893  0.00  0.00    +0.000 C 
ENDROOT
BRANCH   1   2
ATOM      2  N   UNL     1       2.551   2.135  19.240  0.00  0.00    +0.000 NA
ATOM      3  H   UNL     1       1.563   1.963  19.428  0.00  0.00    +0.000 HD
BRANCH   2   4
ATOM      4  C   UNL     1       2.728   2.202  17.777  0.00  0.00    +0.000 C 
BRANCH   4   5
ATOM      5  C   UNL     1       3.322   3.533  17.294  0.00  0.00    +0.000 C 
BRANCH   5   6
ATOM      6  O   UNL     1       4.717   3.387  17.009  0.00  0.00    +0.000 OA
BRANCH   6   7
ATOM      7  C   UNL     1       5.425   4.555  17.127  0.00  0.00    +0.000 A 
ATOM      8  C   UNL     1       4.988   5.798  16.656  0.00  0.00    +0.000 A 
ATOM      9  C   UNL     1       5.780   6.935  16.825  0.00  0.00    +0.000 A 
ATOM     10  C   UNL     1       7.007   6.833  17.477  0.00  0.00    +0.000 A 
ATOM     11 CL   UNL     1       7.977   8.237  17.685  0.00  0.00    +0.000 Cl
ATOM     12  C   UNL     1       7.445   5.602  17.963  0.00  0.00    +0.000 A 
ATOM     13  C   UNL     1       6.650   4.466  17.792  0.00  0.00    +0.000 A 
ENDBRANCH   6   7
ENDBRANCH   5   6
ENDBRANCH   4   5
ENDBRANCH   2   4
ENDBRANCH   1   2
BRANCH   1  14
ATOM     14  C   UNL     1       1.840   3.891  20.868  0.00  0.00    +0.000 C 
BRANCH  14  15
ATOM     15  O   UNL     1       0.557   3.482  20.380  0.00  0.00    +0.000 OA
ATOM     16  H   UNL     1       0.041   3.245  21.171  0.00  0.00    +0.000 HD
ENDBRANCH  14  15
BRANCH  14  17
ATOM     17  C   UNL     1       1.916   5.421  20.977  0.00  0.00    +0.000 C 
BRANCH  17  18
ATOM     18  O   UNL     1       2.490   5.961  19.782  0.00  0.00    +0.000 OA
BRANCH  18  19
ATOM     19  C   UNL     1       2.130   7.252  19.503  0.00  0.00    +0.000 A 
ATOM     20  C   UNL     1       2.432   7.695  18.214  0.00  0.00    +0.000 A 
ATOM     21  C   UNL     1       2.091   8.988  17.815  0.00  0.00    +0.000 A 
ATOM     22  C   UNL     1       1.433   9.839  18.700  0.00  0.00    +0.000 A 
ATOM     23  C   UNL     1       1.111   9.395  19.983  0.00  0.00    +0.000 A 
ATOM     24  C   UNL     1       1.458   8.103  20.383  0.00  0.00    +0.000 A 
ENDBRANCH  18  19
ENDBRANCH  17  18
ENDBRANCH  14  17
ENDBRANCH   1  14
TORSDOF 10
ENDMDL
MODEL 4
REMARK VINA RESULT:      -6.4      2.121      5.186
REMARK  Name = 
REMARK  10 active torsions:
REMARK  status: ('A' for Active; 'I' for Inactive)
REMARK    1  A    between atoms: O_1  and  C_2
REMARK    2  A    between atoms: C_2  and  C_3
REMARK    3  A    between atoms: C_2  and  C_15
REMARK    4  A    between atoms: C_3  and  N_4
REMARK    5  A    between atoms: N_4  and  C_5
REMARK    6  A    between atoms: C_5  and  C_6
REMARK    7  A    between atoms: C_6  and  O_7
REMARK    8  A    between atoms: O_7  and  C_8
REMARK    9  A    between atoms: C_15  and  O_16
REMARK   10  A    between atoms: O_16  and  C_17
REMARK                            x       y       z     vdW  Elec       q    Type
REMARK                         _______ _______ _______ _____ _____    ______ ____
ROOT
ATOM      1  C   UNL     1       3.854   2.701  19.953  0.00  0.00    +0.000 C 
ENDROOT
BRANCH   1   2
ATOM      2  N   UNL     1       2.736   2.834  20.903  0.00  0.00    +0.000 NA
ATOM      3  H   UNL     1       3.119   3.124  21.803  0.00  0.00    +0.000 HD
BRANCH   2   4
ATOM      4  C   UNL     1       1.772   3.863  20.470  0.00  0.00    +0.000 C 
BRANCH   4   5
ATOM      5  C   UNL     1       2.220   5.295  20.796  0.00  0.00    +0.000 C 
BRANCH   5   6
ATOM      6  O   UNL     1       2.792   5.917  19.641  0.00  0.00    +0.000 OA
BRANCH   6   7
ATOM      7  C   UNL     1       2.276   7.159  19.375  0.00  0.00    +0.000 A 
ATOM      8  C   UNL     1       2.317   7.784  18.124  0.00  0.00    +0.000 A 
ATOM      9  C   UNL     1       1.761   9.053  17.950  0.00  0.00    +0.000 A 
ATOM     10  C   UNL     1       1.151   9.694  19.025  0.00  0.00    +0.000 A 
ATOM     11 CL   UNL     1       0.466  11.255  18.805  0.00  0.00    +0.000 Cl
ATOM     12  C   UNL     1       1.092   9.074  20.272  0.00  0.00    +0.000 A 
ATOM     13  C   UNL     1       1.650   7.805  20.444  0.00  0.00    +0.000 A 
ENDBRANCH   6   7
ENDBRANCH   5   6
ENDBRANCH   4   5
ENDBRANCH   2   4
ENDBRANCH   1   2
BRANCH   1  14
ATOM     14  C   UNL     1       3.408   2.078  18.619  0.00  0.00    +0.000 C 
BRANCH  14  15
ATOM     15  O   UNL     1       4.171   0.890  18.382  0.00  0.00    +0.000 OA
ATOM     16  H   UNL     1       4.966   0.976  18.936  0.00  0.00    +0.000 HD
ENDBRANCH  14  15
BRANCH  14  17
ATOM     17  C   UNL     1       3.628   3.099  17.492  0.00  0.00    +0.000 C 
BRANCH  17  18
ATOM     18  O   UNL     1       5.024   3.196  17.196  0.00  0.00    +0.000 OA
BRANCH  18  19
ATOM     19  C   UNL     1       5.534   4.466  17.233  0.00  0.00    +0.000 A 
ATOM     20  C   UNL     1       6.775   4.598  17.859  0.00  0.00    +0.000 A 
ATOM     21  C   UNL     1       7.397   5.845  17.934  0.00  0.00    +0.000 A 
ATOM     22  C   UNL     1       6.786   6.964  17.371  0.00  0.00    +0.000 A 
ATOM     23  C   UNL     1       5.555   6.834  16.728  0.00  0.00    +0.000 A 
ATOM     24  C   UNL     1       4.930   5.586  16.658  0.00  0.00    +0.000 A 
ENDBRANCH  18  19
ENDBRANCH  17  18
ENDBRANCH  14  17
ENDBRANCH   1  14
TORSDOF 10
ENDMDL
MODEL 5
REMARK VINA RESULT:      -6.4      0.808      1.335
REMARK  Name = 
REMARK  10 active torsions:
REMARK  status: ('A' for Active; 'I' for Inactive)
REMARK    1  A    between atoms: O_1  and  C_2
REMARK    2  A    between atoms: C_2  and  C_3
REMARK    3  A    between atoms: C_2  and  C_15
REMARK    4  A    between atoms: C_3  and  N_4
REMARK    5  A    between atoms: N_4  and  C_5
REMARK    6  A    between atoms: C_5  and  C_6
REMARK    7  A    between atoms: C_6  and  O_7
REMARK    8  A    between atoms: O_7  and  C_8
REMARK    9  A    between atoms: C_15  and  O_16
REMARK   10  A    between atoms: O_16  and  C_17
REMARK                            x       y       z     vdW  Elec       q    Type
REMARK                         _______ _______ _______ _____ _____    ______ ____
ROOT
ATOM      1  C   UNL     1       2.862   2.662  19.838  0.00  0.00    +0.000 C 
ENDROOT
BRANCH   1   2
ATOM      2  N   UNL     1       1.974   2.772  18.668  0.00  0.00    +0.000 NA
ATOM      3  H   UNL     1       1.627   3.731  18.624  0.00  0.00    +0.000 HD
BRANCH   2   4
ATOM      4  C   UNL     1       2.692   2.494  17.409  0.00  0.00    +0.000 C 
BRANCH   4   5
ATOM      5  C   UNL     1       3.515   3.685  16.899  0.00  0.00    +0.000 C 
BRANCH   5   6
ATOM      6  O   UNL     1       4.897   3.521  17.234  0.00  0.00    +0.000 OA
BRANCH   6   7
ATOM      7  C   UNL     1       5.579   4.706  17.342  0.00  0.00    +0.000 A 
ATOM      8  C   UNL     1       5.088   5.945  16.915  0.00  0.00    +0.000 A 
ATOM      9  C   UNL     1       5.856   7.100  17.069  0.00  0.00    +0.000 A 
ATOM     10  C   UNL     1       7.113   7.020  17.663  0.00  0.00    +0.000 A 
ATOM     11 CL   UNL     1       8.055   8.445  17.853  0.00  0.00    +0.000 Cl
ATOM     12  C   UNL     1       7.606   5.793  18.104  0.00  0.00    +0.000 A 
ATOM     13  C   UNL     1       6.835   4.638  17.948  0.00  0.00    +0.000 A 
ENDBRANCH   6   7
ENDBRANCH   5   6
ENDBRANCH   4   5
ENDBRANCH   2   4
ENDBRANCH   1   2
BRANCH   1  14
ATOM     14  C   UNL     1       2.856   3.942  20.690  0.00  0.00    +0.000 C 
BRANCH  14  15
ATOM     15  O   UNL     1       2.230   3.661  21.947  0.00  0.00    +0.000 OA
ATOM     16  H   UNL     1       1.304   3.942  21.846  0.00  0.00    +0.000 HD
ENDBRANCH  14  15
BRANCH  14  17
ATOM     17  C   UNL     1       2.092   5.041  19.936  0.00  0.00    +0.000 C 
BRANCH  17  18
ATOM     18  O   UNL     1       2.951   6.165  19.723  0.00  0.00    +0.000 OA
BRANCH  18  19
ATOM     19  C   UNL     1       2.306   7.334  19.420  0.00  0.00    +0.000 A 
ATOM     20  C   UNL     1       1.625   7.937  20.479  0.00  0.00    +0.000 A 
ATOM     21  C   UNL     1       0.951   9.143  20.288  0.00  0.00    +0.000 A 
ATOM     22  C   UNL     1       0.966   9.759  19.037  0.00  0.00    +0.000 A 
ATOM     23  C   UNL     1       1.661   9.171  17.981  0.00  0.00    +0.000 A 
ATOM     24  C   UNL     1       2.331   7.960  18.172  0.00  0.00    +0.000 A 
ENDBRANCH  18  19
ENDBRANCH  17  18
ENDBRANCH  14  17
ENDBRANCH   1  14
TORSDOF 10
ENDMDL
MODEL 6
REMARK VINA RESULT:      -6.4      2.232      5.209
REMARK  Name = 
REMARK  10 active torsions:
REMARK  status: ('A' for Active; 'I' for Inactive)
REMARK    1  A    between atoms: O_1  and  C_2
REMARK    2  A    between atoms: C_2  and  C_3
REMARK    3  A    between atoms: C_2  and  C_15
REMARK    4  A    between atoms: C_3  and  N_4
REMARK    5  A    between atoms: N_4  and  C_5
REMARK    6  A    between atoms: C_5  and  C_6
REMARK    7  A    between atoms: C_6  and  O_7
REMARK    8  A    between atoms: O_7  and  C_8
REMARK    9  A    between atoms: C_15  and  O_16
REMARK   10  A    between atoms: O_16  and  C_17
REMARK                            x       y       z     vdW  Elec       q    Type
REMARK                         _______ _______ _______ _____ _____    ______ ____
ROOT
ATOM      1  C   UNL     1       2.176   2.569  18.894  0.00  0.00    +0.000 C 
ENDROOT
BRANCH   1   2
ATOM      2  N   UNL     1       1.562   3.905  18.986  0.00  0.00    +0.000 NA
ATOM      3  H   UNL     1       0.707   3.899  18.427  0.00  0.00    +0.000 HD
BRANCH   2   4
ATOM      4  C   UNL     1       1.190   4.240  20.374  0.00  0.00    +0.000 C 
BRANCH   4   5
ATOM      5  C   UNL     1       1.685   5.622  20.823  0.00  0.00    +0.000 C 
BRANCH   5   6
ATOM      6  O   UNL     1       2.488   6.223  19.802  0.00  0.00    +0.000 OA
BRANCH   6   7
ATOM      7  C   UNL     1       2.081   7.487  19.459  0.00  0.00    +0.000 A 
ATOM      8  C   UNL     1       2.252   8.059  18.194  0.00  0.00    +0.000 A 
ATOM      9  C   UNL     1       1.802   9.356  17.938  0.00  0.00    +0.000 A 
ATOM     10  C   UNL     1       1.168  10.079  18.946  0.00  0.00    +0.000 A 
ATOM     11 CL   UNL     1       0.613  11.673  18.625  0.00  0.00    +0.000 Cl
ATOM     12  C   UNL     1       0.979   9.513  20.205  0.00  0.00    +0.000 A 
ATOM     13  C   UNL     1       1.432   8.215  20.459  0.00  0.00    +0.000 A 
ENDBRANCH   6   7
ENDBRANCH   5   6
ENDBRANCH   4   5
ENDBRANCH   2   4
ENDBRANCH   1   2
BRANCH   1  14
ATOM     14  C   UNL     1       3.599   2.626  18.316  0.00  0.00    +0.000 C 
BRANCH  14  15
ATOM     15  O   UNL     1       4.154   1.306  18.313  0.00  0.00    +0.000 OA
ATOM     16  H   UNL     1       4.149   1.019  19.243  0.00  0.00    +0.000 HD
ENDBRANCH  14  15
BRANCH  14  17
ATOM     17  C   UNL     1       4.451   3.571  19.177  0.00  0.00    +0.000 C 
BRANCH  17  18
ATOM     18  O   UNL     1       5.788   3.613  18.668  0.00  0.00    +0.000 OA
BRANCH  18  19
ATOM     19  C   UNL     1       6.220   4.855  18.286  0.00  0.00    +0.000 A 
ATOM     20  C   UNL     1       5.318   5.597  17.522  0.00  0.00    +0.000 A 
ATOM     21  C   UNL     1       5.647   6.884  17.097  0.00  0.00    +0.000 A 
ATOM     22  C   UNL     1       6.876   7.441  17.447  0.00  0.00    +0.000 A 
ATOM     23  C   UNL     1       7.773   6.711  18.227  0.00  0.00    +0.000 A 
ATOM     24  C   UNL     1       7.445   5.420  18.648  0.00  0.00    +0.000 A 
ENDBRANCH  18  19
ENDBRANCH  17  18
ENDBRANCH  14  17
ENDBRANCH   1  14
TORSDOF 10
ENDMDL
MODEL 7
REMARK VINA RESULT:      -6.3      1.755      2.119
REMARK  Name = 
REMARK  10 active torsions:
REMARK  status: ('A' for Active; 'I' for Inactive)
REMARK    1  A    between atoms: O_1  and  C_2
REMARK    2  A    between atoms: C_2  and  C_3
REMARK    3  A    between atoms: C_2  and  C_15
REMARK    4  A    between atoms: C_3  and  N_4
REMARK    5  A    between atoms: N_4  and  C_5
REMARK    6  A    between atoms: C_5  and  C_6
REMARK    7  A    between atoms: C_6  and  O_7
REMARK    8  A    between atoms: O_7  and  C_8
REMARK    9  A    between atoms: C_15  and  O_16
REMARK   10  A    between atoms: O_16  and  C_17
REMARK                            x       y       z     vdW  Elec       q    Type
REMARK                         _______ _______ _______ _____ _____    ______ ____
ROOT
ATOM      1  C   UNL     1       1.569   2.591  20.287  0.00  0.00    +0.000 C 
ENDROOT
BRANCH   1   2
ATOM      2  N   UNL     1       2.471   2.737  21.443  0.00  0.00    +0.000 NA
ATOM      3  H   UNL     1       2.036   2.277  22.244  0.00  0.00    +0.000 HD
BRANCH   2   4
ATOM      4  C   UNL     1       3.774   2.087  21.204  0.00  0.00    +0.000 C 
BRANCH   4   5
ATOM      5  C   UNL     1       4.321   2.318  19.787  0.00  0.00    +0.000 C 
BRANCH   5   6
ATOM      6  O   UNL     1       5.378   3.281  19.809  0.00  0.00    +0.000 OA
BRANCH   6   7
ATOM      7  C   UNL     1       5.332   4.168  18.763  0.00  0.00    +0.000 A 
ATOM      8  C   UNL     1       5.988   5.404  18.742  0.00  0.00    +0.000 A 
ATOM      9  C   UNL     1       5.883   6.240  17.630  0.00  0.00    +0.000 A 
ATOM     10  C   UNL     1       5.131   5.836  16.530  0.00  0.00    +0.000 A 
ATOM     11 CL   UNL     1       5.008   6.868  15.160  0.00  0.00    +0.000 Cl
ATOM     12  C   UNL     1       4.485   4.601  16.534  0.00  0.00    +0.000 A 
ATOM     13  C   UNL     1       4.591   3.766  17.650  0.00  0.00    +0.000 A 
ENDBRANCH   6   7
ENDBRANCH   5   6
ENDBRANCH   4   5
ENDBRANCH   2   4
ENDBRANCH   1   2
BRANCH   1  14
ATOM     14  C   UNL     1       1.000   3.943  19.825  0.00  0.00    +0.000 C 
BRANCH  14  15
ATOM     15  O   UNL     1       1.303   4.125  18.437  0.00  0.00    +0.000 OA
ATOM     16  H   UNL     1       1.077   3.281  18.008  0.00  0.00    +0.000 HD
ENDBRANCH  14  15
BRANCH  14  17
ATOM     17  C   UNL     1       1.626   5.064  20.669  0.00  0.00    +0.000 C 
BRANCH  17  18
ATOM     18  O   UNL     1       2.609   5.758  19.894  0.00  0.00    +0.000 OA
BRANCH  18  19
ATOM     19  C   UNL     1       2.228   7.000  19.460  0.00  0.00    +0.000 A 
ATOM     20  C   UNL     1       1.603   7.805  20.414  0.00  0.00    +0.000 A 
ATOM     21  C   UNL     1       1.194   9.098  20.086  0.00  0.00    +0.000 A 
ATOM     22  C   UNL     1       1.420   9.596  18.804  0.00  0.00    +0.000 A 
ATOM     23  C   UNL     1       2.061   8.803  17.853  0.00  0.00    +0.000 A 
ATOM     24  C   UNL     1       2.466   7.507  18.181  0.00  0.00    +0.000 A 
ENDBRANCH  18  19
ENDBRANCH  17  18
ENDBRANCH  14  17
ENDBRANCH   1  14
TORSDOF 10
ENDMDL
MODEL 8
REMARK VINA RESULT:      -6.3      3.329      4.346
REMARK  Name = 
REMARK  10 active torsions:
REMARK  status: ('A' for Active; 'I' for Inactive)
REMARK    1  A    between atoms: O_1  and  C_2
REMARK    2  A    between atoms: C_2  and  C_3
REMARK    3  A    between atoms: C_2  and  C_15
REMARK    4  A    between atoms: C_3  and  N_4
REMARK    5  A    between atoms: N_4  and  C_5
REMARK    6  A    between atoms: C_5  and  C_6
REMARK    7  A    between atoms: C_6  and  O_7
REMARK    8  A    between atoms: O_7  and  C_8
REMARK    9  A    between atoms: C_15  and  O_16
REMARK   10  A    between atoms: O_16  and  C_17
REMARK                            x       y       z     vdW  Elec       q    Type
REMARK                         _______ _______ _______ _____ _____    ______ ____
ROOT
ATOM      1  C   UNL     1       5.746   4.759  18.791  0.00  0.00    +0.000 C 
ENDROOT
BRANCH   1   2
ATOM      2  N   UNL     1       6.939   3.973  18.431  0.00  0.00    +0.000 NA
ATOM      3  H   UNL     1       6.628   3.053  18.115  0.00  0.00    +0.000 HD
BRANCH   2   4
ATOM      4  C   UNL     1       7.692   4.598  17.327  0.00  0.00    +0.000 C 
BRANCH   4   5
ATOM      5  C   UNL     1       6.949   5.770  16.668  0.00  0.00    +0.000 C 
BRANCH   5   6
ATOM      6  O   UNL     1       7.408   5.963  15.326  0.00  0.00    +0.000 OA
BRANCH   6   7
ATOM      7  C   UNL     1       6.846   5.094  14.425  0.00  0.00    +0.000 A 
ATOM      8  C   UNL     1       5.604   4.473  14.592  0.00  0.00    +0.000 A 
ATOM      9  C   UNL     1       5.112   3.604  13.617  0.00  0.00    +0.000 A 
ATOM     10  C   UNL     1       5.858   3.364  12.465  0.00  0.00    +0.000 A 
ATOM     11 CL   UNL     1       5.247   2.295  11.266  0.00  0.00    +0.000 Cl
ATOM     12  C   UNL     1       7.090   3.989  12.282  0.00  0.00    +0.000 A 
ATOM     13  C   UNL     1       7.580   4.858  13.261  0.00  0.00    +0.000 A 
ENDBRANCH   6   7
ENDBRANCH   5   6
ENDBRANCH   4   5
ENDBRANCH   2   4
ENDBRANCH   1   2
BRANCH   1  14
ATOM     14  C   UNL     1       4.588   3.866  19.267  0.00  0.00    +0.000 C 
BRANCH  14  15
ATOM     15  O   UNL     1       5.108   2.581  19.624  0.00  0.00    +0.000 OA
ATOM     16  H   UNL     1       4.743   2.388  20.505  0.00  0.00    +0.000 HD
ENDBRANCH  14  15
BRANCH  14  17
ATOM     17  C   UNL     1       3.556   3.740  18.136  0.00  0.00    +0.000 C 
BRANCH  17  18
ATOM     18  O   UNL     1       2.258   4.087  18.629  0.00  0.00    +0.000 OA
BRANCH  18  19
ATOM     19  C   UNL     1       2.143   5.368  19.097  0.00  0.00    +0.000 A 
ATOM     20  C   UNL     1       2.398   6.375  18.165  0.00  0.00    +0.000 A 
ATOM     21  C   UNL     1       2.289   7.717  18.528  0.00  0.00    +0.000 A 
ATOM     22  C   UNL     1       1.911   8.059  19.826  0.00  0.00    +0.000 A 
ATOM     23  C   UNL     1       1.637   7.057  20.756  0.00  0.00    +0.000 A 
ATOM     24  C   UNL     1       1.751   5.713  20.393  0.00  0.00    +0.000 A 
ENDBRANCH  18  19
ENDBRANCH  17  18
ENDBRANCH  14  17
ENDBRANCH   1  14
TORSDOF 10
ENDMDL
MODEL 9
REMARK VINA RESULT:      -6.3      4.592      6.710
REMARK  Name = 
REMARK  10 active torsions:
REMARK  status: ('A' for Active; 'I' for Inactive)
REMARK    1  A    between atoms: O_1  and  C_2
REMARK    2  A    between atoms: C_2  and  C_3
REMARK    3  A    between atoms: C_2  and  C_15
REMARK    4  A    between atoms: C_3  and  N_4
REMARK    5  A    between atoms: N_4  and  C_5
REMARK    6  A    between atoms: C_5  and  C_6
REMARK    7  A    between atoms: C_6  and  O_7
REMARK    8  A    between atoms: O_7  and  C_8
REMARK    9  A    between atoms: C_15  and  O_16
REMARK   10  A    between atoms: O_16  and  C_17
REMARK                            x       y       z     vdW  Elec       q    Type
REMARK                         _______ _______ _______ _____ _____    ______ ____
ROOT
ATOM      1  C   UNL     1       5.835   6.436  17.486  0.00  0.00    +0.000 C 
ENDROOT
BRANCH   1   2
ATOM      2  N   UNL     1       6.704   7.520  16.992  0.00  0.00    +0.000 NA
ATOM      3  H   UNL     1       6.145   8.373  16.940  0.00  0.00    +0.000 HD
BRANCH   2   4
ATOM      4  C   UNL     1       7.831   7.774  17.909  0.00  0.00    +0.000 C 
BRANCH   4   5
ATOM      5  C   UNL     1       8.283   9.242  17.929  0.00  0.00    +0.000 C 
BRANCH   5   6
ATOM      6  O   UNL     1       8.785   9.595  19.221  0.00  0.00    +0.000 OA
BRANCH   6   7
ATOM      7  C   UNL     1       9.617  10.685  19.206  0.00  0.00    +0.000 A 
ATOM      8  C   UNL     1      10.092  11.304  18.044  0.00  0.00    +0.000 A 
ATOM      9  C   UNL     1      10.935  12.413  18.130  0.00  0.00    +0.000 A 
ATOM     10  C   UNL     1      11.296  12.913  19.378  0.00  0.00    +0.000 A 
ATOM     11 CL   UNL     1      12.333  14.281  19.478  0.00  0.00    +0.000 Cl
ATOM     12  C   UNL     1      10.817  12.313  20.541  0.00  0.00    +0.000 A 
ATOM     13  C   UNL     1       9.974  11.202  20.453  0.00  0.00    +0.000 A 
ENDBRANCH   6   7
ENDBRANCH   5   6
ENDBRANCH   4   5
ENDBRANCH   2   4
ENDBRANCH   1   2
BRANCH   1  14
ATOM     14  C   UNL     1       5.735   5.275  16.483  0.00  0.00    +0.000 C 
BRANCH  14  15
ATOM     15  O   UNL     1       5.761   5.804  15.153  0.00  0.00    +0.000 OA
ATOM     16  H   UNL     1       5.154   5.244  14.638  0.00  0.00    +0.000 HD
ENDBRANCH  14  15
BRANCH  14  17
ATOM     17  C   UNL     1       4.429   4.506  16.736  0.00  0.00    +0.000 C 
BRANCH  17  18
ATOM     18  O   UNL     1       4.489   3.864  18.013  0.00  0.00    +0.000 OA
BRANCH  18  19
ATOM     19  C   UNL     1       3.292   3.784  18.675  0.00  0.00    +0.000 A 
ATOM     20  C   UNL     1       3.193   4.555  19.834  0.00  0.00    +0.000 A 
ATOM     21  C   UNL     1       2.010   4.565  20.574  0.00  0.00    +0.000 A 
ATOM     22  C   UNL     1       0.916   3.814  20.150  0.00  0.00    +0.000 A 
ATOM     23  C   UNL     1       1.003   3.057  18.982  0.00  0.00    +0.000 A 
ATOM     24  C   UNL     1       2.189   3.043  18.244  0.00  0.00    +0.000 A 
ENDBRANCH  18  19
ENDBRANCH  17  18
ENDBRANCH  14  17
ENDBRANCH   1  14
TORSDOF 10
ENDMDL
