MODEL 1
REMARK VINA RESULT:      -8.3      0.000      0.000
REMARK  Name = 
REMARK  5 active torsions:
REMARK  status: ('A' for Active; 'I' for Inactive)
REMARK    1  A    between atoms: C_1  and  O_2
REMARK    2  A    between atoms: O_2  and  C_3
REMARK    3  A    between atoms: C_6  and  N_7
REMARK    4  A    between atoms: C_11  and  C_13
REMARK    5  A    between atoms: C_15  and  C_16
REMARK                            x       y       z     vdW  Elec       q    Type
REMARK                         _______ _______ _______ _____ _____    ______ ____
ROOT
ATOM      1  N   UNL     1       1.711   8.825  19.350  0.00  0.00    +0.000 N 
ATOM      2  C   UNL     1       1.909   7.881  20.467  0.00  0.00    +0.000 C 
ATOM      3  C   UNL     1       1.983   6.423  19.973  0.00  0.00    +0.000 C 
ATOM      4  N   UNL     1       2.930   6.289  18.857  0.00  0.00    +0.000 N 
ATOM      5  C   UNL     1       3.910   5.296  18.904  0.00  0.00    +0.000 C 
ATOM      6  O   UNL     1       3.900   4.465  19.815  0.00  0.00    +0.000 OA
ATOM      7  C   UNL     1       2.620   7.193  17.738  0.00  0.00    +0.000 C 
ATOM      8  C   UNL     1       2.625   8.662  18.207  0.00  0.00    +0.000 C 
ENDROOT
BRANCH   1  12
ATOM      9  C   UNL     1      -1.730  11.262  19.046  0.00  0.00    +0.000 A 
ATOM     10  C   UNL     1      -1.036  11.153  20.245  0.00  0.00    +0.000 A 
ATOM     11  C   UNL     1       0.111  10.356  20.335  0.00  0.00    +0.000 A 
ATOM     12  C   UNL     1       0.589   9.625  19.237  0.00  0.00    +0.000 A 
ATOM     13  C   UNL     1      -0.140   9.733  18.046  0.00  0.00    +0.000 A 
ATOM     14  C   UNL     1      -1.282  10.541  17.945  0.00  0.00    +0.000 A 
BRANCH   9  16
ATOM     15  C   UNL     1      -3.032  12.800  20.275  0.00  0.00    +0.000 C 
ATOM     16  O   UNL     1      -2.839  12.059  19.076  0.00  0.00    +0.000 OA
ENDBRANCH   9  16
ENDBRANCH   1  12
BRANCH   5  17
ATOM     17  C   UNL     1       4.939   5.281  17.883  0.00  0.00    +0.000 A 
ATOM     18  C   UNL     1       4.895   5.038  16.525  0.00  0.00    +0.000 A 
ATOM     19  C   UNL     1       6.204   5.079  15.930  0.00  0.00    +0.000 A 
ATOM     20  N   UNL     1       7.183   5.419  16.774  0.00  0.00    +0.000 NA
ATOM     21  S   UNL     1       6.545   5.706  18.276  0.00  0.00    +0.000 S 
BRANCH  19  22
ATOM     22  C   UNL     1       6.500   4.752  14.526  0.00  0.00    +0.000 A 
ATOM     23  C   UNL     1       7.553   5.383  13.844  0.00  0.00    +0.000 A 
ATOM     24  C   UNL     1       7.864   5.036  12.525  0.00  0.00    +0.000 A 
ATOM     25  C   UNL     1       7.124   4.053  11.873  0.00  0.00    +0.000 A 
ATOM     26  C   UNL     1       6.080   3.431  12.543  0.00  0.00    +0.000 A 
ATOM     27  F   UNL     1       5.368   2.482  11.922  0.00  0.00    +0.000 F 
ATOM     28  C   UNL     1       5.761   3.768  13.853  0.00  0.00    +0.000 A 
ENDBRANCH  19  22
ENDBRANCH   5  17
TORSDOF 4
ENDMDL
MODEL 2
REMARK VINA RESULT:      -8.1      0.598      1.083
REMARK  Name = 
REMARK  5 active torsions:
REMARK  status: ('A' for Active; 'I' for Inactive)
REMARK    1  A    between atoms: C_1  and  O_2
REMARK    2  A    between atoms: O_2  and  C_3
REMARK    3  A    between atoms: C_6  and  N_7
REMARK    4  A    between atoms: C_11  and  C_13
REMARK    5  A    between atoms: C_15  and  C_16
REMARK                            x       y       z     vdW  Elec       q    Type
REMARK                         _______ _______ _______ _____ _____    ______ ____
ROOT
ATOM      1  N   UNL     1       1.879   8.479  19.516  0.00  0.00    +0.000 N 
ATOM      2  C   UNL     1       2.010   7.441  20.557  0.00  0.00    +0.000 C 
ATOM      3  C   UNL     1       2.011   6.025  19.950  0.00  0.00    +0.000 C 
ATOM      4  N   UNL     1       2.965   5.926  18.836  0.00  0.00    +0.000 N 
ATOM      5  C   UNL     1       3.888   4.879  18.813  0.00  0.00    +0.000 C 
ATOM      6  O   UNL     1       3.821   3.981  19.656  0.00  0.00    +0.000 OA
ATOM      7  C   UNL     1       2.719   6.930  17.788  0.00  0.00    +0.000 C 
ATOM      8  C   UNL     1       2.798   8.355  18.372  0.00  0.00    +0.000 C 
ENDROOT
BRANCH   1  12
ATOM      9  C   UNL     1      -1.397  11.141  19.291  0.00  0.00    +0.000 A 
ATOM     10  C   UNL     1      -0.955  10.456  18.166  0.00  0.00    +0.000 A 
ATOM     11  C   UNL     1       0.120   9.565  18.250  0.00  0.00    +0.000 A 
ATOM     12  C   UNL     1       0.804   9.346  19.456  0.00  0.00    +0.000 A 
ATOM     13  C   UNL     1       0.355  10.064  20.571  0.00  0.00    +0.000 A 
ATOM     14  C   UNL     1      -0.732  10.949  20.497  0.00  0.00    +0.000 A 
BRANCH   9  16
ATOM     15  C   UNL     1      -3.434  11.543  18.170  0.00  0.00    +0.000 C 
ATOM     16  O   UNL     1      -2.447  11.991  19.091  0.00  0.00    +0.000 OA
ENDBRANCH   9  16
ENDBRANCH   1  12
BRANCH   5  17
ATOM     17  C   UNL     1       4.928   4.887  17.804  0.00  0.00    +0.000 A 
ATOM     18  C   UNL     1       4.884   4.826  16.426  0.00  0.00    +0.000 A 
ATOM     19  C   UNL     1       6.200   4.805  15.846  0.00  0.00    +0.000 A 
ATOM     20  N   UNL     1       7.194   4.929  16.732  0.00  0.00    +0.000 NA
ATOM     21  S   UNL     1       6.563   5.087  18.256  0.00  0.00    +0.000 S 
BRANCH  19  22
ATOM     22  C   UNL     1       6.487   4.631  14.413  0.00  0.00    +0.000 A 
ATOM     23  C   UNL     1       7.511   5.361  13.788  0.00  0.00    +0.000 A 
ATOM     24  C   UNL     1       7.813   5.159  12.436  0.00  0.00    +0.000 A 
ATOM     25  C   UNL     1       7.095   4.224  11.696  0.00  0.00    +0.000 A 
ATOM     26  C   UNL     1       6.079   3.504  12.312  0.00  0.00    +0.000 A 
ATOM     27  F   UNL     1       5.388   2.601  11.605  0.00  0.00    +0.000 F 
ATOM     28  C   UNL     1       5.769   3.697  13.652  0.00  0.00    +0.000 A 
ENDBRANCH  19  22
ENDBRANCH   5  17
TORSDOF 4
ENDMDL
MODEL 3
REMARK VINA RESULT:      -8.0      1.059      1.400
REMARK  Name = 
REMARK  5 active torsions:
REMARK  status: ('A' for Active; 'I' for Inactive)
REMARK    1  A    between atoms: C_1  and  O_2
REMARK    2  A    between atoms: O_2  and  C_3
REMARK    3  A    between atoms: C_6  and  N_7
REMARK    4  A    between atoms: C_11  and  C_13
REMARK    5  A    between atoms: C_15  and  C_16
REMARK                            x       y       z     vdW  Elec       q    Type
REMARK                         _______ _______ _______ _____ _____    ______ ____
ROOT
ATOM      1  N   UNL     1       1.525   8.827  19.501  0.00  0.00    +0.000 N 
ATOM      2  C   UNL     1       1.654   7.896  20.639  0.00  0.00    +0.000 C 
ATOM      3  C   UNL     1       1.706   6.429  20.169  0.00  0.00    +0.000 C 
ATOM      4  N   UNL     1       2.692   6.252  19.093  0.00  0.00    +0.000 N 
ATOM      5  C   UNL     1       3.642   5.234  19.193  0.00  0.00    +0.000 C 
ATOM      6  O   UNL     1       3.574   4.418  20.115  0.00  0.00    +0.000 OA
ATOM      7  C   UNL     1       2.450   7.147  17.950  0.00  0.00    +0.000 C 
ATOM      8  C   UNL     1       2.478   8.622  18.397  0.00  0.00    +0.000 C 
ENDROOT
BRANCH   1  12
ATOM      9  C   UNL     1      -1.833  11.351  19.028  0.00  0.00    +0.000 A 
ATOM     10  C   UNL     1      -1.181  11.253  20.251  0.00  0.00    +0.000 A 
ATOM     11  C   UNL     1      -0.061  10.427  20.397  0.00  0.00    +0.000 A 
ATOM     12  C   UNL     1       0.430   9.655  19.333  0.00  0.00    +0.000 A 
ATOM     13  C   UNL     1      -0.257   9.754  18.117  0.00  0.00    +0.000 A 
ATOM     14  C   UNL     1      -1.372  10.590  17.960  0.00  0.00    +0.000 A 
BRANCH   9  16
ATOM     15  C   UNL     1      -3.990  11.763  18.163  0.00  0.00    +0.000 C 
ATOM     16  O   UNL     1      -2.920  12.179  19.003  0.00  0.00    +0.000 OA
ENDBRANCH   9  16
ENDBRANCH   1  12
BRANCH   5  17
ATOM     17  C   UNL     1       4.708   5.176  18.213  0.00  0.00    +0.000 A 
ATOM     18  C   UNL     1       4.701   5.018  16.842  0.00  0.00    +0.000 A 
ATOM     19  C   UNL     1       6.033   4.962  16.301  0.00  0.00    +0.000 A 
ATOM     20  N   UNL     1       7.002   5.152  17.202  0.00  0.00    +0.000 NA
ATOM     21  S   UNL     1       6.330   5.413  18.694  0.00  0.00    +0.000 S 
BRANCH  19  22
ATOM     22  C   UNL     1       6.358   4.689  14.892  0.00  0.00    +0.000 A 
ATOM     23  C   UNL     1       5.613   3.761  14.146  0.00  0.00    +0.000 A 
ATOM     24  C   UNL     1       5.893   3.539  12.793  0.00  0.00    +0.000 A 
ATOM     25  C   UNL     1       6.921   4.243  12.171  0.00  0.00    +0.000 A 
ATOM     26  C   UNL     1       7.661   5.157  12.908  0.00  0.00    +0.000 A 
ATOM     27  F   UNL     1       8.648   5.840  12.314  0.00  0.00    +0.000 F 
ATOM     28  C   UNL     1       7.394   5.386  14.252  0.00  0.00    +0.000 A 
ENDBRANCH  19  22
ENDBRANCH   5  17
TORSDOF 4
ENDMDL
MODEL 4
REMARK VINA RESULT:      -7.9      1.507      2.075
REMARK  Name = 
REMARK  5 active torsions:
REMARK  status: ('A' for Active; 'I' for Inactive)
REMARK    1  A    between atoms: C_1  and  O_2
REMARK    2  A    between atoms: O_2  and  C_3
REMARK    3  A    between atoms: C_6  and  N_7
REMARK    4  A    between atoms: C_11  and  C_13
REMARK    5  A    between atoms: C_15  and  C_16
REMARK                            x       y       z     vdW  Elec       q    Type
REMARK                         _______ _______ _______ _____ _____    ______ ____
ROOT
ATOM      1  N   UNL     1       1.863   7.585  20.370  0.00  0.00    +0.000 N 
ATOM      2  C   UNL     1       1.644   6.246  20.949  0.00  0.00    +0.000 C 
ATOM      3  C   UNL     1       1.467   5.176  19.854  0.00  0.00    +0.000 C 
ATOM      4  N   UNL     1       2.538   5.263  18.850  0.00  0.00    +0.000 N 
ATOM      5  C   UNL     1       3.242   4.110  18.496  0.00  0.00    +0.000 C 
ATOM      6  O   UNL     1       2.885   3.013  18.931  0.00  0.00    +0.000 OA
ATOM      7  C   UNL     1       2.641   6.601  18.246  0.00  0.00    +0.000 C 
ATOM      8  C   UNL     1       2.900   7.668  19.327  0.00  0.00    +0.000 C 
ENDROOT
BRANCH   1  12
ATOM      9  C   UNL     1      -0.782  10.831  20.955  0.00  0.00    +0.000 A 
ATOM     10  C   UNL     1      -0.164  10.626  19.728  0.00  0.00    +0.000 A 
ATOM     11  C   UNL     1       0.698   9.541  19.536  0.00  0.00    +0.000 A 
ATOM     12  C   UNL     1       0.990   8.639  20.571  0.00  0.00    +0.000 A 
ATOM     13  C   UNL     1       0.374   8.879  21.805  0.00  0.00    +0.000 A 
ATOM     14  C   UNL     1      -0.503   9.956  22.000  0.00  0.00    +0.000 A 
BRANCH   9  16
ATOM     15  C   UNL     1      -2.192  12.335  19.807  0.00  0.00    +0.000 C 
ATOM     16  O   UNL     1      -1.595  11.926  21.032  0.00  0.00    +0.000 OA
ENDBRANCH   9  16
ENDBRANCH   1  12
BRANCH   5  17
ATOM     17  C   UNL     1       4.401   4.238  17.635  0.00  0.00    +0.000 A 
ATOM     18  C   UNL     1       4.535   4.300  16.263  0.00  0.00    +0.000 A 
ATOM     19  C   UNL     1       5.915   4.367  15.861  0.00  0.00    +0.000 A 
ATOM     20  N   UNL     1       6.781   4.438  16.876  0.00  0.00    +0.000 NA
ATOM     21  S   UNL     1       5.955   4.440  18.312  0.00  0.00    +0.000 S 
BRANCH  19  22
ATOM     22  C   UNL     1       6.388   4.330  14.468  0.00  0.00    +0.000 A 
ATOM     23  C   UNL     1       5.829   3.438  13.538  0.00  0.00    +0.000 A 
ATOM     24  C   UNL     1       6.247   3.438  12.203  0.00  0.00    +0.000 A 
ATOM     25  C   UNL     1       7.229   4.331  11.782  0.00  0.00    +0.000 A 
ATOM     26  C   UNL     1       7.786   5.210  12.701  0.00  0.00    +0.000 A 
ATOM     27  F   UNL     1       8.728   6.074  12.300  0.00  0.00    +0.000 F 
ATOM     28  C   UNL     1       7.381   5.219  14.030  0.00  0.00    +0.000 A 
ENDBRANCH  19  22
ENDBRANCH   5  17
TORSDOF 4
ENDMDL
MODEL 5
REMARK VINA RESULT:      -7.9      1.212      1.366
REMARK  Name = 
REMARK  5 active torsions:
REMARK  status: ('A' for Active; 'I' for Inactive)
REMARK    1  A    between atoms: C_1  and  O_2
REMARK    2  A    between atoms: O_2  and  C_3
REMARK    3  A    between atoms: C_6  and  N_7
REMARK    4  A    between atoms: C_11  and  C_13
REMARK    5  A    between atoms: C_15  and  C_16
REMARK                            x       y       z     vdW  Elec       q    Type
REMARK                         _______ _______ _______ _____ _____    ______ ____
ROOT
ATOM      1  N   UNL     1       1.870   7.779  20.308  0.00  0.00    +0.000 N 
ATOM      2  C   UNL     1       1.725   6.480  20.992  0.00  0.00    +0.000 C 
ATOM      3  C   UNL     1       1.534   5.327  19.987  0.00  0.00    +0.000 C 
ATOM      4  N   UNL     1       2.552   5.373  18.928  0.00  0.00    +0.000 N 
ATOM      5  C   UNL     1       3.277   4.220  18.623  0.00  0.00    +0.000 C 
ATOM      6  O   UNL     1       2.979   3.147  19.153  0.00  0.00    +0.000 OA
ATOM      7  C   UNL     1       2.580   6.665  18.224  0.00  0.00    +0.000 C 
ATOM      8  C   UNL     1       2.853   7.817  19.212  0.00  0.00    +0.000 C 
ENDROOT
BRANCH   1  12
ATOM      9  C   UNL     1      -0.896  10.929  20.852  0.00  0.00    +0.000 A 
ATOM     10  C   UNL     1      -0.528  10.111  21.913  0.00  0.00    +0.000 A 
ATOM     11  C   UNL     1       0.399   9.080  21.730  0.00  0.00    +0.000 A 
ATOM     12  C   UNL     1       0.973   8.817  20.476  0.00  0.00    +0.000 A 
ATOM     13  C   UNL     1       0.570   9.641  19.417  0.00  0.00    +0.000 A 
ATOM     14  C   UNL     1      -0.349  10.685  19.597  0.00  0.00    +0.000 A 
BRANCH   9  16
ATOM     15  C   UNL     1      -2.048  12.128  22.527  0.00  0.00    +0.000 C 
ATOM     16  O   UNL     1      -1.815  11.897  21.143  0.00  0.00    +0.000 OA
ENDBRANCH   9  16
ENDBRANCH   1  12
BRANCH   5  17
ATOM     17  C   UNL     1       4.389   4.319  17.698  0.00  0.00    +0.000 A 
ATOM     18  C   UNL     1       4.452   4.318  16.320  0.00  0.00    +0.000 A 
ATOM     19  C   UNL     1       5.809   4.381  15.844  0.00  0.00    +0.000 A 
ATOM     20  N   UNL     1       6.725   4.508  16.808  0.00  0.00    +0.000 NA
ATOM     21  S   UNL     1       5.973   4.570  18.284  0.00  0.00    +0.000 S 
BRANCH  19  22
ATOM     22  C   UNL     1       6.211   4.285  14.432  0.00  0.00    +0.000 A 
ATOM     23  C   UNL     1       7.313   5.006  13.944  0.00  0.00    +0.000 A 
ATOM     24  C   UNL     1       7.722   4.876  12.612  0.00  0.00    +0.000 A 
ATOM     25  C   UNL     1       7.034   4.022  11.754  0.00  0.00    +0.000 A 
ATOM     26  C   UNL     1       5.942   3.312  12.233  0.00  0.00    +0.000 A 
ATOM     27  F   UNL     1       5.279   2.487  11.413  0.00  0.00    +0.000 F 
ATOM     28  C   UNL     1       5.524   3.434  13.553  0.00  0.00    +0.000 A 
ENDBRANCH  19  22
ENDBRANCH   5  17
TORSDOF 4
ENDMDL
MODEL 6
REMARK VINA RESULT:      -7.8      1.288      1.715
REMARK  Name = 
REMARK  5 active torsions:
REMARK  status: ('A' for Active; 'I' for Inactive)
REMARK    1  A    between atoms: C_1  and  O_2
REMARK    2  A    between atoms: O_2  and  C_3
REMARK    3  A    between atoms: C_6  and  N_7
REMARK    4  A    between atoms: C_11  and  C_13
REMARK    5  A    between atoms: C_15  and  C_16
REMARK                            x       y       z     vdW  Elec       q    Type
REMARK                         _______ _______ _______ _____ _____    ______ ____
ROOT
ATOM      1  N   UNL     1       1.876   7.536  20.432  0.00  0.00    +0.000 N 
ATOM      2  C   UNL     1       1.679   6.190  21.001  0.00  0.00    +0.000 C 
ATOM      3  C   UNL     1       1.486   5.130  19.899  0.00  0.00    +0.000 C 
ATOM      4  N   UNL     1       2.534   5.234  18.873  0.00  0.00    +0.000 N 
ATOM      5  C   UNL     1       3.238   4.091  18.491  0.00  0.00    +0.000 C 
ATOM      6  O   UNL     1       2.898   2.987  18.923  0.00  0.00    +0.000 OA
ATOM      7  C   UNL     1       2.614   6.579  18.280  0.00  0.00    +0.000 C 
ATOM      8  C   UNL     1       2.889   7.638  19.367  0.00  0.00    +0.000 C 
ENDROOT
BRANCH   1  12
ATOM      9  C   UNL     1      -0.780  10.756  21.107  0.00  0.00    +0.000 A 
ATOM     10  C   UNL     1      -0.214  10.548  19.855  0.00  0.00    +0.000 A 
ATOM     11  C   UNL     1       0.653   9.472  19.635  0.00  0.00    +0.000 A 
ATOM     12  C   UNL     1       1.000   8.581  20.662  0.00  0.00    +0.000 A 
ATOM     13  C   UNL     1       0.435   8.824  21.920  0.00  0.00    +0.000 A 
ATOM     14  C   UNL     1      -0.445   9.893  22.145  0.00  0.00    +0.000 A 
BRANCH   9  16
ATOM     15  C   UNL     1      -1.030  13.086  20.826  0.00  0.00    +0.000 C 
ATOM     16  O   UNL     1      -1.602  11.842  21.211  0.00  0.00    +0.000 OA
ENDBRANCH   9  16
ENDBRANCH   1  12
BRANCH   5  17
ATOM     17  C   UNL     1       4.376   4.236  17.607  0.00  0.00    +0.000 A 
ATOM     18  C   UNL     1       4.484   4.272  16.231  0.00  0.00    +0.000 A 
ATOM     19  C   UNL     1       5.853   4.373  15.802  0.00  0.00    +0.000 A 
ATOM     20  N   UNL     1       6.735   4.493  16.799  0.00  0.00    +0.000 NA
ATOM     21  S   UNL     1       5.935   4.502  18.250  0.00  0.00    +0.000 S 
BRANCH  19  22
ATOM     22  C   UNL     1       6.302   4.321  14.401  0.00  0.00    +0.000 A 
ATOM     23  C   UNL     1       7.336   5.155  13.943  0.00  0.00    +0.000 A 
ATOM     24  C   UNL     1       7.793   5.070  12.623  0.00  0.00    +0.000 A 
ATOM     25  C   UNL     1       7.223   4.150  11.748  0.00  0.00    +0.000 A 
ATOM     26  C   UNL     1       6.198   3.328  12.198  0.00  0.00    +0.000 A 
ATOM     27  F   UNL     1       5.649   2.439  11.361  0.00  0.00    +0.000 F 
ATOM     28  C   UNL     1       5.734   3.404  13.505  0.00  0.00    +0.000 A 
ENDBRANCH  19  22
ENDBRANCH   5  17
TORSDOF 4
ENDMDL
MODEL 7
REMARK VINA RESULT:      -7.8      1.682      2.073
REMARK  Name = 
REMARK  5 active torsions:
REMARK  status: ('A' for Active; 'I' for Inactive)
REMARK    1  A    between atoms: C_1  and  O_2
REMARK    2  A    between atoms: O_2  and  C_3
REMARK    3  A    between atoms: C_6  and  N_7
REMARK    4  A    between atoms: C_11  and  C_13
REMARK    5  A    between atoms: C_15  and  C_16
REMARK                            x       y       z     vdW  Elec       q    Type
REMARK                         _______ _______ _______ _____ _____    ______ ____
ROOT
ATOM      1  N   UNL     1       1.832   7.516  20.488  0.00  0.00    +0.000 N 
ATOM      2  C   UNL     1       1.559   6.157  20.996  0.00  0.00    +0.000 C 
ATOM      3  C   UNL     1       1.357   5.151  19.846  0.00  0.00    +0.000 C 
ATOM      4  N   UNL     1       2.442   5.250  18.859  0.00  0.00    +0.000 N 
ATOM      5  C   UNL     1       3.108   4.092  18.453  0.00  0.00    +0.000 C 
ATOM      6  O   UNL     1       2.708   2.988  18.829  0.00  0.00    +0.000 OA
ATOM      7  C   UNL     1       2.599   6.612  18.323  0.00  0.00    +0.000 C 
ATOM      8  C   UNL     1       2.883   7.614  19.460  0.00  0.00    +0.000 C 
ENDROOT
BRANCH   1  12
ATOM      9  C   UNL     1      -0.749  10.771  21.268  0.00  0.00    +0.000 A 
ATOM     10  C   UNL     1      -0.416   9.868  22.271  0.00  0.00    +0.000 A 
ATOM     11  C   UNL     1       0.451   8.801  22.009  0.00  0.00    +0.000 A 
ATOM     12  C   UNL     1       0.995   8.588  20.733  0.00  0.00    +0.000 A 
ATOM     13  C   UNL     1       0.627   9.498  19.735  0.00  0.00    +0.000 A 
ATOM     14  C   UNL     1      -0.230  10.578  19.993  0.00  0.00    +0.000 A 
BRANCH   9  16
ATOM     15  C   UNL     1      -1.034  12.837  22.373  0.00  0.00    +0.000 C 
ATOM     16  O   UNL     1      -1.610  11.767  21.633  0.00  0.00    +0.000 OA
ENDBRANCH   9  16
ENDBRANCH   1  12
BRANCH   5  17
ATOM     17  C   UNL     1       4.281   4.221  17.611  0.00  0.00    +0.000 A 
ATOM     18  C   UNL     1       4.437   4.276  16.241  0.00  0.00    +0.000 A 
ATOM     19  C   UNL     1       5.823   4.348  15.861  0.00  0.00    +0.000 A 
ATOM     20  N   UNL     1       6.673   4.429  16.890  0.00  0.00    +0.000 NA
ATOM     21  S   UNL     1       5.823   4.434  18.312  0.00  0.00    +0.000 S 
BRANCH  19  22
ATOM     22  C   UNL     1       6.320   4.307  14.476  0.00  0.00    +0.000 A 
ATOM     23  C   UNL     1       5.754   3.434  13.532  0.00  0.00    +0.000 A 
ATOM     24  C   UNL     1       6.195   3.430  12.204  0.00  0.00    +0.000 A 
ATOM     25  C   UNL     1       7.207   4.300  11.806  0.00  0.00    +0.000 A 
ATOM     26  C   UNL     1       7.770   5.160  12.738  0.00  0.00    +0.000 A 
ATOM     27  F   UNL     1       8.740   6.002  12.359  0.00  0.00    +0.000 F 
ATOM     28  C   UNL     1       7.342   5.173  14.060  0.00  0.00    +0.000 A 
ENDBRANCH  19  22
ENDBRANCH   5  17
TORSDOF 4
ENDMDL
MODEL 8
REMARK VINA RESULT:      -7.5      5.504     11.144
REMARK  Name = 
REMARK  5 active torsions:
REMARK  status: ('A' for Active; 'I' for Inactive)
REMARK    1  A    between atoms: C_1  and  O_2
REMARK    2  A    between atoms: O_2  and  C_3
REMARK    3  A    between atoms: C_6  and  N_7
REMARK    4  A    between atoms: C_11  and  C_13
REMARK    5  A    between atoms: C_15  and  C_16
REMARK                            x       y       z     vdW  Elec       q    Type
REMARK                         _______ _______ _______ _____ _____    ______ ____
ROOT
ATOM      1  N   UNL     1       2.199   7.673  19.386  0.00  0.00    +0.000 N 
ATOM      2  C   UNL     1       2.416   8.514  18.193  0.00  0.00    +0.000 C 
ATOM      3  C   UNL     1       1.200   9.414  17.904  0.00  0.00    +0.000 C 
ATOM      4  N   UNL     1       0.772  10.132  19.113  0.00  0.00    +0.000 N 
ATOM      5  C   UNL     1       0.576  11.514  19.058  0.00  0.00    +0.000 C 
ATOM      6  O   UNL     1       0.645  12.102  17.977  0.00  0.00    +0.000 OA
ATOM      7  C   UNL     1       0.481   9.227  20.237  0.00  0.00    +0.000 C 
ATOM      8  C   UNL     1       1.721   8.380  20.587  0.00  0.00    +0.000 C 
ENDROOT
BRANCH   1  12
ATOM      9  C   UNL     1       2.093   3.452  19.181  0.00  0.00    +0.000 A 
ATOM     10  C   UNL     1       2.295   4.217  18.039  0.00  0.00    +0.000 A 
ATOM     11  C   UNL     1       2.344   5.613  18.116  0.00  0.00    +0.000 A 
ATOM     12  C   UNL     1       2.170   6.292  19.332  0.00  0.00    +0.000 A 
ATOM     13  C   UNL     1       1.946   5.500  20.465  0.00  0.00    +0.000 A 
ATOM     14  C   UNL     1       1.910   4.100  20.398  0.00  0.00    +0.000 A 
BRANCH   9  16
ATOM     15  C   UNL     1       3.279   1.502  18.581  0.00  0.00    +0.000 C 
ATOM     16  O   UNL     1       2.054   2.100  18.987  0.00  0.00    +0.000 OA
ENDBRANCH   9  16
ENDBRANCH   1  12
BRANCH   5  17
ATOM     17  C   UNL     1       0.319  12.231  20.291  0.00  0.00    +0.000 A 
ATOM     18  C   UNL     1      -0.753  12.228  21.160  0.00  0.00    +0.000 A 
ATOM     19  C   UNL     1      -0.575  13.167  22.235  0.00  0.00    +0.000 A 
ATOM     20  N   UNL     1       0.607  13.790  22.233  0.00  0.00    +0.000 NA
ATOM     21  S   UNL     1       1.517  13.249  20.958  0.00  0.00    +0.000 S 
BRANCH  19  22
ATOM     22  C   UNL     1      -1.587  13.477  23.258  0.00  0.00    +0.000 A 
ATOM     23  C   UNL     1      -1.478  14.628  24.056  0.00  0.00    +0.000 A 
ATOM     24  C   UNL     1      -2.467  14.946  24.994  0.00  0.00    +0.000 A 
ATOM     25  C   UNL     1      -3.575  14.116  25.144  0.00  0.00    +0.000 A 
ATOM     26  C   UNL     1      -3.682  12.976  24.360  0.00  0.00    +0.000 A 
ATOM     27  F   UNL     1      -4.747  12.177  24.498  0.00  0.00    +0.000 F 
ATOM     28  C   UNL     1      -2.706  12.648  23.426  0.00  0.00    +0.000 A 
ENDBRANCH  19  22
ENDBRANCH   5  17
TORSDOF 4
ENDMDL
MODEL 9
REMARK VINA RESULT:      -7.4      5.727     11.291
REMARK  Name = 
REMARK  5 active torsions:
REMARK  status: ('A' for Active; 'I' for Inactive)
REMARK    1  A    between atoms: C_1  and  O_2
REMARK    2  A    between atoms: O_2  and  C_3
REMARK    3  A    between atoms: C_6  and  N_7
REMARK    4  A    between atoms: C_11  and  C_13
REMARK    5  A    between atoms: C_15  and  C_16
REMARK                            x       y       z     vdW  Elec       q    Type
REMARK                         _______ _______ _______ _____ _____    ______ ____
ROOT
ATOM      1  N   UNL     1       2.214   7.656  19.397  0.00  0.00    +0.000 N 
ATOM      2  C   UNL     1       2.479   8.506  18.221  0.00  0.00    +0.000 C 
ATOM      3  C   UNL     1       1.276   9.411  17.892  0.00  0.00    +0.000 C 
ATOM      4  N   UNL     1       0.802  10.120  19.090  0.00  0.00    +0.000 N 
ATOM      5  C   UNL     1       0.611  11.502  19.040  0.00  0.00    +0.000 C 
ATOM      6  O   UNL     1       0.722  12.099  17.967  0.00  0.00    +0.000 OA
ATOM      7  C   UNL     1       0.467   9.206  20.194  0.00  0.00    +0.000 C 
ATOM      8  C   UNL     1       1.691   8.353  20.585  0.00  0.00    +0.000 C 
ENDROOT
BRANCH   1  12
ATOM      9  C   UNL     1       2.111   3.437  19.152  0.00  0.00    +0.000 A 
ATOM     10  C   UNL     1       2.395   4.210  18.033  0.00  0.00    +0.000 A 
ATOM     11  C   UNL     1       2.443   5.605  18.125  0.00  0.00    +0.000 A 
ATOM     12  C   UNL     1       2.185   6.275  19.331  0.00  0.00    +0.000 A 
ATOM     13  C   UNL     1       1.878   5.475  20.439  0.00  0.00    +0.000 A 
ATOM     14  C   UNL     1       1.843   4.075  20.357  0.00  0.00    +0.000 A 
BRANCH   9  16
ATOM     15  C   UNL     1       3.290   1.512  18.463  0.00  0.00    +0.000 C 
ATOM     16  O   UNL     1       2.081   2.087  18.945  0.00  0.00    +0.000 OA
ENDBRANCH   9  16
ENDBRANCH   1  12
BRANCH   5  17
ATOM     17  C   UNL     1       0.308  12.210  20.268  0.00  0.00    +0.000 A 
ATOM     18  C   UNL     1      -0.794  12.196  21.098  0.00  0.00    +0.000 A 
ATOM     19  C   UNL     1      -0.658  13.128  22.186  0.00  0.00    +0.000 A 
ATOM     20  N   UNL     1       0.521  13.755  22.230  0.00  0.00    +0.000 NA
ATOM     21  S   UNL     1       1.478  13.227  20.984  0.00  0.00    +0.000 S 
BRANCH  19  22
ATOM     22  C   UNL     1      -1.707  13.427  23.174  0.00  0.00    +0.000 A 
ATOM     23  C   UNL     1      -2.830  12.593  23.310  0.00  0.00    +0.000 A 
ATOM     24  C   UNL     1      -3.802  12.853  24.282  0.00  0.00    +0.000 A 
ATOM     25  C   UNL     1      -3.661  13.948  25.131  0.00  0.00    +0.000 A 
ATOM     26  C   UNL     1      -2.555  14.775  24.995  0.00  0.00    +0.000 A 
ATOM     27  F   UNL     1      -2.413  15.827  25.811  0.00  0.00    +0.000 F 
ATOM     28  C   UNL     1      -1.584  14.529  24.032  0.00  0.00    +0.000 A 
ENDBRANCH  19  22
ENDBRANCH   5  17
TORSDOF 4
ENDMDL
