MODEL 1
REMARK VINA RESULT:      -8.1      0.000      0.000
REMARK  Name = 
REMARK  4 active torsions:
REMARK  status: ('A' for Active; 'I' for Inactive)
REMARK    1  A    between atoms: C_2  and  OXT_3
REMARK    2  A    between atoms: C_2  and  CA_4
REMARK    3  A    between atoms: C_6  and  C_7
REMARK    4  A    between atoms: C_8  and  C_9
REMARK                            x       y       z     vdW  Elec       q    Type
REMARK                         _______ _______ _______ _____ _____    ______ ____
ROOT
ATOM      1  C   UNL     1       5.247   5.315  16.026  0.00  0.00    +0.000 C 
ATOM      2  C   UNL     1       4.151   4.681  16.476  0.00  0.00    +0.000 C 
ENDROOT
BRANCH   2   3
ATOM      3  C   UNL     1       3.446   5.109  17.693  0.00  0.00    +0.000 A 
ATOM      4  C   UNL     1       3.636   6.434  18.113  0.00  0.00    +0.000 A 
ATOM      5  C   UNL     1       3.003   6.909  19.256  0.00  0.00    +0.000 A 
ATOM      6  C   UNL     1       2.168   6.067  19.988  0.00  0.00    +0.000 A 
ATOM      7  C   UNL     1       1.956   4.739  19.591  0.00  0.00    +0.000 A 
ATOM      8  C   UNL     1       1.106   3.904  20.338  0.00  0.00    +0.000 A 
ATOM      9  C   UNL     1       0.887   2.580  19.960  0.00  0.00    +0.000 A 
ATOM     10  C   UNL     1       1.521   2.069  18.835  0.00  0.00    +0.000 A 
ATOM     11  C   UNL     1       2.368   2.886  18.082  0.00  0.00    +0.000 A 
ATOM     12  C   UNL     1       2.601   4.237  18.433  0.00  0.00    +0.000 A 
ENDBRANCH   2   3
BRANCH   1  15
ATOM     13  CA  UNL     1       6.194   3.716  12.836  0.00  0.00    +0.000 A 
ATOM     14  C   UNL     1       5.421   4.014  13.934  0.00  0.00    +0.000 A 
ATOM     15  C   UNL     1       5.970   4.924  14.807  0.00  0.00    +0.000 A 
ATOM     16  N   UNL     1       7.180   5.486  14.595  0.00  0.00    +0.000 NA
ATOM     17  C   UNL     1       7.843   5.122  13.489  0.00  0.00    +0.000 A 
ATOM     18  N   UNL     1       7.416   4.246  12.573  0.00  0.00    +0.000 NA
BRANCH  13  20
ATOM     19  O   UNL     1       4.571   2.722  11.369  0.00  0.00    +0.000 OA
ATOM     20  C   UNL     1       5.699   2.735  11.828  0.00  0.00    +0.000 C 
BRANCH  20  21
ATOM     21  OXT UNL     1       6.673   1.855  11.493  0.00  0.00    +0.000 OA
ATOM     22  HXT UNL     1       6.941   2.008  10.557  0.00  0.00    +0.000 HD
ENDBRANCH  20  21
ENDBRANCH  13  20
ENDBRANCH   1  15
TORSDOF 4
ENDMDL
MODEL 2
REMARK VINA RESULT:      -7.9      6.099      8.522
REMARK  Name = 
REMARK  4 active torsions:
REMARK  status: ('A' for Active; 'I' for Inactive)
REMARK    1  A    between atoms: C_2  and  OXT_3
REMARK    2  A    between atoms: C_2  and  CA_4
REMARK    3  A    between atoms: C_6  and  C_7
REMARK    4  A    between atoms: C_8  and  C_9
REMARK                            x       y       z     vdW  Elec       q    Type
REMARK                         _______ _______ _______ _____ _____    ______ ____
ROOT
ATOM      1  C   UNL     1       2.159   7.796  19.514  0.00  0.00    +0.000 C 
ATOM      2  C   UNL     1       2.305   7.424  18.231  0.00  0.00    +0.000 C 
ENDROOT
BRANCH   2   3
ATOM      3  C   UNL     1       3.238   6.361  17.827  0.00  0.00    +0.000 A 
ATOM      4  C   UNL     1       4.503   6.759  17.370  0.00  0.00    +0.000 A 
ATOM      5  C   UNL     1       5.438   5.810  16.969  0.00  0.00    +0.000 A 
ATOM      6  C   UNL     1       5.120   4.455  17.028  0.00  0.00    +0.000 A 
ATOM      7  C   UNL     1       3.865   4.027  17.485  0.00  0.00    +0.000 A 
ATOM      8  C   UNL     1       3.562   2.656  17.543  0.00  0.00    +0.000 A 
ATOM      9  C   UNL     1       2.317   2.214  17.991  0.00  0.00    +0.000 A 
ATOM     10  C   UNL     1       1.355   3.137  18.379  0.00  0.00    +0.000 A 
ATOM     11  C   UNL     1       1.641   4.503  18.326  0.00  0.00    +0.000 A 
ATOM     12  C   UNL     1       2.898   4.982  17.888  0.00  0.00    +0.000 A 
ENDBRANCH   2   3
BRANCH   1  15
ATOM     13  CA  UNL     1       0.046  10.003  21.586  0.00  0.00    +0.000 A 
ATOM     14  C   UNL     1       0.941   9.000  21.293  0.00  0.00    +0.000 A 
ATOM     15  C   UNL     1       1.227   8.843  19.957  0.00  0.00    +0.000 A 
ATOM     16  N   UNL     1       0.670   9.623  19.005  0.00  0.00    +0.000 NA
ATOM     17  C   UNL     1      -0.186  10.571  19.408  0.00  0.00    +0.000 A 
ATOM     18  N   UNL     1      -0.546  10.814  20.673  0.00  0.00    +0.000 NA
BRANCH  13  20
ATOM     19  O   UNL     1      -1.244  10.996  23.354  0.00  0.00    +0.000 OA
ATOM     20  C   UNL     1      -0.342  10.256  23.004  0.00  0.00    +0.000 C 
BRANCH  20  21
ATOM     21  OXT UNL     1       0.448   9.554  23.852  0.00  0.00    +0.000 OA
ATOM     22  HXT UNL     1      -0.089   9.254  24.622  0.00  0.00    +0.000 HD
ENDBRANCH  20  21
ENDBRANCH  13  20
ENDBRANCH   1  15
TORSDOF 4
ENDMDL
MODEL 3
REMARK VINA RESULT:      -7.9      6.949      8.854
REMARK  Name = 
REMARK  4 active torsions:
REMARK  status: ('A' for Active; 'I' for Inactive)
REMARK    1  A    between atoms: C_2  and  OXT_3
REMARK    2  A    between atoms: C_2  and  CA_4
REMARK    3  A    between atoms: C_6  and  C_7
REMARK    4  A    between atoms: C_8  and  C_9
REMARK                            x       y       z     vdW  Elec       q    Type
REMARK                         _______ _______ _______ _____ _____    ______ ____
ROOT
ATOM      1  C   UNL     1       7.990   8.855  17.645  0.00  0.00    +0.000 C 
ATOM      2  C   UNL     1       8.776   9.611  18.430  0.00  0.00    +0.000 C 
ENDROOT
BRANCH   2   3
ATOM      3  C   UNL     1       8.924  11.060  18.223  0.00  0.00    +0.000 A 
ATOM      4  C   UNL     1       7.883  11.722  17.556  0.00  0.00    +0.000 A 
ATOM      5  C   UNL     1       7.954  13.091  17.322  0.00  0.00    +0.000 A 
ATOM      6  C   UNL     1       9.063  13.813  17.759  0.00  0.00    +0.000 A 
ATOM      7  C   UNL     1      10.117  13.179  18.432  0.00  0.00    +0.000 A 
ATOM      8  C   UNL     1      11.226  13.923  18.871  0.00  0.00    +0.000 A 
ATOM      9  C   UNL     1      12.285  13.307  19.538  0.00  0.00    +0.000 A 
ATOM     10  C   UNL     1      12.253  11.939  19.768  0.00  0.00    +0.000 A 
ATOM     11  C   UNL     1      11.159  11.185  19.338  0.00  0.00    +0.000 A 
ATOM     12  C   UNL     1      10.064  11.782  18.670  0.00  0.00    +0.000 A 
ENDBRANCH   2   3
BRANCH   1  15
ATOM     13  CA  UNL     1       7.130   5.303  17.116  0.00  0.00    +0.000 A 
ATOM     14  C   UNL     1       7.266   6.641  16.824  0.00  0.00    +0.000 A 
ATOM     15  C   UNL     1       7.807   7.408  17.830  0.00  0.00    +0.000 A 
ATOM     16  N   UNL     1       8.180   6.880  19.016  0.00  0.00    +0.000 NA
ATOM     17  C   UNL     1       8.004   5.563  19.187  0.00  0.00    +0.000 A 
ATOM     18  N   UNL     1       7.485   4.719  18.289  0.00  0.00    +0.000 NA
BRANCH  13  20
ATOM     19  O   UNL     1       6.811   4.405  14.911  0.00  0.00    +0.000 OA
ATOM     20  C   UNL     1       6.548   4.381  16.100  0.00  0.00    +0.000 C 
BRANCH  20  21
ATOM     21  OXT UNL     1       5.680   3.514  16.676  0.00  0.00    +0.000 OA
ATOM     22  HXT UNL     1       5.452   3.835  17.579  0.00  0.00    +0.000 HD
ENDBRANCH  20  21
ENDBRANCH  13  20
ENDBRANCH   1  15
TORSDOF 4
ENDMDL
MODEL 4
REMARK VINA RESULT:      -7.9      6.145      8.559
REMARK  Name = 
REMARK  4 active torsions:
REMARK  status: ('A' for Active; 'I' for Inactive)
REMARK    1  A    between atoms: C_2  and  OXT_3
REMARK    2  A    between atoms: C_2  and  CA_4
REMARK    3  A    between atoms: C_6  and  C_7
REMARK    4  A    between atoms: C_8  and  C_9
REMARK                            x       y       z     vdW  Elec       q    Type
REMARK                         _______ _______ _______ _____ _____    ______ ____
ROOT
ATOM      1  C   UNL     1       1.815   8.490  18.722  0.00  0.00    +0.000 C 
ATOM      2  C   UNL     1       2.248   7.326  19.235  0.00  0.00    +0.000 C 
ENDROOT
BRANCH   2   3
ATOM      3  C   UNL     1       2.937   6.319  18.415  0.00  0.00    +0.000 A 
ATOM      4  C   UNL     1       3.994   6.763  17.608  0.00  0.00    +0.000 A 
ATOM      5  C   UNL     1       4.692   5.868  16.804  0.00  0.00    +0.000 A 
ATOM      6  C   UNL     1       4.343   4.519  16.803  0.00  0.00    +0.000 A 
ATOM      7  C   UNL     1       3.293   4.045  17.602  0.00  0.00    +0.000 A 
ATOM      8  C   UNL     1       2.957   2.680  17.594  0.00  0.00    +0.000 A 
ATOM      9  C   UNL     1       1.913   2.192  18.380  0.00  0.00    +0.000 A 
ATOM     10  C   UNL     1       1.185   3.064  19.178  0.00  0.00    +0.000 A 
ATOM     11  C   UNL     1       1.505   4.423  19.197  0.00  0.00    +0.000 A 
ATOM     12  C   UNL     1       2.566   4.946  18.421  0.00  0.00    +0.000 A 
ENDBRANCH   2   3
BRANCH   1  15
ATOM     13  CA  UNL     1       0.167  10.332  21.466  0.00  0.00    +0.000 A 
ATOM     14  C   UNL     1       0.813   9.296  20.831  0.00  0.00    +0.000 A 
ATOM     15  C   UNL     1       1.135   9.526  19.513  0.00  0.00    +0.000 A 
ATOM     16  N   UNL     1       0.838  10.688  18.892  0.00  0.00    +0.000 NA
ATOM     17  C   UNL     1       0.210  11.628  19.611  0.00  0.00    +0.000 A 
ATOM     18  N   UNL     1      -0.158  11.518  20.892  0.00  0.00    +0.000 NA
BRANCH  13  20
ATOM     19  O   UNL     1       0.433   9.631  23.749  0.00  0.00    +0.000 OA
ATOM     20  C   UNL     1      -0.235  10.187  22.894  0.00  0.00    +0.000 C 
BRANCH  20  21
ATOM     21  OXT UNL     1      -1.446  10.753  23.114  0.00  0.00    +0.000 OA
ATOM     22  HXT UNL     1      -1.357  11.452  23.803  0.00  0.00    +0.000 HD
ENDBRANCH  20  21
ENDBRANCH  13  20
ENDBRANCH   1  15
TORSDOF 4
ENDMDL
MODEL 5
REMARK VINA RESULT:      -7.8      5.908      8.196
REMARK  Name = 
REMARK  4 active torsions:
REMARK  status: ('A' for Active; 'I' for Inactive)
REMARK    1  A    between atoms: C_2  and  OXT_3
REMARK    2  A    between atoms: C_2  and  CA_4
REMARK    3  A    between atoms: C_6  and  C_7
REMARK    4  A    between atoms: C_8  and  C_9
REMARK                            x       y       z     vdW  Elec       q    Type
REMARK                         _______ _______ _______ _____ _____    ______ ____
ROOT
ATOM      1  C   UNL     1       1.783   8.601  18.199  0.00  0.00    +0.000 C 
ATOM      2  C   UNL     1       2.285   7.487  18.758  0.00  0.00    +0.000 C 
ENDROOT
BRANCH   2   3
ATOM      3  C   UNL     1       3.156   6.564  18.016  0.00  0.00    +0.000 A 
ATOM      4  C   UNL     1       4.259   7.119  17.350  0.00  0.00    +0.000 A 
ATOM      5  C   UNL     1       5.127   6.309  16.626  0.00  0.00    +0.000 A 
ATOM      6  C   UNL     1       4.904   4.935  16.564  0.00  0.00    +0.000 A 
ATOM      7  C   UNL     1       3.812   4.351  17.222  0.00  0.00    +0.000 A 
ATOM      8  C   UNL     1       3.605   2.962  17.155  0.00  0.00    +0.000 A 
ATOM      9  C   UNL     1       2.521   2.365  17.800  0.00  0.00    +0.000 A 
ATOM     10  C   UNL     1       1.626   3.150  18.514  0.00  0.00    +0.000 A 
ATOM     11  C   UNL     1       1.818   4.531  18.590  0.00  0.00    +0.000 A 
ATOM     12  C   UNL     1       2.913   5.164  17.958  0.00  0.00    +0.000 A 
ENDBRANCH   2   3
BRANCH   1  15
ATOM     13  CA  UNL     1      -0.819  11.089  19.017  0.00  0.00    +0.000 A 
ATOM     14  C   UNL     1      -0.086  10.214  18.249  0.00  0.00    +0.000 A 
ATOM     15  C   UNL     1       0.920   9.552  18.914  0.00  0.00    +0.000 A 
ATOM     16  N   UNL     1       1.165   9.749  20.228  0.00  0.00    +0.000 NA
ATOM     17  C   UNL     1       0.385  10.623  20.876  0.00  0.00    +0.000 A 
ATOM     18  N   UNL     1      -0.616  11.328  20.338  0.00  0.00    +0.000 NA
BRANCH  13  20
ATOM     19  O   UNL     1      -3.027  12.028  18.899  0.00  0.00    +0.000 OA
ATOM     20  C   UNL     1      -1.930  11.865  18.396  0.00  0.00    +0.000 C 
BRANCH  20  21
ATOM     21  OXT UNL     1      -1.556  12.363  17.192  0.00  0.00    +0.000 OA
ATOM     22  HXT UNL     1      -0.986  11.705  16.732  0.00  0.00    +0.000 HD
ENDBRANCH  20  21
ENDBRANCH  13  20
ENDBRANCH   1  15
TORSDOF 4
ENDMDL
MODEL 6
REMARK VINA RESULT:      -7.8      4.089      5.874
REMARK  Name = 
REMARK  4 active torsions:
REMARK  status: ('A' for Active; 'I' for Inactive)
REMARK    1  A    between atoms: C_2  and  OXT_3
REMARK    2  A    between atoms: C_2  and  CA_4
REMARK    3  A    between atoms: C_6  and  C_7
REMARK    4  A    between atoms: C_8  and  C_9
REMARK                            x       y       z     vdW  Elec       q    Type
REMARK                         _______ _______ _______ _____ _____    ______ ____
ROOT
ATOM      1  C   UNL     1       2.882   7.287  18.223  0.00  0.00    +0.000 C 
ATOM      2  C   UNL     1       2.264   7.689  19.347  0.00  0.00    +0.000 C 
ENDROOT
BRANCH   2   3
ATOM      3  C   UNL     1       1.296   8.796  19.353  0.00  0.00    +0.000 A 
ATOM      4  C   UNL     1       0.956   9.357  18.113  0.00  0.00    +0.000 A 
ATOM      5  C   UNL     1       0.048  10.409  18.040  0.00  0.00    +0.000 A 
ATOM      6  C   UNL     1      -0.533  10.905  19.205  0.00  0.00    +0.000 A 
ATOM      7  C   UNL     1      -0.216  10.361  20.458  0.00  0.00    +0.000 A 
ATOM      8  C   UNL     1      -0.816  10.870  21.623  0.00  0.00    +0.000 A 
ATOM      9  C   UNL     1      -0.508  10.344  22.878  0.00  0.00    +0.000 A 
ATOM     10  C   UNL     1       0.409   9.307  22.986  0.00  0.00    +0.000 A 
ATOM     11  C   UNL     1       1.014   8.791  21.837  0.00  0.00    +0.000 A 
ATOM     12  C   UNL     1       0.714   9.295  20.550  0.00  0.00    +0.000 A 
ENDBRANCH   2   3
BRANCH   1  15
ATOM     13  CA  UNL     1       5.855   5.212  17.526  0.00  0.00    +0.000 A 
ATOM     14  C   UNL     1       5.042   6.322  17.514  0.00  0.00    +0.000 A 
ATOM     15  C   UNL     1       3.845   6.177  18.177  0.00  0.00    +0.000 A 
ATOM     16  N   UNL     1       3.499   5.028  18.796  0.00  0.00    +0.000 NA
ATOM     17  C   UNL     1       4.372   4.013  18.744  0.00  0.00    +0.000 A 
ATOM     18  N   UNL     1       5.559   4.032  18.128  0.00  0.00    +0.000 NA
BRANCH  13  20
ATOM     19  O   UNL     1       7.527   6.139  16.070  0.00  0.00    +0.000 OA
ATOM     20  C   UNL     1       7.174   5.256  16.832  0.00  0.00    +0.000 C 
BRANCH  20  21
ATOM     21  OXT UNL     1       7.927   4.178  17.158  0.00  0.00    +0.000 OA
ATOM     22  HXT UNL     1       7.931   3.544  16.404  0.00  0.00    +0.000 HD
ENDBRANCH  20  21
ENDBRANCH  13  20
ENDBRANCH   1  15
TORSDOF 4
ENDMDL
MODEL 7
REMARK VINA RESULT:      -7.7      6.028      8.851
REMARK  Name = 
REMARK  4 active torsions:
REMARK  status: ('A' for Active; 'I' for Inactive)
REMARK    1  A    between atoms: C_2  and  OXT_3
REMARK    2  A    between atoms: C_2  and  CA_4
REMARK    3  A    between atoms: C_6  and  C_7
REMARK    4  A    between atoms: C_8  and  C_9
REMARK                            x       y       z     vdW  Elec       q    Type
REMARK                         _______ _______ _______ _____ _____    ______ ____
ROOT
ATOM      1  C   UNL     1       2.052   7.422  19.584  0.00  0.00    +0.000 C 
ATOM      2  C   UNL     1       2.250   7.115  18.291  0.00  0.00    +0.000 C 
ENDROOT
BRANCH   2   3
ATOM      3  C   UNL     1       2.893   5.858  17.877  0.00  0.00    +0.000 A 
ATOM      4  C   UNL     1       2.103   4.699  17.888  0.00  0.00    +0.000 A 
ATOM      5  C   UNL     1       2.643   3.475  17.511  0.00  0.00    +0.000 A 
ATOM      6  C   UNL     1       3.976   3.397  17.113  0.00  0.00    +0.000 A 
ATOM      7  C   UNL     1       4.789   4.539  17.087  0.00  0.00    +0.000 A 
ATOM      8  C   UNL     1       6.131   4.445  16.678  0.00  0.00    +0.000 A 
ATOM      9  C   UNL     1       6.954   5.570  16.651  0.00  0.00    +0.000 A 
ATOM     10  C   UNL     1       6.450   6.804  17.041  0.00  0.00    +0.000 A 
ATOM     11  C   UNL     1       5.120   6.914  17.452  0.00  0.00    +0.000 A 
ATOM     12  C   UNL     1       4.256   5.794  17.478  0.00  0.00    +0.000 A 
ENDBRANCH   2   3
BRANCH   1  15
ATOM     13  CA  UNL     1       0.279   9.950  21.608  0.00  0.00    +0.000 A 
ATOM     14  C   UNL     1       0.875   8.748  21.303  0.00  0.00    +0.000 A 
ATOM     15  C   UNL     1       1.402   8.661  20.035  0.00  0.00    +0.000 A 
ATOM     16  N   UNL     1       1.340   9.687  19.158  0.00  0.00    +0.000 NA
ATOM     17  C   UNL     1       0.739  10.811  19.567  0.00  0.00    +0.000 A 
ATOM     18  N   UNL     1       0.185  11.012  20.768  0.00  0.00    +0.000 NA
BRANCH  13  20
ATOM     19  O   UNL     1      -1.379  10.739  23.158  0.00  0.00    +0.000 OA
ATOM     20  C   UNL     1      -0.332  10.151  22.953  0.00  0.00    +0.000 C 
BRANCH  20  21
ATOM     21  OXT UNL     1       0.436   9.594  23.920  0.00  0.00    +0.000 OA
ATOM     22  HXT UNL     1      -0.008   8.784  24.262  0.00  0.00    +0.000 HD
ENDBRANCH  20  21
ENDBRANCH  13  20
ENDBRANCH   1  15
TORSDOF 4
ENDMDL
MODEL 8
REMARK VINA RESULT:      -7.7      1.050      2.431
REMARK  Name = 
REMARK  4 active torsions:
REMARK  status: ('A' for Active; 'I' for Inactive)
REMARK    1  A    between atoms: C_2  and  OXT_3
REMARK    2  A    between atoms: C_2  and  CA_4
REMARK    3  A    between atoms: C_6  and  C_7
REMARK    4  A    between atoms: C_8  and  C_9
REMARK                            x       y       z     vdW  Elec       q    Type
REMARK                         _______ _______ _______ _____ _____    ______ ____
ROOT
ATOM      1  C   UNL     1       5.378   4.542  16.682  0.00  0.00    +0.000 C 
ATOM      2  C   UNL     1       4.087   4.252  16.915  0.00  0.00    +0.000 C 
ENDROOT
BRANCH   2   3
ATOM      3  C   UNL     1       3.506   4.306  18.265  0.00  0.00    +0.000 A 
ATOM      4  C   UNL     1       3.527   3.124  19.020  0.00  0.00    +0.000 A 
ATOM      5  C   UNL     1       2.995   3.098  20.304  0.00  0.00    +0.000 A 
ATOM      6  C   UNL     1       2.442   4.255  20.850  0.00  0.00    +0.000 A 
ATOM      7  C   UNL     1       2.410   5.452  20.121  0.00  0.00    +0.000 A 
ATOM      8  C   UNL     1       1.853   6.612  20.688  0.00  0.00    +0.000 A 
ATOM      9  C   UNL     1       1.810   7.810  19.974  0.00  0.00    +0.000 A 
ATOM     10  C   UNL     1       2.315   7.863  18.683  0.00  0.00    +0.000 A 
ATOM     11  C   UNL     1       2.871   6.719  18.105  0.00  0.00    +0.000 A 
ATOM     12  C   UNL     1       2.941   5.493  18.806  0.00  0.00    +0.000 A 
ENDBRANCH   2   3
BRANCH   1  15
ATOM     13  CA  UNL     1       6.117   3.770  13.147  0.00  0.00    +0.000 A 
ATOM     14  C   UNL     1       5.452   3.728  14.351  0.00  0.00    +0.000 A 
ATOM     15  C   UNL     1       5.990   4.512  15.345  0.00  0.00    +0.000 A 
ATOM     16  N   UNL     1       7.090   5.270  15.148  0.00  0.00    +0.000 NA
ATOM     17  C   UNL     1       7.653   5.235  13.933  0.00  0.00    +0.000 A 
ATOM     18  N   UNL     1       7.226   4.510  12.893  0.00  0.00    +0.000 NA
BRANCH  13  20
ATOM     19  O   UNL     1       4.561   3.128  11.432  0.00  0.00    +0.000 OA
ATOM     20  C   UNL     1       5.624   2.953  12.002  0.00  0.00    +0.000 C 
BRANCH  20  21
ATOM     21  OXT UNL     1       6.516   1.984  11.681  0.00  0.00    +0.000 OA
ATOM     22  HXT UNL     1       6.115   1.102  11.860  0.00  0.00    +0.000 HD
ENDBRANCH  20  21
ENDBRANCH  13  20
ENDBRANCH   1  15
TORSDOF 4
ENDMDL
MODEL 9
REMARK VINA RESULT:      -7.6      0.943      1.169
REMARK  Name = 
REMARK  4 active torsions:
REMARK  status: ('A' for Active; 'I' for Inactive)
REMARK    1  A    between atoms: C_2  and  OXT_3
REMARK    2  A    between atoms: C_2  and  CA_4
REMARK    3  A    between atoms: C_6  and  C_7
REMARK    4  A    between atoms: C_8  and  C_9
REMARK                            x       y       z     vdW  Elec       q    Type
REMARK                         _______ _______ _______ _____ _____    ______ ____
ROOT
ATOM      1  C   UNL     1       5.000   5.551  15.825  0.00  0.00    +0.000 C 
ATOM      2  C   UNL     1       4.449   4.773  16.771  0.00  0.00    +0.000 C 
ENDROOT
BRANCH   2   3
ATOM      3  C   UNL     1       3.692   5.334  17.901  0.00  0.00    +0.000 A 
ATOM      4  C   UNL     1       3.359   6.695  17.837  0.00  0.00    +0.000 A 
ATOM      5  C   UNL     1       2.646   7.295  18.869  0.00  0.00    +0.000 A 
ATOM      6  C   UNL     1       2.254   6.540  19.973  0.00  0.00    +0.000 A 
ATOM      7  C   UNL     1       2.570   5.177  20.063  0.00  0.00    +0.000 A 
ATOM      8  C   UNL     1       2.162   4.428  21.181  0.00  0.00    +0.000 A 
ATOM      9  C   UNL     1       2.472   3.072  21.288  0.00  0.00    +0.000 A 
ATOM     10  C   UNL     1       3.199   2.448  20.284  0.00  0.00    +0.000 A 
ATOM     11  C   UNL     1       3.613   3.179  19.167  0.00  0.00    +0.000 A 
ATOM     12  C   UNL     1       3.304   4.552  19.023  0.00  0.00    +0.000 A 
ENDBRANCH   2   3
BRANCH   1  15
ATOM     13  CA  UNL     1       5.973   3.686  12.790  0.00  0.00    +0.000 A 
ATOM     14  C   UNL     1       5.170   4.117  13.822  0.00  0.00    +0.000 A 
ATOM     15  C   UNL     1       5.751   5.026  14.675  0.00  0.00    +0.000 A 
ATOM     16  N   UNL     1       7.017   5.466  14.506  0.00  0.00    +0.000 NA
ATOM     17  C   UNL     1       7.704   4.979  13.464  0.00  0.00    +0.000 A 
ATOM     18  N   UNL     1       7.251   4.090  12.573  0.00  0.00    +0.000 NA
BRANCH  13  20
ATOM     19  O   UNL     1       6.041   1.692  11.451  0.00  0.00    +0.000 OA
ATOM     20  C   UNL     1       5.447   2.693  11.810  0.00  0.00    +0.000 C 
BRANCH  20  21
ATOM     21  OXT UNL     1       4.218   3.057  11.368  0.00  0.00    +0.000 OA
ATOM     22  HXT UNL     1       3.878   2.367  10.753  0.00  0.00    +0.000 HD
ENDBRANCH  20  21
ENDBRANCH  13  20
ENDBRANCH   1  15
TORSDOF 4
ENDMDL
