MODEL 1
REMARK VINA RESULT:      -8.6      0.000      0.000
REMARK  Name = 
REMARK  2 active torsions:
REMARK  status: ('A' for Active; 'I' for Inactive)
REMARK    1  A    between atoms: C_1  and  C_2
REMARK    2  A    between atoms: C_2  and  C_3
REMARK                            x       y       z     vdW  Elec       q    Type
REMARK                         _______ _______ _______ _____ _____    ______ ____
ROOT
ATOM      1  C   UNL     1       7.728   4.475  16.813  0.00  0.00    +0.000 C 
ATOM      2  C   UNL     1       6.375   4.706  16.113  0.00  0.00    +0.000 C 
ATOM      3  C   UNL     1       5.813   6.112  16.449  0.00  0.00    +0.000 C 
ATOM      4  C   UNL     1       4.603   5.768  17.207  0.00  0.00    +0.000 C 
ATOM      5  C   UNL     1       4.455   4.457  17.294  0.00  0.00    +0.000 C 
ATOM      6  O   UNL     1       5.445   3.711  16.673  0.00  0.00    +0.000 OA
ATOM      7  C   UNL     1       3.332   3.820  17.985  0.00  0.00    +0.000 A 
ATOM      8  C   UNL     1       3.193   2.429  18.081  0.00  0.00    +0.000 A 
ATOM      9  C   UNL     1       2.097   1.867  18.750  0.00  0.00    +0.000 A 
ATOM     10  C   UNL     1       1.127   2.686  19.330  0.00  0.00    +0.000 A 
ATOM     11  C   UNL     1       1.250   4.069  19.246  0.00  0.00    +0.000 A 
ATOM     12  C   UNL     1       2.346   4.632  18.580  0.00  0.00    +0.000 A 
ATOM     13  C   UNL     1       2.455   6.112  18.506  0.00  0.00    +0.000 C 
ATOM     14  O   UNL     1       1.606   6.836  19.007  0.00  0.00    +0.000 OA
ATOM     15  C   UNL     1       3.658   6.714  17.792  0.00  0.00    +0.000 C 
ATOM     16  O   UNL     1       3.828   7.919  17.711  0.00  0.00    +0.000 OA
ENDROOT
BRANCH   2  17
ATOM     17  C   UNL     1       6.546   4.522  14.601  0.00  0.00    +0.000 A 
ATOM     18  C   UNL     1       5.731   3.647  13.867  0.00  0.00    +0.000 A 
ATOM     19  C   UNL     1       5.929   3.464  12.495  0.00  0.00    +0.000 A 
ATOM     20  C   UNL     1       6.939   4.158  11.832  0.00  0.00    +0.000 A 
ATOM     21  C   UNL     1       7.746   5.045  12.536  0.00  0.00    +0.000 A 
ATOM     22  C   UNL     1       7.550   5.228  13.907  0.00  0.00    +0.000 A 
ENDBRANCH   2  17
TORSDOF 1
ENDMDL
MODEL 2
REMARK VINA RESULT:      -8.5      0.074      1.030
REMARK  Name = 
REMARK  2 active torsions:
REMARK  status: ('A' for Active; 'I' for Inactive)
REMARK    1  A    between atoms: C_1  and  C_2
REMARK    2  A    between atoms: C_2  and  C_3
REMARK                            x       y       z     vdW  Elec       q    Type
REMARK                         _______ _______ _______ _____ _____    ______ ____
ROOT
ATOM      1  C   UNL     1       7.743   4.477  16.885  0.00  0.00    +0.000 C 
ATOM      2  C   UNL     1       6.411   4.706  16.148  0.00  0.00    +0.000 C 
ATOM      3  C   UNL     1       5.836   6.111  16.470  0.00  0.00    +0.000 C 
ATOM      4  C   UNL     1       4.607   5.764  17.194  0.00  0.00    +0.000 C 
ATOM      5  C   UNL     1       4.458   4.452  17.275  0.00  0.00    +0.000 C 
ATOM      6  O   UNL     1       5.466   3.709  16.681  0.00  0.00    +0.000 OA
ATOM      7  C   UNL     1       3.318   3.813  17.934  0.00  0.00    +0.000 A 
ATOM      8  C   UNL     1       3.178   2.422  18.025  0.00  0.00    +0.000 A 
ATOM      9  C   UNL     1       2.066   1.858  18.662  0.00  0.00    +0.000 A 
ATOM     10  C   UNL     1       1.078   2.673  19.216  0.00  0.00    +0.000 A 
ATOM     11  C   UNL     1       1.201   4.057  19.137  0.00  0.00    +0.000 A 
ATOM     12  C   UNL     1       2.314   4.623  18.502  0.00  0.00    +0.000 A 
ATOM     13  C   UNL     1       2.422   6.103  18.433  0.00  0.00    +0.000 C 
ATOM     14  O   UNL     1       1.559   6.825  18.911  0.00  0.00    +0.000 OA
ATOM     15  C   UNL     1       3.644   6.708  17.753  0.00  0.00    +0.000 C 
ATOM     16  O   UNL     1       3.815   7.913  17.678  0.00  0.00    +0.000 OA
ENDROOT
BRANCH   2  17
ATOM     17  C   UNL     1       6.623   4.525  14.642  0.00  0.00    +0.000 A 
ATOM     18  C   UNL     1       7.589   5.261  13.938  0.00  0.00    +0.000 A 
ATOM     19  C   UNL     1       7.740   5.109  12.556  0.00  0.00    +0.000 A 
ATOM     20  C   UNL     1       6.934   4.215  11.856  0.00  0.00    +0.000 A 
ATOM     21  C   UNL     1       5.984   3.461  12.535  0.00  0.00    +0.000 A 
ATOM     22  C   UNL     1       5.831   3.612  13.915  0.00  0.00    +0.000 A 
ENDBRANCH   2  17
TORSDOF 1
ENDMDL
MODEL 3
REMARK VINA RESULT:      -8.0      1.528      1.645
REMARK  Name = 
REMARK  2 active torsions:
REMARK  status: ('A' for Active; 'I' for Inactive)
REMARK    1  A    between atoms: C_1  and  C_2
REMARK    2  A    between atoms: C_2  and  C_3
REMARK                            x       y       z     vdW  Elec       q    Type
REMARK                         _______ _______ _______ _____ _____    ______ ____
ROOT
ATOM      1  C   UNL     1       7.489   5.862  17.661  0.00  0.00    +0.000 C 
ATOM      2  C   UNL     1       6.086   5.449  17.177  0.00  0.00    +0.000 C 
ATOM      3  C   UNL     1       5.085   6.626  17.321  0.00  0.00    +0.000 C 
ATOM      4  C   UNL     1       4.160   6.099  18.332  0.00  0.00    +0.000 C 
ATOM      5  C   UNL     1       4.508   4.877  18.703  0.00  0.00    +0.000 C 
ATOM      6  O   UNL     1       5.638   4.374  18.078  0.00  0.00    +0.000 OA
ATOM      7  C   UNL     1       3.764   4.097  19.693  0.00  0.00    +0.000 A 
ATOM      8  C   UNL     1       4.150   2.808  20.086  0.00  0.00    +0.000 A 
ATOM      9  C   UNL     1       3.402   2.099  21.034  0.00  0.00    +0.000 A 
ATOM     10  C   UNL     1       2.259   2.665  21.602  0.00  0.00    +0.000 A 
ATOM     11  C   UNL     1       1.862   3.943  21.224  0.00  0.00    +0.000 A 
ATOM     12  C   UNL     1       2.610   4.655  20.278  0.00  0.00    +0.000 A 
ATOM     13  C   UNL     1       2.166   6.019  19.894  0.00  0.00    +0.000 C 
ATOM     14  O   UNL     1       1.162   6.521  20.381  0.00  0.00    +0.000 OA
ATOM     15  C   UNL     1       2.994   6.790  18.874  0.00  0.00    +0.000 C 
ATOM     16  O   UNL     1       2.707   7.923  18.527  0.00  0.00    +0.000 OA
ENDROOT
BRANCH   2  17
ATOM     17  C   UNL     1       6.170   4.964  15.726  0.00  0.00    +0.000 A 
ATOM     18  C   UNL     1       5.127   4.241  15.128  0.00  0.00    +0.000 A 
ATOM     19  C   UNL     1       5.239   3.773  13.815  0.00  0.00    +0.000 A 
ATOM     20  C   UNL     1       6.392   4.026  13.076  0.00  0.00    +0.000 A 
ATOM     21  C   UNL     1       7.430   4.758  13.642  0.00  0.00    +0.000 A 
ATOM     22  C   UNL     1       7.320   5.225  14.953  0.00  0.00    +0.000 A 
ENDBRANCH   2  17
TORSDOF 1
ENDMDL
MODEL 4
REMARK VINA RESULT:      -7.9      1.507      1.903
REMARK  Name = 
REMARK  2 active torsions:
REMARK  status: ('A' for Active; 'I' for Inactive)
REMARK    1  A    between atoms: C_1  and  C_2
REMARK    2  A    between atoms: C_2  and  C_3
REMARK                            x       y       z     vdW  Elec       q    Type
REMARK                         _______ _______ _______ _____ _____    ______ ____
ROOT
ATOM      1  C   UNL     1       7.539   5.818  17.680  0.00  0.00    +0.000 C 
ATOM      2  C   UNL     1       6.137   5.421  17.181  0.00  0.00    +0.000 C 
ATOM      3  C   UNL     1       5.150   6.612  17.303  0.00  0.00    +0.000 C 
ATOM      4  C   UNL     1       4.205   6.106  18.306  0.00  0.00    +0.000 C 
ATOM      5  C   UNL     1       4.531   4.883  18.691  0.00  0.00    +0.000 C 
ATOM      6  O   UNL     1       5.663   4.359  18.085  0.00  0.00    +0.000 OA
ATOM      7  C   UNL     1       3.764   4.120  19.677  0.00  0.00    +0.000 A 
ATOM      8  C   UNL     1       4.127   2.830  20.086  0.00  0.00    +0.000 A 
ATOM      9  C   UNL     1       3.357   2.139  21.030  0.00  0.00    +0.000 A 
ATOM     10  C   UNL     1       2.215   2.725  21.578  0.00  0.00    +0.000 A 
ATOM     11  C   UNL     1       1.840   4.006  21.185  0.00  0.00    +0.000 A 
ATOM     12  C   UNL     1       2.610   4.700  20.243  0.00  0.00    +0.000 A 
ATOM     13  C   UNL     1       2.190   6.066  19.842  0.00  0.00    +0.000 C 
ATOM     14  O   UNL     1       1.187   6.585  20.312  0.00  0.00    +0.000 OA
ATOM     15  C   UNL     1       3.042   6.818  18.827  0.00  0.00    +0.000 C 
ATOM     16  O   UNL     1       2.775   7.952  18.467  0.00  0.00    +0.000 OA
ENDROOT
BRANCH   2  17
ATOM     17  C   UNL     1       6.232   4.923  15.736  0.00  0.00    +0.000 A 
ATOM     18  C   UNL     1       7.349   5.197  14.932  0.00  0.00    +0.000 A 
ATOM     19  C   UNL     1       7.399   4.767  13.602  0.00  0.00    +0.000 A 
ATOM     20  C   UNL     1       6.337   4.051  13.056  0.00  0.00    +0.000 A 
ATOM     21  C   UNL     1       5.228   3.751  13.839  0.00  0.00    +0.000 A 
ATOM     22  C   UNL     1       5.177   4.180  15.168  0.00  0.00    +0.000 A 
ENDBRANCH   2  17
TORSDOF 1
ENDMDL
MODEL 5
REMARK VINA RESULT:      -7.7      4.139      6.513
REMARK  Name = 
REMARK  2 active torsions:
REMARK  status: ('A' for Active; 'I' for Inactive)
REMARK    1  A    between atoms: C_1  and  C_2
REMARK    2  A    between atoms: C_2  and  C_3
REMARK                            x       y       z     vdW  Elec       q    Type
REMARK                         _______ _______ _______ _____ _____    ______ ____
ROOT
ATOM      1  C   UNL     1       4.235   5.859  19.868  0.00  0.00    +0.000 C 
ATOM      2  C   UNL     1       2.761   6.062  19.470  0.00  0.00    +0.000 C 
ATOM      3  C   UNL     1       2.642   7.043  18.273  0.00  0.00    +0.000 C 
ATOM      4  C   UNL     1       1.935   8.171  18.892  0.00  0.00    +0.000 C 
ATOM      5  C   UNL     1       1.668   7.924  20.163  0.00  0.00    +0.000 C 
ATOM      6  O   UNL     1       2.103   6.692  20.627  0.00  0.00    +0.000 OA
ATOM      7  C   UNL     1       0.960   8.867  21.032  0.00  0.00    +0.000 A 
ATOM      8  C   UNL     1       0.694   8.599  22.382  0.00  0.00    +0.000 A 
ATOM      9  C   UNL     1       0.009   9.532  23.171  0.00  0.00    +0.000 A 
ATOM     10  C   UNL     1      -0.420  10.742  22.625  0.00  0.00    +0.000 A 
ATOM     11  C   UNL     1      -0.163  11.026  21.288  0.00  0.00    +0.000 A 
ATOM     12  C   UNL     1       0.524  10.095  20.497  0.00  0.00    +0.000 A 
ATOM     13  C   UNL     1       0.787  10.423  19.073  0.00  0.00    +0.000 C 
ATOM     14  O   UNL     1       0.409  11.479  18.584  0.00  0.00    +0.000 OA
ATOM     15  C   UNL     1       1.547   9.410  18.225  0.00  0.00    +0.000 C 
ATOM     16  O   UNL     1       1.821   9.619  17.055  0.00  0.00    +0.000 OA
ENDROOT
BRANCH   2  17
ATOM     17  C   UNL     1       2.131   4.704  19.140  0.00  0.00    +0.000 A 
ATOM     18  C   UNL     1       1.167   4.116  19.973  0.00  0.00    +0.000 A 
ATOM     19  C   UNL     1       0.633   2.859  19.675  0.00  0.00    +0.000 A 
ATOM     20  C   UNL     1       1.049   2.171  18.537  0.00  0.00    +0.000 A 
ATOM     21  C   UNL     1       1.989   2.743  17.687  0.00  0.00    +0.000 A 
ATOM     22  C   UNL     1       2.523   3.999  17.984  0.00  0.00    +0.000 A 
ENDBRANCH   2  17
TORSDOF 1
ENDMDL
MODEL 6
REMARK VINA RESULT:      -7.6      4.083      6.488
REMARK  Name = 
REMARK  2 active torsions:
REMARK  status: ('A' for Active; 'I' for Inactive)
REMARK    1  A    between atoms: C_1  and  C_2
REMARK    2  A    between atoms: C_2  and  C_3
REMARK                            x       y       z     vdW  Elec       q    Type
REMARK                         _______ _______ _______ _____ _____    ______ ____
ROOT
ATOM      1  C   UNL     1       4.332   5.890  19.792  0.00  0.00    +0.000 C 
ATOM      2  C   UNL     1       2.847   6.059  19.420  0.00  0.00    +0.000 C 
ATOM      3  C   UNL     1       2.685   7.033  18.223  0.00  0.00    +0.000 C 
ATOM      4  C   UNL     1       1.965   8.148  18.850  0.00  0.00    +0.000 C 
ATOM      5  C   UNL     1       1.726   7.900  20.127  0.00  0.00    +0.000 C 
ATOM      6  O   UNL     1       2.197   6.680  20.587  0.00  0.00    +0.000 OA
ATOM      7  C   UNL     1       1.015   8.830  21.006  0.00  0.00    +0.000 A 
ATOM      8  C   UNL     1       0.780   8.562  22.361  0.00  0.00    +0.000 A 
ATOM      9  C   UNL     1       0.089   9.482  23.160  0.00  0.00    +0.000 A 
ATOM     10  C   UNL     1      -0.375  10.682  22.618  0.00  0.00    +0.000 A 
ATOM     11  C   UNL     1      -0.150  10.966  21.275  0.00  0.00    +0.000 A 
ATOM     12  C   UNL     1       0.542  10.047  20.475  0.00  0.00    +0.000 A 
ATOM     13  C   UNL     1       0.772  10.375  19.045  0.00  0.00    +0.000 C 
ATOM     14  O   UNL     1       0.363  11.421  18.560  0.00  0.00    +0.000 OA
ATOM     15  C   UNL     1       1.538   9.376  18.187  0.00  0.00    +0.000 C 
ATOM     16  O   UNL     1       1.786   9.586  17.012  0.00  0.00    +0.000 OA
ENDROOT
BRANCH   2  17
ATOM     17  C   UNL     1       2.240   4.687  19.107  0.00  0.00    +0.000 A 
ATOM     18  C   UNL     1       2.628   3.949  17.979  0.00  0.00    +0.000 A 
ATOM     19  C   UNL     1       2.033   2.717  17.689  0.00  0.00    +0.000 A 
ATOM     20  C   UNL     1       1.046   2.200  18.525  0.00  0.00    +0.000 A 
ATOM     21  C   UNL     1       0.660   2.905  19.659  0.00  0.00    +0.000 A 
ATOM     22  C   UNL     1       1.253   4.136  19.949  0.00  0.00    +0.000 A 
ENDBRANCH   2  17
TORSDOF 1
ENDMDL
MODEL 7
REMARK VINA RESULT:      -6.8      8.120     10.954
REMARK  Name = 
REMARK  2 active torsions:
REMARK  status: ('A' for Active; 'I' for Inactive)
REMARK    1  A    between atoms: C_1  and  C_2
REMARK    2  A    between atoms: C_2  and  C_3
REMARK                            x       y       z     vdW  Elec       q    Type
REMARK                         _______ _______ _______ _____ _____    ______ ____
ROOT
ATOM      1  C   UNL     1      -0.150  12.932  18.427  0.00  0.00    +0.000 C 
ATOM      2  C   UNL     1      -1.029  11.717  18.778  0.00  0.00    +0.000 C 
ATOM      3  C   UNL     1      -1.953  11.343  17.589  0.00  0.00    +0.000 C 
ATOM      4  C   UNL     1      -3.280  11.621  18.154  0.00  0.00    +0.000 C 
ATOM      5  C   UNL     1      -3.184  12.046  19.403  0.00  0.00    +0.000 C 
ATOM      6  O   UNL     1      -1.892  12.139  19.895  0.00  0.00    +0.000 OA
ATOM      7  C   UNL     1      -4.346  12.392  20.224  0.00  0.00    +0.000 A 
ATOM      8  C   UNL     1      -4.231  12.854  21.542  0.00  0.00    +0.000 A 
ATOM      9  C   UNL     1      -5.374  13.169  22.289  0.00  0.00    +0.000 A 
ATOM     10  C   UNL     1      -6.645  13.026  21.731  0.00  0.00    +0.000 A 
ATOM     11  C   UNL     1      -6.779  12.570  20.423  0.00  0.00    +0.000 A 
ATOM     12  C   UNL     1      -5.637  12.257  19.674  0.00  0.00    +0.000 A 
ATOM     13  C   UNL     1      -5.806  11.775  18.280  0.00  0.00    +0.000 C 
ATOM     14  O   UNL     1      -6.917  11.641  17.785  0.00  0.00    +0.000 OA
ATOM     15  C   UNL     1      -4.558  11.451  17.469  0.00  0.00    +0.000 C 
ATOM     16  O   UNL     1      -4.615  11.074  16.311  0.00  0.00    +0.000 OA
ENDROOT
BRANCH   2  17
ATOM     17  C   UNL     1      -0.134  10.539  19.178  0.00  0.00    +0.000 A 
ATOM     18  C   UNL     1      -0.153  10.004  20.475  0.00  0.00    +0.000 A 
ATOM     19  C   UNL     1       0.701   8.955  20.830  0.00  0.00    +0.000 A 
ATOM     20  C   UNL     1       1.582   8.419  19.895  0.00  0.00    +0.000 A 
ATOM     21  C   UNL     1       1.605   8.921  18.598  0.00  0.00    +0.000 A 
ATOM     22  C   UNL     1       0.753   9.969  18.242  0.00  0.00    +0.000 A 
ENDBRANCH   2  17
TORSDOF 1
ENDMDL
MODEL 8
REMARK VINA RESULT:      -6.7      8.105     10.957
REMARK  Name = 
REMARK  2 active torsions:
REMARK  status: ('A' for Active; 'I' for Inactive)
REMARK    1  A    between atoms: C_1  and  C_2
REMARK    2  A    between atoms: C_2  and  C_3
REMARK                            x       y       z     vdW  Elec       q    Type
REMARK                         _______ _______ _______ _____ _____    ______ ____
ROOT
ATOM      1  C   UNL     1      -0.133  13.007  18.476  0.00  0.00    +0.000 C 
ATOM      2  C   UNL     1      -0.989  11.772  18.813  0.00  0.00    +0.000 C 
ATOM      3  C   UNL     1      -1.904  11.392  17.619  0.00  0.00    +0.000 C 
ATOM      4  C   UNL     1      -3.237  11.640  18.183  0.00  0.00    +0.000 C 
ATOM      5  C   UNL     1      -3.152  12.055  19.436  0.00  0.00    +0.000 C 
ATOM      6  O   UNL     1      -1.863  12.167  19.932  0.00  0.00    +0.000 OA
ATOM      7  C   UNL     1      -4.322  12.372  20.257  0.00  0.00    +0.000 A 
ATOM      8  C   UNL     1      -4.219  12.823  21.579  0.00  0.00    +0.000 A 
ATOM      9  C   UNL     1      -5.370  13.109  22.326  0.00  0.00    +0.000 A 
ATOM     10  C   UNL     1      -6.637  12.947  21.764  0.00  0.00    +0.000 A 
ATOM     11  C   UNL     1      -6.758  12.502  20.452  0.00  0.00    +0.000 A 
ATOM     12  C   UNL     1      -5.609  12.218  19.702  0.00  0.00    +0.000 A 
ATOM     13  C   UNL     1      -5.766  11.746  18.303  0.00  0.00    +0.000 C 
ATOM     14  O   UNL     1      -6.873  11.596  17.804  0.00  0.00    +0.000 OA
ATOM     15  C   UNL     1      -4.510  11.453  17.493  0.00  0.00    +0.000 C 
ATOM     16  O   UNL     1      -4.557  11.086  16.331  0.00  0.00    +0.000 OA
ENDROOT
BRANCH   2  17
ATOM     17  C   UNL     1      -0.073  10.608  19.204  0.00  0.00    +0.000 A 
ATOM     18  C   UNL     1       0.793  10.007  18.279  0.00  0.00    +0.000 A 
ATOM     19  C   UNL     1       1.592   8.920  18.646  0.00  0.00    +0.000 A 
ATOM     20  C   UNL     1       1.543   8.419  19.945  0.00  0.00    +0.000 A 
ATOM     21  C   UNL     1       0.706   9.011  20.883  0.00  0.00    +0.000 A 
ATOM     22  C   UNL     1      -0.093  10.097  20.518  0.00  0.00    +0.000 A 
ENDBRANCH   2  17
TORSDOF 1
ENDMDL
MODEL 9
REMARK VINA RESULT:      -6.7      6.733      9.540
REMARK  Name = 
REMARK  2 active torsions:
REMARK  status: ('A' for Active; 'I' for Inactive)
REMARK    1  A    between atoms: C_1  and  C_2
REMARK    2  A    between atoms: C_2  and  C_3
REMARK                            x       y       z     vdW  Elec       q    Type
REMARK                         _______ _______ _______ _____ _____    ______ ____
ROOT
ATOM      1  C   UNL     1       1.953  11.548  18.239  0.00  0.00    +0.000 C 
ATOM      2  C   UNL     1       0.862  10.693  18.909  0.00  0.00    +0.000 C 
ATOM      3  C   UNL     1      -0.443  10.705  18.068  0.00  0.00    +0.000 C 
ATOM      4  C   UNL     1      -1.367  11.396  18.975  0.00  0.00    +0.000 C 
ATOM      5  C   UNL     1      -0.769  11.713  20.111  0.00  0.00    +0.000 C 
ATOM      6  O   UNL     1       0.563  11.339  20.198  0.00  0.00    +0.000 OA
ATOM      7  C   UNL     1      -1.448  12.402  21.210  0.00  0.00    +0.000 A 
ATOM      8  C   UNL     1      -0.800  12.744  22.405  0.00  0.00    +0.000 A 
ATOM      9  C   UNL     1      -1.495  13.399  23.430  0.00  0.00    +0.000 A 
ATOM     10  C   UNL     1      -2.844  13.722  23.277  0.00  0.00    +0.000 A 
ATOM     11  C   UNL     1      -3.503  13.392  22.097  0.00  0.00    +0.000 A 
ATOM     12  C   UNL     1      -2.810  12.738  21.070  0.00  0.00    +0.000 A 
ATOM     13  C   UNL     1      -3.536  12.399  19.820  0.00  0.00    +0.000 C 
ATOM     14  O   UNL     1      -4.720  12.672  19.679  0.00  0.00    +0.000 OA
ATOM     15  C   UNL     1      -2.769  11.701  18.704  0.00  0.00    +0.000 C 
ATOM     16  O   UNL     1      -3.290  11.412  17.640  0.00  0.00    +0.000 OA
ENDROOT
BRANCH   2  17
ATOM     17  C   UNL     1       1.382   9.266  19.107  0.00  0.00    +0.000 A 
ATOM     18  C   UNL     1       1.285   8.609  20.343  0.00  0.00    +0.000 A 
ATOM     19  C   UNL     1       1.802   7.320  20.513  0.00  0.00    +0.000 A 
ATOM     20  C   UNL     1       2.419   6.665  19.450  0.00  0.00    +0.000 A 
ATOM     21  C   UNL     1       2.509   7.290  18.211  0.00  0.00    +0.000 A 
ATOM     22  C   UNL     1       1.994   8.576  18.039  0.00  0.00    +0.000 A 
ENDBRANCH   2  17
TORSDOF 1
ENDMDL
