MODEL 1
REMARK VINA RESULT:      -8.6      0.000      0.000
REMARK  Name = 
REMARK  6 active torsions:
REMARK  status: ('A' for Active; 'I' for Inactive)
REMARK    1  A    between atoms: C_2  and  C_5
REMARK    2  A    between atoms: N_3  and  O_4
REMARK    3  A    between atoms: C_8  and  N_9
REMARK    4  A    between atoms: C_10  and  C_12
REMARK    5  A    between atoms: C_12  and  C_13
REMARK    6  A    between atoms: C_16  and  C_17
REMARK                            x       y       z     vdW  Elec       q    Type
REMARK                         _______ _______ _______ _____ _____    ______ ____
ROOT
ATOM      1  C   UNL     1       0.916  10.946  19.395  0.00  0.00    +0.000 C 
ATOM      2  C   UNL     1       1.867  11.532  18.316  0.00  0.00    +0.000 C 
ATOM      3  C   UNL     1       1.798  13.061  18.287  0.00  0.00    +0.000 C 
ATOM      4  O   UNL     1       2.181  13.605  19.546  0.00  0.00    +0.000 OA
ATOM      5  C   UNL     1       1.302  13.200  20.589  0.00  0.00    +0.000 C 
ATOM      6  C   UNL     1       1.312  11.688  20.722  0.00  0.00    +0.000 C 
ENDROOT
BRANCH   1   7
ATOM      7  C   UNL     1      -0.577  11.115  19.029  0.00  0.00    +0.000 A 
ATOM      8  C   UNL     1      -1.159  10.381  17.981  0.00  0.00    +0.000 A 
ATOM      9  C   UNL     1      -2.519  10.488  17.677  0.00  0.00    +0.000 A 
ATOM     10  C   UNL     1      -3.343  11.357  18.392  0.00  0.00    +0.000 A 
ATOM     11  C   UNL     1      -2.771  12.142  19.396  0.00  0.00    +0.000 A 
ATOM     12  C   UNL     1      -1.409  12.029  19.704  0.00  0.00    +0.000 A 
BRANCH  10  13
ATOM     13  C   UNL     1      -4.758  11.415  18.094  0.00  0.00    +0.000 A 
ATOM     14  C   UNL     1      -5.852  10.771  18.718  0.00  0.00    +0.000 A 
ATOM     15  N   UNL     1      -7.022  11.066  18.143  0.00  0.00    +0.000 NA
ATOM     16  N   UNL     1      -6.680  11.894  17.143  0.00  0.00    +0.000 N 
ATOM     17  C   UNL     1      -5.337  12.138  17.074  0.00  0.00    +0.000 A 
ATOM     18  H   UNL     1      -7.413  12.252  16.545  0.00  0.00    +0.000 HD
ENDBRANCH  10  13
ENDBRANCH   1   7
BRANCH   1  20
ATOM     19  N   UNL     1       2.092   8.766  18.920  0.00  0.00    +0.000 N 
ATOM     20  C   UNL     1       1.168   9.440  19.707  0.00  0.00    +0.000 C 
ATOM     21  O   UNL     1       0.503   8.897  20.592  0.00  0.00    +0.000 OA
ATOM     22  H   UNL     1       2.600   9.294  18.223  0.00  0.00    +0.000 HD
BRANCH  19  26
ATOM     23  C   UNL     1       3.125   4.649  19.150  0.00  0.00    +0.000 A 
ATOM     24  C   UNL     1       2.472   5.254  20.220  0.00  0.00    +0.000 A 
ATOM     25  C   UNL     1       2.131   6.609  20.158  0.00  0.00    +0.000 A 
ATOM     26  C   UNL     1       2.421   7.387  19.030  0.00  0.00    +0.000 A 
ATOM     27  C   UNL     1       3.064   6.764  17.951  0.00  0.00    +0.000 A 
ATOM     28  C   UNL     1       3.419   5.405  18.009  0.00  0.00    +0.000 A 
BRANCH  23  30
ATOM     29  O   UNL     1       2.571   2.342  19.152  0.00  0.00    +0.000 OA
ATOM     30  C   UNL     1       3.445   3.200  19.241  0.00  0.00    +0.000 C 
ATOM     31  N   UNL     1       4.765   2.887  19.472  0.00  0.00    +0.000 N 
ATOM     32  H   UNL     1       5.397   3.538  19.926  0.00  0.00    +0.000 HD
BRANCH  31  33
ATOM     33  O   UNL     1       5.024   1.514  19.695  0.00  0.00    +0.000 OA
ATOM     34  H   UNL     1       5.838   1.542  20.247  0.00  0.00    +0.000 HD
ENDBRANCH  31  33
ENDBRANCH  23  30
ENDBRANCH  19  26
ENDBRANCH   1  20
TORSDOF 6
ENDMDL
MODEL 2
REMARK VINA RESULT:      -8.5      0.824      1.482
REMARK  Name = 
REMARK  6 active torsions:
REMARK  status: ('A' for Active; 'I' for Inactive)
REMARK    1  A    between atoms: C_2  and  C_5
REMARK    2  A    between atoms: N_3  and  O_4
REMARK    3  A    between atoms: C_8  and  N_9
REMARK    4  A    between atoms: C_10  and  C_12
REMARK    5  A    between atoms: C_12  and  C_13
REMARK    6  A    between atoms: C_16  and  C_17
REMARK                            x       y       z     vdW  Elec       q    Type
REMARK                         _______ _______ _______ _____ _____    ______ ____
ROOT
ATOM      1  C   UNL     1       1.122  10.712  18.949  0.00  0.00    +0.000 C 
ATOM      2  C   UNL     1       1.932  11.783  18.171  0.00  0.00    +0.000 C 
ATOM      3  C   UNL     1       1.703  13.182  18.750  0.00  0.00    +0.000 C 
ATOM      4  O   UNL     1       2.111  13.233  20.114  0.00  0.00    +0.000 OA
ATOM      5  C   UNL     1       1.350  12.349  20.929  0.00  0.00    +0.000 C 
ATOM      6  C   UNL     1       1.526  10.919  20.453  0.00  0.00    +0.000 C 
ENDROOT
BRANCH   1   7
ATOM      7  C   UNL     1      -0.402  10.826  18.710  0.00  0.00    +0.000 A 
ATOM      8  C   UNL     1      -1.215  11.616  19.543  0.00  0.00    +0.000 A 
ATOM      9  C   UNL     1      -2.583  11.767  19.304  0.00  0.00    +0.000 A 
ATOM     10  C   UNL     1      -3.197  11.108  18.239  0.00  0.00    +0.000 A 
ATOM     11  C   UNL     1      -2.420  10.269  17.438  0.00  0.00    +0.000 A 
ATOM     12  C   UNL     1      -1.047  10.123  17.675  0.00  0.00    +0.000 A 
BRANCH  10  13
ATOM     13  C   UNL     1      -4.606  11.319  17.979  0.00  0.00    +0.000 A 
ATOM     14  C   UNL     1      -5.744  10.896  18.704  0.00  0.00    +0.000 A 
ATOM     15  N   UNL     1      -6.891  11.279  18.136  0.00  0.00    +0.000 NA
ATOM     16  N   UNL     1      -6.490  11.943  17.039  0.00  0.00    +0.000 N 
ATOM     17  C   UNL     1      -5.132  12.000  16.903  0.00  0.00    +0.000 A 
ATOM     18  H   UNL     1      -7.198  12.329  16.427  0.00  0.00    +0.000 HD
ENDBRANCH  10  13
ENDBRANCH   1   7
BRANCH   1  20
ATOM     19  N   UNL     1       1.762   8.393  19.708  0.00  0.00    +0.000 N 
ATOM     20  C   UNL     1       1.549   9.246  18.634  0.00  0.00    +0.000 C 
ATOM     21  O   UNL     1       1.735   8.921  17.459  0.00  0.00    +0.000 OA
ATOM     22  H   UNL     1       1.575   8.742  20.639  0.00  0.00    +0.000 HD
BRANCH  19  26
ATOM     23  C   UNL     1       2.980   4.324  19.516  0.00  0.00    +0.000 A 
ATOM     24  C   UNL     1       3.498   5.241  18.605  0.00  0.00    +0.000 A 
ATOM     25  C   UNL     1       3.101   6.581  18.655  0.00  0.00    +0.000 A 
ATOM     26  C   UNL     1       2.193   7.041  19.616  0.00  0.00    +0.000 A 
ATOM     27  C   UNL     1       1.690   6.114  20.541  0.00  0.00    +0.000 A 
ATOM     28  C   UNL     1       2.076   4.763  20.491  0.00  0.00    +0.000 A 
BRANCH  23  30
ATOM     29  O   UNL     1       2.687   1.998  19.158  0.00  0.00    +0.000 OA
ATOM     30  C   UNL     1       3.448   2.916  19.450  0.00  0.00    +0.000 C 
ATOM     31  N   UNL     1       4.769   2.703  19.776  0.00  0.00    +0.000 N 
ATOM     32  H   UNL     1       5.280   3.342  20.376  0.00  0.00    +0.000 HD
BRANCH  31  33
ATOM     33  O   UNL     1       5.157   1.344  19.845  0.00  0.00    +0.000 OA
ATOM     34  H   UNL     1       4.291   0.882  19.895  0.00  0.00    +0.000 HD
ENDBRANCH  31  33
ENDBRANCH  23  30
ENDBRANCH  19  26
ENDBRANCH   1  20
TORSDOF 6
ENDMDL
MODEL 3
REMARK VINA RESULT:      -8.3      0.692      1.114
REMARK  Name = 
REMARK  6 active torsions:
REMARK  status: ('A' for Active; 'I' for Inactive)
REMARK    1  A    between atoms: C_2  and  C_5
REMARK    2  A    between atoms: N_3  and  O_4
REMARK    3  A    between atoms: C_8  and  N_9
REMARK    4  A    between atoms: C_10  and  C_12
REMARK    5  A    between atoms: C_12  and  C_13
REMARK    6  A    between atoms: C_16  and  C_17
REMARK                            x       y       z     vdW  Elec       q    Type
REMARK                         _______ _______ _______ _____ _____    ______ ____
ROOT
ATOM      1  C   UNL     1       0.733  10.905  19.527  0.00  0.00    +0.000 C 
ATOM      2  C   UNL     1       1.681  11.469  18.435  0.00  0.00    +0.000 C 
ATOM      3  C   UNL     1       1.638  12.999  18.399  0.00  0.00    +0.000 C 
ATOM      4  O   UNL     1       2.045  13.542  19.651  0.00  0.00    +0.000 OA
ATOM      5  C   UNL     1       1.170  13.158  20.705  0.00  0.00    +0.000 C 
ATOM      6  C   UNL     1       1.156  11.647  20.846  0.00  0.00    +0.000 C 
ENDROOT
BRANCH   1   7
ATOM      7  C   UNL     1      -0.761  11.097  19.177  0.00  0.00    +0.000 A 
ATOM      8  C   UNL     1      -1.600  11.902  19.967  0.00  0.00    +0.000 A 
ATOM      9  C   UNL     1      -2.937  12.123  19.629  0.00  0.00    +0.000 A 
ATOM     10  C   UNL     1      -3.496  11.521  18.503  0.00  0.00    +0.000 A 
ATOM     11  C   UNL     1      -2.698  10.667  17.739  0.00  0.00    +0.000 A 
ATOM     12  C   UNL     1      -1.354  10.451  18.075  0.00  0.00    +0.000 A 
BRANCH  10  13
ATOM     13  C   UNL     1      -4.870  11.804  18.143  0.00  0.00    +0.000 A 
ATOM     14  C   UNL     1      -6.033  11.866  18.945  0.00  0.00    +0.000 A 
ATOM     15  N   UNL     1      -7.133  12.146  18.241  0.00  0.00    +0.000 NA
ATOM     16  N   UNL     1      -6.678  12.258  16.982  0.00  0.00    +0.000 N 
ATOM     17  C   UNL     1      -5.329  12.067  16.871  0.00  0.00    +0.000 A 
ATOM     18  H   UNL     1      -7.345  12.463  16.248  0.00  0.00    +0.000 HD
ENDBRANCH  10  13
ENDBRANCH   1   7
BRANCH   1  20
ATOM     19  N   UNL     1       1.877   8.706  19.060  0.00  0.00    +0.000 N 
ATOM     20  C   UNL     1       0.962   9.396  19.844  0.00  0.00    +0.000 C 
ATOM     21  O   UNL     1       0.289   8.866  20.731  0.00  0.00    +0.000 OA
ATOM     22  H   UNL     1       2.393   9.225  18.362  0.00  0.00    +0.000 HD
BRANCH  19  26
ATOM     23  C   UNL     1       2.838   4.572  19.299  0.00  0.00    +0.000 A 
ATOM     24  C   UNL     1       2.319   5.223  20.415  0.00  0.00    +0.000 A 
ATOM     25  C   UNL     1       2.003   6.584  20.350  0.00  0.00    +0.000 A 
ATOM     26  C   UNL     1       2.186   7.323  19.175  0.00  0.00    +0.000 A 
ATOM     27  C   UNL     1       2.693   6.655  18.050  0.00  0.00    +0.000 A 
ATOM     28  C   UNL     1       3.022   5.290  18.110  0.00  0.00    +0.000 A 
BRANCH  23  30
ATOM     29  O   UNL     1       3.242   2.556  20.483  0.00  0.00    +0.000 OA
ATOM     30  C   UNL     1       3.134   3.119  19.397  0.00  0.00    +0.000 C 
ATOM     31  N   UNL     1       3.318   2.459  18.204  0.00  0.00    +0.000 N 
ATOM     32  H   UNL     1       3.619   2.945  17.365  0.00  0.00    +0.000 HD
BRANCH  31  33
ATOM     33  O   UNL     1       3.737   1.112  18.323  0.00  0.00    +0.000 OA
ATOM     34  H   UNL     1       3.992   0.891  17.399  0.00  0.00    +0.000 HD
ENDBRANCH  31  33
ENDBRANCH  23  30
ENDBRANCH  19  26
ENDBRANCH   1  20
TORSDOF 6
ENDMDL
MODEL 4
REMARK VINA RESULT:      -8.3      7.136      9.972
REMARK  Name = 
REMARK  6 active torsions:
REMARK  status: ('A' for Active; 'I' for Inactive)
REMARK    1  A    between atoms: C_2  and  C_5
REMARK    2  A    between atoms: N_3  and  O_4
REMARK    3  A    between atoms: C_8  and  N_9
REMARK    4  A    between atoms: C_10  and  C_12
REMARK    5  A    between atoms: C_12  and  C_13
REMARK    6  A    between atoms: C_16  and  C_17
REMARK                            x       y       z     vdW  Elec       q    Type
REMARK                         _______ _______ _______ _____ _____    ______ ____
ROOT
ATOM      1  C   UNL     1       6.677   5.978  17.050  0.00  0.00    +0.000 C 
ATOM      2  C   UNL     1       7.558   4.906  16.352  0.00  0.00    +0.000 C 
ATOM      3  C   UNL     1       6.756   4.119  15.313  0.00  0.00    +0.000 C 
ATOM      4  O   UNL     1       6.250   4.990  14.305  0.00  0.00    +0.000 OA
ATOM      5  C   UNL     1       5.348   5.952  14.840  0.00  0.00    +0.000 C 
ATOM      6  C   UNL     1       6.054   6.811  15.873  0.00  0.00    +0.000 C 
ENDROOT
BRANCH   1   7
ATOM      7  C   UNL     1       5.612   5.358  17.984  0.00  0.00    +0.000 A 
ATOM      8  C   UNL     1       4.401   6.019  18.251  0.00  0.00    +0.000 A 
ATOM      9  C   UNL     1       3.411   5.443  19.052  0.00  0.00    +0.000 A 
ATOM     10  C   UNL     1       3.609   4.196  19.643  0.00  0.00    +0.000 A 
ATOM     11  C   UNL     1       4.831   3.550  19.442  0.00  0.00    +0.000 A 
ATOM     12  C   UNL     1       5.820   4.126  18.633  0.00  0.00    +0.000 A 
BRANCH  10  13
ATOM     13  C   UNL     1       2.550   3.596  20.427  0.00  0.00    +0.000 A 
ATOM     14  C   UNL     1       2.611   2.840  21.621  0.00  0.00    +0.000 A 
ATOM     15  N   UNL     1       1.408   2.441  22.043  0.00  0.00    +0.000 NA
ATOM     16  N   UNL     1       0.572   2.935  21.115  0.00  0.00    +0.000 N 
ATOM     17  C   UNL     1       1.206   3.638  20.129  0.00  0.00    +0.000 A 
ATOM     18  H   UNL     1      -0.419   2.751  21.215  0.00  0.00    +0.000 HD
ENDBRANCH  10  13
ENDBRANCH   1   7
BRANCH   1  20
ATOM     19  N   UNL     1       7.504   8.333  17.415  0.00  0.00    +0.000 N 
ATOM     20  C   UNL     1       7.490   7.023  17.873  0.00  0.00    +0.000 C 
ATOM     21  O   UNL     1       8.128   6.639  18.856  0.00  0.00    +0.000 OA
ATOM     22  H   UNL     1       6.941   8.561  16.605  0.00  0.00    +0.000 HD
BRANCH  19  26
ATOM     23  C   UNL     1       9.599  11.618  19.115  0.00  0.00    +0.000 A 
ATOM     24  C   UNL     1       9.683  10.364  19.714  0.00  0.00    +0.000 A 
ATOM     25  C   UNL     1       8.994   9.277  19.167  0.00  0.00    +0.000 A 
ATOM     26  C   UNL     1       8.219   9.409  18.009  0.00  0.00    +0.000 A 
ATOM     27  C   UNL     1       8.154  10.672  17.401  0.00  0.00    +0.000 A 
ATOM     28  C   UNL     1       8.835  11.772  17.951  0.00  0.00    +0.000 A 
BRANCH  23  30
ATOM     29  O   UNL     1      10.185  13.107  20.866  0.00  0.00    +0.000 OA
ATOM     30  C   UNL     1      10.369  12.742  19.708  0.00  0.00    +0.000 C 
ATOM     31  N   UNL     1      11.262  13.369  18.870  0.00  0.00    +0.000 N 
ATOM     32  H   UNL     1      11.149  13.356  17.862  0.00  0.00    +0.000 HD
BRANCH  31  33
ATOM     33  O   UNL     1      11.880  14.523  19.409  0.00  0.00    +0.000 OA
ATOM     34  H   UNL     1      12.118  14.228  20.317  0.00  0.00    +0.000 HD
ENDBRANCH  31  33
ENDBRANCH  23  30
ENDBRANCH  19  26
ENDBRANCH   1  20
TORSDOF 6
ENDMDL
MODEL 5
REMARK VINA RESULT:      -8.2      2.936      5.563
REMARK  Name = 
REMARK  6 active torsions:
REMARK  status: ('A' for Active; 'I' for Inactive)
REMARK    1  A    between atoms: C_2  and  C_5
REMARK    2  A    between atoms: N_3  and  O_4
REMARK    3  A    between atoms: C_8  and  N_9
REMARK    4  A    between atoms: C_10  and  C_12
REMARK    5  A    between atoms: C_12  and  C_13
REMARK    6  A    between atoms: C_16  and  C_17
REMARK                            x       y       z     vdW  Elec       q    Type
REMARK                         _______ _______ _______ _____ _____    ______ ____
ROOT
ATOM      1  C   UNL     1       0.246  10.722  19.665  0.00  0.00    +0.000 C 
ATOM      2  C   UNL     1      -0.915  10.944  20.671  0.00  0.00    +0.000 C 
ATOM      3  C   UNL     1      -1.904  11.994  20.154  0.00  0.00    +0.000 C 
ATOM      4  O   UNL     1      -2.473  11.579  18.916  0.00  0.00    +0.000 OA
ATOM      5  C   UNL     1      -1.488  11.444  17.898  0.00  0.00    +0.000 C 
ATOM      6  C   UNL     1      -0.463  10.400  18.301  0.00  0.00    +0.000 C 
ENDROOT
BRANCH   1   7
ATOM      7  C   UNL     1       1.202  11.934  19.581  0.00  0.00    +0.000 A 
ATOM      8  C   UNL     1       1.850  12.272  18.379  0.00  0.00    +0.000 A 
ATOM      9  C   UNL     1       2.674  13.396  18.280  0.00  0.00    +0.000 A 
ATOM     10  C   UNL     1       2.908  14.208  19.389  0.00  0.00    +0.000 A 
ATOM     11  C   UNL     1       2.325  13.854  20.608  0.00  0.00    +0.000 A 
ATOM     12  C   UNL     1       1.493  12.731  20.705  0.00  0.00    +0.000 A 
BRANCH  10  13
ATOM     13  C   UNL     1       3.724  15.395  19.251  0.00  0.00    +0.000 A 
ATOM     14  C   UNL     1       3.536  16.701  19.763  0.00  0.00    +0.000 A 
ATOM     15  N   UNL     1       4.511  17.541  19.407  0.00  0.00    +0.000 NA
ATOM     16  N   UNL     1       5.325  16.778  18.658  0.00  0.00    +0.000 N 
ATOM     17  C   UNL     1       4.900  15.484  18.539  0.00  0.00    +0.000 A 
ATOM     18  H   UNL     1       6.150  17.206  18.258  0.00  0.00    +0.000 HD
ENDBRANCH  10  13
ENDBRANCH   1   7
BRANCH   1  20
ATOM     19  N   UNL     1       1.647   8.776  18.879  0.00  0.00    +0.000 N 
ATOM     20  C   UNL     1       1.103   9.453  19.962  0.00  0.00    +0.000 C 
ATOM     21  O   UNL     1       1.214   9.072  21.130  0.00  0.00    +0.000 OA
ATOM     22  H   UNL     1       1.513   9.168  17.956  0.00  0.00    +0.000 HD
BRANCH  19  26
ATOM     23  C   UNL     1       4.010   5.245  19.013  0.00  0.00    +0.000 A 
ATOM     24  C   UNL     1       3.029   5.453  19.979  0.00  0.00    +0.000 A 
ATOM     25  C   UNL     1       2.248   6.613  19.948  0.00  0.00    +0.000 A 
ATOM     26  C   UNL     1       2.418   7.584  18.953  0.00  0.00    +0.000 A 
ATOM     27  C   UNL     1       3.397   7.358  17.975  0.00  0.00    +0.000 A 
ATOM     28  C   UNL     1       4.193   6.200  18.005  0.00  0.00    +0.000 A 
BRANCH  23  30
ATOM     29  O   UNL     1       5.901   3.897  18.526  0.00  0.00    +0.000 OA
ATOM     30  C   UNL     1       4.799   3.987  19.062  0.00  0.00    +0.000 C 
ATOM     31  N   UNL     1       4.202   2.926  19.703  0.00  0.00    +0.000 N 
ATOM     32  H   UNL     1       3.194   2.853  19.791  0.00  0.00    +0.000 HD
BRANCH  31  33
ATOM     33  O   UNL     1       4.906   1.701  19.615  0.00  0.00    +0.000 OA
ATOM     34  H   UNL     1       5.540   1.876  18.884  0.00  0.00    +0.000 HD
ENDBRANCH  31  33
ENDBRANCH  23  30
ENDBRANCH  19  26
ENDBRANCH   1  20
TORSDOF 6
ENDMDL
MODEL 6
REMARK VINA RESULT:      -8.2      3.433      9.693
REMARK  Name = 
REMARK  6 active torsions:
REMARK  status: ('A' for Active; 'I' for Inactive)
REMARK    1  A    between atoms: C_2  and  C_5
REMARK    2  A    between atoms: N_3  and  O_4
REMARK    3  A    between atoms: C_8  and  N_9
REMARK    4  A    between atoms: C_10  and  C_12
REMARK    5  A    between atoms: C_12  and  C_13
REMARK    6  A    between atoms: C_16  and  C_17
REMARK                            x       y       z     vdW  Elec       q    Type
REMARK                         _______ _______ _______ _____ _____    ______ ____
ROOT
ATOM      1  C   UNL     1       2.000   4.947  20.034  0.00  0.00    +0.000 C 
ATOM      2  C   UNL     1       0.759   4.055  19.760  0.00  0.00    +0.000 C 
ATOM      3  C   UNL     1       1.104   2.569  19.885  0.00  0.00    +0.000 C 
ATOM      4  O   UNL     1       1.573   2.272  21.196  0.00  0.00    +0.000 OA
ATOM      5  C   UNL     1       2.773   2.972  21.503  0.00  0.00    +0.000 C 
ATOM      6  C   UNL     1       2.535   4.470  21.432  0.00  0.00    +0.000 C 
ENDROOT
BRANCH   1   7
ATOM      7  C   UNL     1       3.062   4.850  18.914  0.00  0.00    +0.000 A 
ATOM      8  C   UNL     1       2.755   4.290  17.662  0.00  0.00    +0.000 A 
ATOM      9  C   UNL     1       3.693   4.246  16.627  0.00  0.00    +0.000 A 
ATOM     10  C   UNL     1       4.985   4.733  16.816  0.00  0.00    +0.000 A 
ATOM     11  C   UNL     1       5.331   5.235  18.072  0.00  0.00    +0.000 A 
ATOM     12  C   UNL     1       4.387   5.285  19.107  0.00  0.00    +0.000 A 
BRANCH  10  13
ATOM     13  C   UNL     1       5.925   4.723  15.714  0.00  0.00    +0.000 A 
ATOM     14  C   UNL     1       5.884   4.033  14.480  0.00  0.00    +0.000 A 
ATOM     15  N   UNL     1       6.955   4.271  13.718  0.00  0.00    +0.000 NA
ATOM     16  N   UNL     1       7.691   5.110  14.466  0.00  0.00    +0.000 N 
ATOM     17  C   UNL     1       7.116   5.415  15.668  0.00  0.00    +0.000 A 
ATOM     18  H   UNL     1       8.576   5.431  14.095  0.00  0.00    +0.000 HD
ENDBRANCH  10  13
ENDBRANCH   1   7
BRANCH   1  20
ATOM     19  N   UNL     1       1.725   7.289  19.139  0.00  0.00    +0.000 N 
ATOM     20  C   UNL     1       1.661   6.453  20.246  0.00  0.00    +0.000 C 
ATOM     21  O   UNL     1       1.407   6.851  21.385  0.00  0.00    +0.000 OA
ATOM     22  H   UNL     1       1.931   6.875  18.240  0.00  0.00    +0.000 HD
BRANCH  19  26
ATOM     23  C   UNL     1       1.075  11.490  19.071  0.00  0.00    +0.000 A 
ATOM     24  C   UNL     1       0.525  10.726  20.096  0.00  0.00    +0.000 A 
ATOM     25  C   UNL     1       0.728   9.342  20.127  0.00  0.00    +0.000 A 
ATOM     26  C   UNL     1       1.489   8.692  19.148  0.00  0.00    +0.000 A 
ATOM     27  C   UNL     1       2.054   9.472  18.129  0.00  0.00    +0.000 A 
ATOM     28  C   UNL     1       1.847  10.861  18.085  0.00  0.00    +0.000 A 
BRANCH  23  30
ATOM     29  O   UNL     1       1.619  13.713  19.698  0.00  0.00    +0.000 OA
ATOM     30  C   UNL     1       0.863  12.960  19.088  0.00  0.00    +0.000 C 
ATOM     31  N   UNL     1      -0.249  13.417  18.418  0.00  0.00    +0.000 N 
ATOM     32  H   UNL     1      -1.059  12.826  18.263  0.00  0.00    +0.000 HD
BRANCH  31  33
ATOM     33  O   UNL     1      -0.511  14.800  18.566  0.00  0.00    +0.000 OA
ATOM     34  H   UNL     1       0.081  15.047  19.311  0.00  0.00    +0.000 HD
ENDBRANCH  31  33
ENDBRANCH  23  30
ENDBRANCH  19  26
ENDBRANCH   1  20
TORSDOF 6
ENDMDL
MODEL 7
REMARK VINA RESULT:      -8.1      3.666      9.810
REMARK  Name = 
REMARK  6 active torsions:
REMARK  status: ('A' for Active; 'I' for Inactive)
REMARK    1  A    between atoms: C_2  and  C_5
REMARK    2  A    between atoms: N_3  and  O_4
REMARK    3  A    between atoms: C_8  and  N_9
REMARK    4  A    between atoms: C_10  and  C_12
REMARK    5  A    between atoms: C_12  and  C_13
REMARK    6  A    between atoms: C_16  and  C_17
REMARK                            x       y       z     vdW  Elec       q    Type
REMARK                         _______ _______ _______ _____ _____    ______ ____
ROOT
ATOM      1  C   UNL     1       1.934   5.189  20.197  0.00  0.00    +0.000 C 
ATOM      2  C   UNL     1       0.633   4.391  19.908  0.00  0.00    +0.000 C 
ATOM      3  C   UNL     1       0.876   2.882  19.997  0.00  0.00    +0.000 C 
ATOM      4  O   UNL     1       1.328   2.522  21.299  0.00  0.00    +0.000 OA
ATOM      5  C   UNL     1       2.574   3.132  21.616  0.00  0.00    +0.000 C 
ATOM      6  C   UNL     1       2.438   4.644  21.581  0.00  0.00    +0.000 C 
ENDROOT
BRANCH   1   7
ATOM      7  C   UNL     1       2.983   5.046  19.070  0.00  0.00    +0.000 A 
ATOM      8  C   UNL     1       2.626   4.576  17.794  0.00  0.00    +0.000 A 
ATOM      9  C   UNL     1       3.557   4.493  16.755  0.00  0.00    +0.000 A 
ATOM     10  C   UNL     1       4.889   4.848  16.962  0.00  0.00    +0.000 A 
ATOM     11  C   UNL     1       5.279   5.257  18.239  0.00  0.00    +0.000 A 
ATOM     12  C   UNL     1       4.343   5.347  19.279  0.00  0.00    +0.000 A 
BRANCH  10  13
ATOM     13  C   UNL     1       5.825   4.802  15.858  0.00  0.00    +0.000 A 
ATOM     14  C   UNL     1       5.697   4.230  14.572  0.00  0.00    +0.000 A 
ATOM     15  N   UNL     1       6.795   4.382  13.826  0.00  0.00    +0.000 NA
ATOM     16  N   UNL     1       7.634   5.047  14.637  0.00  0.00    +0.000 N 
ATOM     17  C   UNL     1       7.099   5.327  15.863  0.00  0.00    +0.000 A 
ATOM     18  H   UNL     1       8.557   5.274  14.289  0.00  0.00    +0.000 HD
ENDBRANCH  10  13
ENDBRANCH   1   7
BRANCH   1  20
ATOM     19  N   UNL     1       0.622   7.073  21.242  0.00  0.00    +0.000 N 
ATOM     20  C   UNL     1       1.699   6.710  20.445  0.00  0.00    +0.000 C 
ATOM     21  O   UNL     1       2.435   7.524  19.883  0.00  0.00    +0.000 OA
ATOM     22  H   UNL     1       0.077   6.336  21.672  0.00  0.00    +0.000 HD
BRANCH  19  26
ATOM     23  C   UNL     1      -0.548  11.081  22.038  0.00  0.00    +0.000 A 
ATOM     24  C   UNL     1      -0.449  10.173  23.088  0.00  0.00    +0.000 A 
ATOM     25  C   UNL     1      -0.069   8.850  22.839  0.00  0.00    +0.000 A 
ATOM     26  C   UNL     1       0.230   8.406  21.544  0.00  0.00    +0.000 A 
ATOM     27  C   UNL     1       0.143   9.332  20.495  0.00  0.00    +0.000 A 
ATOM     28  C   UNL     1      -0.247  10.661  20.736  0.00  0.00    +0.000 A 
BRANCH  23  30
ATOM     29  O   UNL     1      -0.086  13.380  22.402  0.00  0.00    +0.000 OA
ATOM     30  C   UNL     1      -0.925  12.485  22.346  0.00  0.00    +0.000 C 
ATOM     31  N   UNL     1      -2.259  12.708  22.605  0.00  0.00    +0.000 N 
ATOM     32  H   UNL     1      -2.868  11.971  22.945  0.00  0.00    +0.000 HD
BRANCH  31  33
ATOM     33  O   UNL     1      -2.574  14.020  23.034  0.00  0.00    +0.000 OA
ATOM     34  H   UNL     1      -3.553  13.981  23.122  0.00  0.00    +0.000 HD
ENDBRANCH  31  33
ENDBRANCH  23  30
ENDBRANCH  19  26
ENDBRANCH   1  20
TORSDOF 6
ENDMDL
MODEL 8
REMARK VINA RESULT:      -8.1      2.912      5.753
REMARK  Name = 
REMARK  6 active torsions:
REMARK  status: ('A' for Active; 'I' for Inactive)
REMARK    1  A    between atoms: C_2  and  C_5
REMARK    2  A    between atoms: N_3  and  O_4
REMARK    3  A    between atoms: C_8  and  N_9
REMARK    4  A    between atoms: C_10  and  C_12
REMARK    5  A    between atoms: C_12  and  C_13
REMARK    6  A    between atoms: C_16  and  C_17
REMARK                            x       y       z     vdW  Elec       q    Type
REMARK                         _______ _______ _______ _____ _____    ______ ____
ROOT
ATOM      1  C   UNL     1       0.255  10.750  19.667  0.00  0.00    +0.000 C 
ATOM      2  C   UNL     1      -0.853  10.977  20.731  0.00  0.00    +0.000 C 
ATOM      3  C   UNL     1      -1.884  12.002  20.250  0.00  0.00    +0.000 C 
ATOM      4  O   UNL     1      -2.514  11.555  19.053  0.00  0.00    +0.000 OA
ATOM      5  C   UNL     1      -1.585  11.413  17.985  0.00  0.00    +0.000 C 
ATOM      6  C   UNL     1      -0.523  10.392  18.350  0.00  0.00    +0.000 C 
ENDROOT
BRANCH   1   7
ATOM      7  C   UNL     1       1.187  11.974  19.506  0.00  0.00    +0.000 A 
ATOM      8  C   UNL     1       1.464  12.828  20.588  0.00  0.00    +0.000 A 
ATOM      9  C   UNL     1       2.346  13.905  20.465  0.00  0.00    +0.000 A 
ATOM     10  C   UNL     1       2.960  14.188  19.246  0.00  0.00    +0.000 A 
ATOM     11  C   UNL     1       2.649  13.391  18.143  0.00  0.00    +0.000 A 
ATOM     12  C   UNL     1       1.770  12.306  18.268  0.00  0.00    +0.000 A 
BRANCH  10  13
ATOM     13  C   UNL     1       3.908  15.278  19.155  0.00  0.00    +0.000 A 
ATOM     14  C   UNL     1       3.759  16.651  19.462  0.00  0.00    +0.000 A 
ATOM     15  N   UNL     1       4.870  17.356  19.232  0.00  0.00    +0.000 NA
ATOM     16  N   UNL     1       5.734  16.438  18.769  0.00  0.00    +0.000 N 
ATOM     17  C   UNL     1       5.208  15.178  18.708  0.00  0.00    +0.000 A 
ATOM     18  H   UNL     1       6.664  16.742  18.511  0.00  0.00    +0.000 HD
ENDBRANCH  10  13
ENDBRANCH   1   7
BRANCH   1  20
ATOM     19  N   UNL     1       1.618   8.795  18.842  0.00  0.00    +0.000 N 
ATOM     20  C   UNL     1       1.145   9.500  19.940  0.00  0.00    +0.000 C 
ATOM     21  O   UNL     1       1.345   9.157  21.107  0.00  0.00    +0.000 OA
ATOM     22  H   UNL     1       1.413   9.156  17.919  0.00  0.00    +0.000 HD
BRANCH  19  26
ATOM     23  C   UNL     1       3.913   5.225  19.090  0.00  0.00    +0.000 A 
ATOM     24  C   UNL     1       4.170   6.138  18.071  0.00  0.00    +0.000 A 
ATOM     25  C   UNL     1       3.419   7.314  17.976  0.00  0.00    +0.000 A 
ATOM     26  C   UNL     1       2.406   7.612  18.896  0.00  0.00    +0.000 A 
ATOM     27  C   UNL     1       2.165   6.695  19.929  0.00  0.00    +0.000 A 
ATOM     28  C   UNL     1       2.909   5.506  20.026  0.00  0.00    +0.000 A 
BRANCH  23  30
ATOM     29  O   UNL     1       5.905   3.981  18.753  0.00  0.00    +0.000 OA
ATOM     30  C   UNL     1       4.752   4.002  19.176  0.00  0.00    +0.000 C 
ATOM     31  N   UNL     1       4.145   2.891  19.717  0.00  0.00    +0.000 N 
ATOM     32  H   UNL     1       3.138   2.771  19.699  0.00  0.00    +0.000 HD
BRANCH  31  33
ATOM     33  O   UNL     1       4.911   1.702  19.660  0.00  0.00    +0.000 OA
ATOM     34  H   UNL     1       4.959   1.531  18.693  0.00  0.00    +0.000 HD
ENDBRANCH  31  33
ENDBRANCH  23  30
ENDBRANCH  19  26
ENDBRANCH   1  20
TORSDOF 6
ENDMDL
MODEL 9
REMARK VINA RESULT:      -8.0      2.730      3.459
REMARK  Name = 
REMARK  6 active torsions:
REMARK  status: ('A' for Active; 'I' for Inactive)
REMARK    1  A    between atoms: C_2  and  C_5
REMARK    2  A    between atoms: N_3  and  O_4
REMARK    3  A    between atoms: C_8  and  N_9
REMARK    4  A    between atoms: C_10  and  C_12
REMARK    5  A    between atoms: C_12  and  C_13
REMARK    6  A    between atoms: C_16  and  C_17
REMARK                            x       y       z     vdW  Elec       q    Type
REMARK                         _______ _______ _______ _____ _____    ______ ____
ROOT
ATOM      1  C   UNL     1       0.350  11.959  19.631  0.00  0.00    +0.000 C 
ATOM      2  C   UNL     1       0.339  12.926  18.415  0.00  0.00    +0.000 C 
ATOM      3  C   UNL     1       0.542  14.378  18.859  0.00  0.00    +0.000 C 
ATOM      4  O   UNL     1       1.793  14.528  19.523  0.00  0.00    +0.000 OA
ATOM      5  C   UNL     1       1.860  13.749  20.713  0.00  0.00    +0.000 C 
ATOM      6  C   UNL     1       1.693  12.277  20.382  0.00  0.00    +0.000 C 
ENDROOT
BRANCH   1   7
ATOM      7  C   UNL     1      -0.899  12.116  20.529  0.00  0.00    +0.000 A 
ATOM      8  C   UNL     1      -0.853  11.820  21.902  0.00  0.00    +0.000 A 
ATOM      9  C   UNL     1      -1.962  12.008  22.732  0.00  0.00    +0.000 A 
ATOM     10  C   UNL     1      -3.170  12.470  22.211  0.00  0.00    +0.000 A 
ATOM     11  C   UNL     1      -3.256  12.710  20.838  0.00  0.00    +0.000 A 
ATOM     12  C   UNL     1      -2.141  12.527  20.009  0.00  0.00    +0.000 A 
BRANCH  10  13
ATOM     13  C   UNL     1      -4.291  12.706  23.097  0.00  0.00    +0.000 A 
ATOM     14  C   UNL     1      -5.544  13.313  22.847  0.00  0.00    +0.000 A 
ATOM     15  N   UNL     1      -6.321  13.361  23.932  0.00  0.00    +0.000 NA
ATOM     16  N   UNL     1      -5.564  12.792  24.885  0.00  0.00    +0.000 N 
ATOM     17  C   UNL     1      -4.342  12.379  24.434  0.00  0.00    +0.000 A 
ATOM     18  H   UNL     1      -5.944  12.721  25.820  0.00  0.00    +0.000 HD
ENDBRANCH  10  13
ENDBRANCH   1   7
BRANCH   1  20
ATOM     19  N   UNL     1       1.467   9.709  19.860  0.00  0.00    +0.000 N 
ATOM     20  C   UNL     1       0.476  10.456  19.239  0.00  0.00    +0.000 C 
ATOM     21  O   UNL     1      -0.264  10.008  18.360  0.00  0.00    +0.000 OA
ATOM     22  H   UNL     1       2.021  10.157  20.578  0.00  0.00    +0.000 HD
BRANCH  19  26
ATOM     23  C   UNL     1       2.292   5.593  19.188  0.00  0.00    +0.000 A 
ATOM     24  C   UNL     1       2.522   6.516  18.171  0.00  0.00    +0.000 A 
ATOM     25  C   UNL     1       2.251   7.872  18.378  0.00  0.00    +0.000 A 
ATOM     26  C   UNL     1       1.756   8.341  19.602  0.00  0.00    +0.000 A 
ATOM     27  C   UNL     1       1.543   7.407  20.626  0.00  0.00    +0.000 A 
ATOM     28  C   UNL     1       1.804   6.041  20.422  0.00  0.00    +0.000 A 
BRANCH  23  30
ATOM     29  O   UNL     1       3.734   3.709  19.188  0.00  0.00    +0.000 OA
ATOM     30  C   UNL     1       2.621   4.166  18.940  0.00  0.00    +0.000 C 
ATOM     31  N   UNL     1       1.620   3.405  18.379  0.00  0.00    +0.000 N 
ATOM     32  H   UNL     1       0.880   3.821  17.824  0.00  0.00    +0.000 HD
BRANCH  31  33
ATOM     33  O   UNL     1       1.998   2.089  18.021  0.00  0.00    +0.000 OA
ATOM     34  H   UNL     1       1.443   1.542  18.621  0.00  0.00    +0.000 HD
ENDBRANCH  31  33
ENDBRANCH  23  30
ENDBRANCH  19  26
ENDBRANCH   1  20
TORSDOF 6
ENDMDL
