MODEL 1
REMARK VINA RESULT:      -6.9      0.000      0.000
REMARK  Name = 
REMARK  9 active torsions:
REMARK  status: ('A' for Active; 'I' for Inactive)
REMARK    1  A    between atoms: C_1  and  C_2
REMARK    2  A    between atoms: C_2  and  C_3
REMARK    3  A    between atoms: C_3  and  C_4
REMARK    4  A    between atoms: C_3  and  N_8
REMARK    5  A    between atoms: C_4  and  O_6
REMARK    6  A    between atoms: O_6  and  C_7
REMARK    7  A    between atoms: N_8  and  C_17
REMARK    8  A    between atoms: C_9  and  C_11
REMARK    9  A    between atoms: C_15  and  C_16
REMARK                            x       y       z     vdW  Elec       q    Type
REMARK                         _______ _______ _______ _____ _____    ______ ____
ROOT
ATOM      1  N   UNL     1       3.328   6.322  17.983  0.00  0.00    +0.000 N 
ATOM      2  C   UNL     1       4.215   6.717  16.939  0.00  0.00    +0.000 C 
ATOM      3  O   UNL     1       4.164   7.877  16.518  0.00  0.00    +0.000 OA
ENDROOT
BRANCH   2   4
ATOM      4  C   UNL     1       5.245   5.840  16.321  0.00  0.00    +0.000 A 
ATOM      5  C   UNL     1       5.115   4.745  15.484  0.00  0.00    +0.000 A 
ATOM      6  S   UNL     1       6.632   4.131  15.007  0.00  0.00    +0.000 S 
ATOM      7  N   UNL     1       7.509   5.143  15.949  0.00  0.00    +0.000 NA
ATOM      8  C   UNL     1       6.685   5.960  16.611  0.00  0.00    +0.000 A 
ATOM      9  C   UNL     1       7.343   6.860  17.607  0.00  0.00    +0.000 C 
ENDBRANCH   2   4
BRANCH   1  10
ATOM     10  C   UNL     1       2.552   7.375  18.610  0.00  0.00    +0.000 A 
ATOM     11  C   UNL     1       2.229   7.322  19.979  0.00  0.00    +0.000 A 
ATOM     12  C   UNL     1       1.412   8.292  20.570  0.00  0.00    +0.000 A 
ATOM     13  C   UNL     1       0.890   9.330  19.799  0.00  0.00    +0.000 A 
ATOM     14  C   UNL     1       1.212   9.408  18.448  0.00  0.00    +0.000 A 
ATOM     15  C   UNL     1       2.053   8.449  17.864  0.00  0.00    +0.000 A 
ENDBRANCH   1  10
BRANCH   1  16
ATOM     16  C   UNL     1       3.157   4.978  18.615  0.00  0.00    +0.000 C 
BRANCH  16  18
ATOM     17  C   UNL     1       1.130   3.360  18.416  0.00  0.00    +0.000 C 
ATOM     18  C   UNL     1       2.376   3.941  17.769  0.00  0.00    +0.000 C 
ENDBRANCH  16  18
BRANCH  16  19
ATOM     19  C   UNL     1       4.461   4.388  19.197  0.00  0.00    +0.000 C 
ATOM     20  O   UNL     1       5.296   5.057  19.792  0.00  0.00    +0.000 OA
BRANCH  19  21
ATOM     21  O   UNL     1       4.543   3.043  19.004  0.00  0.00    +0.000 OA
ATOM     22  C   UNL     1       4.436   2.209  20.164  0.00  0.00    +0.000 C 
ENDBRANCH  19  21
ENDBRANCH  16  19
ENDBRANCH   1  16
TORSDOF 6
ENDMDL
MODEL 2
REMARK VINA RESULT:      -6.8      1.581      3.867
REMARK  Name = 
REMARK  9 active torsions:
REMARK  status: ('A' for Active; 'I' for Inactive)
REMARK    1  A    between atoms: C_1  and  C_2
REMARK    2  A    between atoms: C_2  and  C_3
REMARK    3  A    between atoms: C_3  and  C_4
REMARK    4  A    between atoms: C_3  and  N_8
REMARK    5  A    between atoms: C_4  and  O_6
REMARK    6  A    between atoms: O_6  and  C_7
REMARK    7  A    between atoms: N_8  and  C_17
REMARK    8  A    between atoms: C_9  and  C_11
REMARK    9  A    between atoms: C_15  and  C_16
REMARK                            x       y       z     vdW  Elec       q    Type
REMARK                         _______ _______ _______ _____ _____    ______ ____
ROOT
ATOM      1  N   UNL     1       3.723   4.896  17.834  0.00  0.00    +0.000 N 
ATOM      2  C   UNL     1       4.650   3.925  17.352  0.00  0.00    +0.000 C 
ATOM      3  O   UNL     1       4.686   2.814  17.888  0.00  0.00    +0.000 OA
ENDROOT
BRANCH   2   4
ATOM      4  C   UNL     1       5.578   4.131  16.207  0.00  0.00    +0.000 A 
ATOM      5  C   UNL     1       5.373   4.003  14.845  0.00  0.00    +0.000 A 
ATOM      6  S   UNL     1       6.765   4.423  13.955  0.00  0.00    +0.000 S 
ATOM      7  N   UNL     1       7.720   4.651  15.265  0.00  0.00    +0.000 NA
ATOM      8  C   UNL     1       7.010   4.438  16.375  0.00  0.00    +0.000 A 
ATOM      9  C   UNL     1       7.787   4.491  17.651  0.00  0.00    +0.000 C 
ENDBRANCH   2   4
BRANCH   1  10
ATOM     10  C   UNL     1       2.750   4.437  18.807  0.00  0.00    +0.000 A 
ATOM     11  C   UNL     1       2.978   4.589  20.188  0.00  0.00    +0.000 A 
ATOM     12  C   UNL     1       2.082   4.075  21.132  0.00  0.00    +0.000 A 
ATOM     13  C   UNL     1       0.945   3.385  20.713  0.00  0.00    +0.000 A 
ATOM     14  C   UNL     1       0.695   3.239  19.352  0.00  0.00    +0.000 A 
ATOM     15  C   UNL     1       1.580   3.779  18.408  0.00  0.00    +0.000 A 
ENDBRANCH   1  10
BRANCH   1  16
ATOM     16  C   UNL     1       3.530   6.312  17.397  0.00  0.00    +0.000 C 
BRANCH  16  18
ATOM     17  C   UNL     1       2.204   8.506  17.840  0.00  0.00    +0.000 C 
ATOM     18  C   UNL     1       2.785   7.223  18.408  0.00  0.00    +0.000 C 
ENDBRANCH  16  18
BRANCH  16  19
ATOM     19  C   UNL     1       4.811   6.981  16.850  0.00  0.00    +0.000 C 
ATOM     20  O   UNL     1       4.977   7.251  15.668  0.00  0.00    +0.000 OA
BRANCH  19  21
ATOM     21  O   UNL     1       5.700   7.267  17.840  0.00  0.00    +0.000 OA
ATOM     22  C   UNL     1       6.924   7.903  17.455  0.00  0.00    +0.000 C 
ENDBRANCH  19  21
ENDBRANCH  16  19
ENDBRANCH   1  16
TORSDOF 6
ENDMDL
MODEL 3
REMARK VINA RESULT:      -6.7      0.353      1.084
REMARK  Name = 
REMARK  9 active torsions:
REMARK  status: ('A' for Active; 'I' for Inactive)
REMARK    1  A    between atoms: C_1  and  C_2
REMARK    2  A    between atoms: C_2  and  C_3
REMARK    3  A    between atoms: C_3  and  C_4
REMARK    4  A    between atoms: C_3  and  N_8
REMARK    5  A    between atoms: C_4  and  O_6
REMARK    6  A    between atoms: O_6  and  C_7
REMARK    7  A    between atoms: N_8  and  C_17
REMARK    8  A    between atoms: C_9  and  C_11
REMARK    9  A    between atoms: C_15  and  C_16
REMARK                            x       y       z     vdW  Elec       q    Type
REMARK                         _______ _______ _______ _____ _____    ______ ____
ROOT
ATOM      1  N   UNL     1       3.362   6.280  18.049  0.00  0.00    +0.000 N 
ATOM      2  C   UNL     1       4.174   6.755  16.977  0.00  0.00    +0.000 C 
ATOM      3  O   UNL     1       4.000   7.902  16.556  0.00  0.00    +0.000 OA
ENDROOT
BRANCH   2   4
ATOM      4  C   UNL     1       5.264   5.977  16.329  0.00  0.00    +0.000 A 
ATOM      5  C   UNL     1       5.214   4.856  15.519  0.00  0.00    +0.000 A 
ATOM      6  S   UNL     1       6.766   4.395  14.983  0.00  0.00    +0.000 S 
ATOM      7  N   UNL     1       7.571   5.515  15.867  0.00  0.00    +0.000 NA
ATOM      8  C   UNL     1       6.694   6.255  16.551  0.00  0.00    +0.000 A 
ATOM      9  C   UNL     1       7.296   7.241  17.499  0.00  0.00    +0.000 C 
ENDBRANCH   2   4
BRANCH   1  10
ATOM     10  C   UNL     1       2.508   7.258  18.698  0.00  0.00    +0.000 A 
ATOM     11  C   UNL     1       2.017   8.373  17.994  0.00  0.00    +0.000 A 
ATOM     12  C   UNL     1       1.262   9.362  18.635  0.00  0.00    +0.000 A 
ATOM     13  C   UNL     1       0.994   9.261  19.999  0.00  0.00    +0.000 A 
ATOM     14  C   UNL     1       1.458   8.157  20.708  0.00  0.00    +0.000 A 
ATOM     15  C   UNL     1       2.191   7.154  20.058  0.00  0.00    +0.000 A 
ENDBRANCH   1  10
BRANCH   1  16
ATOM     16  C   UNL     1       3.339   4.929  18.688  0.00  0.00    +0.000 C 
BRANCH  16  18
ATOM     17  C   UNL     1       1.219   4.081  17.441  0.00  0.00    +0.000 C 
ATOM     18  C   UNL     1       2.655   3.813  17.857  0.00  0.00    +0.000 C 
ENDBRANCH  16  18
BRANCH  16  19
ATOM     19  C   UNL     1       4.706   4.478  19.250  0.00  0.00    +0.000 C 
ATOM     20  O   UNL     1       5.495   5.241  19.793  0.00  0.00    +0.000 OA
BRANCH  19  21
ATOM     21  O   UNL     1       4.900   3.139  19.107  0.00  0.00    +0.000 OA
ATOM     22  C   UNL     1       4.608   2.311  20.238  0.00  0.00    +0.000 C 
ENDBRANCH  19  21
ENDBRANCH  16  19
ENDBRANCH   1  16
TORSDOF 6
ENDMDL
MODEL 4
REMARK VINA RESULT:      -6.6      0.989      1.031
REMARK  Name = 
REMARK  9 active torsions:
REMARK  status: ('A' for Active; 'I' for Inactive)
REMARK    1  A    between atoms: C_1  and  C_2
REMARK    2  A    between atoms: C_2  and  C_3
REMARK    3  A    between atoms: C_3  and  C_4
REMARK    4  A    between atoms: C_3  and  N_8
REMARK    5  A    between atoms: C_4  and  O_6
REMARK    6  A    between atoms: O_6  and  C_7
REMARK    7  A    between atoms: N_8  and  C_17
REMARK    8  A    between atoms: C_9  and  C_11
REMARK    9  A    between atoms: C_15  and  C_16
REMARK                            x       y       z     vdW  Elec       q    Type
REMARK                         _______ _______ _______ _____ _____    ______ ____
ROOT
ATOM      1  N   UNL     1       3.183   6.199  18.145  0.00  0.00    +0.000 N 
ATOM      2  C   UNL     1       4.300   6.566  17.339  0.00  0.00    +0.000 C 
ATOM      3  O   UNL     1       4.500   7.761  17.100  0.00  0.00    +0.000 OA
ENDROOT
BRANCH   2   4
ATOM      4  C   UNL     1       5.291   5.611  16.775  0.00  0.00    +0.000 A 
ATOM      5  C   UNL     1       5.163   4.662  15.775  0.00  0.00    +0.000 A 
ATOM      6  S   UNL     1       6.640   3.866  15.468  0.00  0.00    +0.000 S 
ATOM      7  N   UNL     1       7.462   4.597  16.681  0.00  0.00    +0.000 NA
ATOM      8  C   UNL     1       6.655   5.453  17.312  0.00  0.00    +0.000 A 
ATOM      9  C   UNL     1       7.238   6.103  18.525  0.00  0.00    +0.000 C 
ENDBRANCH   2   4
BRANCH   1  10
ATOM     10  C   UNL     1       2.462   7.283  18.787  0.00  0.00    +0.000 A 
ATOM     11  C   UNL     1       2.158   7.237  20.161  0.00  0.00    +0.000 A 
ATOM     12  C   UNL     1       1.393   8.239  20.768  0.00  0.00    +0.000 A 
ATOM     13  C   UNL     1       0.903   9.301  20.009  0.00  0.00    +0.000 A 
ATOM     14  C   UNL     1       1.208   9.371  18.653  0.00  0.00    +0.000 A 
ATOM     15  C   UNL     1       1.997   8.380  18.053  0.00  0.00    +0.000 A 
ENDBRANCH   1  10
BRANCH   1  16
ATOM     16  C   UNL     1       2.701   4.836  18.524  0.00  0.00    +0.000 C 
BRANCH  16  18
ATOM     17  C   UNL     1       2.317   2.404  17.683  0.00  0.00    +0.000 C 
ATOM     18  C   UNL     1       2.411   3.881  17.338  0.00  0.00    +0.000 C 
ENDBRANCH  16  18
BRANCH  16  19
ATOM     19  C   UNL     1       3.548   4.155  19.623  0.00  0.00    +0.000 C 
ATOM     20  O   UNL     1       4.696   3.769  19.446  0.00  0.00    +0.000 OA
BRANCH  19  21
ATOM     21  O   UNL     1       2.881   4.079  20.807  0.00  0.00    +0.000 OA
ATOM     22  C   UNL     1       2.541   2.772  21.284  0.00  0.00    +0.000 C 
ENDBRANCH  19  21
ENDBRANCH  16  19
ENDBRANCH   1  16
TORSDOF 6
ENDMDL
MODEL 5
REMARK VINA RESULT:      -6.6      1.370      2.248
REMARK  Name = 
REMARK  9 active torsions:
REMARK  status: ('A' for Active; 'I' for Inactive)
REMARK    1  A    between atoms: C_1  and  C_2
REMARK    2  A    between atoms: C_2  and  C_3
REMARK    3  A    between atoms: C_3  and  C_4
REMARK    4  A    between atoms: C_3  and  N_8
REMARK    5  A    between atoms: C_4  and  O_6
REMARK    6  A    between atoms: O_6  and  C_7
REMARK    7  A    between atoms: N_8  and  C_17
REMARK    8  A    between atoms: C_9  and  C_11
REMARK    9  A    between atoms: C_15  and  C_16
REMARK                            x       y       z     vdW  Elec       q    Type
REMARK                         _______ _______ _______ _____ _____    ______ ____
ROOT
ATOM      1  N   UNL     1       3.359   6.095  17.933  0.00  0.00    +0.000 N 
ATOM      2  C   UNL     1       4.380   6.632  17.094  0.00  0.00    +0.000 C 
ATOM      3  O   UNL     1       4.410   7.849  16.891  0.00  0.00    +0.000 OA
ENDROOT
BRANCH   2   4
ATOM      4  C   UNL     1       5.460   5.834  16.454  0.00  0.00    +0.000 A 
ATOM      5  C   UNL     1       5.544   5.278  15.189  0.00  0.00    +0.000 A 
ATOM      6  S   UNL     1       7.043   4.507  14.936  0.00  0.00    +0.000 S 
ATOM      7  N   UNL     1       7.588   4.729  16.465  0.00  0.00    +0.000 NA
ATOM      8  C   UNL     1       6.672   5.396  17.170  0.00  0.00    +0.000 A 
ATOM      9  C   UNL     1       6.983   5.563  18.623  0.00  0.00    +0.000 C 
ENDBRANCH   2   4
BRANCH   1  10
ATOM     10  C   UNL     1       2.534   7.053  18.644  0.00  0.00    +0.000 A 
ATOM     11  C   UNL     1       1.967   8.157  17.980  0.00  0.00    +0.000 A 
ATOM     12  C   UNL     1       1.239   9.128  18.676  0.00  0.00    +0.000 A 
ATOM     13  C   UNL     1       1.075   9.022  20.057  0.00  0.00    +0.000 A 
ATOM     14  C   UNL     1       1.615   7.929  20.728  0.00  0.00    +0.000 A 
ATOM     15  C   UNL     1       2.321   6.943  20.024  0.00  0.00    +0.000 A 
ENDBRANCH   1  10
BRANCH   1  16
ATOM     16  C   UNL     1       3.078   4.669  18.281  0.00  0.00    +0.000 C 
BRANCH  16  18
ATOM     17  C   UNL     1       4.450   2.891  19.594  0.00  0.00    +0.000 C 
ATOM     18  C   UNL     1       3.661   4.189  19.634  0.00  0.00    +0.000 C 
ENDBRANCH  16  18
BRANCH  16  19
ATOM     19  C   UNL     1       1.597   4.262  18.111  0.00  0.00    +0.000 C 
ATOM     20  O   UNL     1       0.975   4.407  17.066  0.00  0.00    +0.000 OA
BRANCH  19  21
ATOM     21  O   UNL     1       1.092   3.691  19.238  0.00  0.00    +0.000 OA
ATOM     22  C   UNL     1       0.615   2.345  19.131  0.00  0.00    +0.000 C 
ENDBRANCH  19  21
ENDBRANCH  16  19
ENDBRANCH   1  16
TORSDOF 6
ENDMDL
MODEL 6
REMARK VINA RESULT:      -6.5      1.051      1.573
REMARK  Name = 
REMARK  9 active torsions:
REMARK  status: ('A' for Active; 'I' for Inactive)
REMARK    1  A    between atoms: C_1  and  C_2
REMARK    2  A    between atoms: C_2  and  C_3
REMARK    3  A    between atoms: C_3  and  C_4
REMARK    4  A    between atoms: C_3  and  N_8
REMARK    5  A    between atoms: C_4  and  O_6
REMARK    6  A    between atoms: O_6  and  C_7
REMARK    7  A    between atoms: N_8  and  C_17
REMARK    8  A    between atoms: C_9  and  C_11
REMARK    9  A    between atoms: C_15  and  C_16
REMARK                            x       y       z     vdW  Elec       q    Type
REMARK                         _______ _______ _______ _____ _____    ______ ____
ROOT
ATOM      1  N   UNL     1       3.117   6.122  18.148  0.00  0.00    +0.000 N 
ATOM      2  C   UNL     1       4.245   6.515  17.369  0.00  0.00    +0.000 C 
ATOM      3  O   UNL     1       4.422   7.713  17.133  0.00  0.00    +0.000 OA
ENDROOT
BRANCH   2   4
ATOM      4  C   UNL     1       5.273   5.582  16.833  0.00  0.00    +0.000 A 
ATOM      5  C   UNL     1       5.209   4.667  15.797  0.00  0.00    +0.000 A 
ATOM      6  S   UNL     1       6.705   3.888  15.549  0.00  0.00    +0.000 S 
ATOM      7  N   UNL     1       7.451   4.582  16.831  0.00  0.00    +0.000 NA
ATOM      8  C   UNL     1       6.604   5.413  17.442  0.00  0.00    +0.000 A 
ATOM      9  C   UNL     1       7.113   6.025  18.707  0.00  0.00    +0.000 C 
ENDBRANCH   2   4
BRANCH   1  10
ATOM     10  C   UNL     1       2.354   7.189  18.769  0.00  0.00    +0.000 A 
ATOM     11  C   UNL     1       1.887   8.281  18.014  0.00  0.00    +0.000 A 
ATOM     12  C   UNL     1       1.223   9.352  18.622  0.00  0.00    +0.000 A 
ATOM     13  C   UNL     1       1.025   9.359  20.002  0.00  0.00    +0.000 A 
ATOM     14  C   UNL     1       1.465   8.280  20.762  0.00  0.00    +0.000 A 
ATOM     15  C   UNL     1       2.106   7.195  20.147  0.00  0.00    +0.000 A 
ENDBRANCH   1  10
BRANCH   1  16
ATOM     16  C   UNL     1       2.658   4.748  18.517  0.00  0.00    +0.000 C 
BRANCH  16  18
ATOM     17  C   UNL     1       2.405   2.315  17.633  0.00  0.00    +0.000 C 
ATOM     18  C   UNL     1       2.368   3.801  17.324  0.00  0.00    +0.000 C 
ENDBRANCH  16  18
BRANCH  16  19
ATOM     19  C   UNL     1       3.527   4.067  19.599  0.00  0.00    +0.000 C 
ATOM     20  O   UNL     1       4.637   3.601  19.376  0.00  0.00    +0.000 OA
BRANCH  19  21
ATOM     21  O   UNL     1       2.930   4.090  20.822  0.00  0.00    +0.000 OA
ATOM     22  C   UNL     1       1.593   3.583  20.906  0.00  0.00    +0.000 C 
ENDBRANCH  19  21
ENDBRANCH  16  19
ENDBRANCH   1  16
TORSDOF 6
ENDMDL
MODEL 7
REMARK VINA RESULT:      -6.5      1.500      2.055
REMARK  Name = 
REMARK  9 active torsions:
REMARK  status: ('A' for Active; 'I' for Inactive)
REMARK    1  A    between atoms: C_1  and  C_2
REMARK    2  A    between atoms: C_2  and  C_3
REMARK    3  A    between atoms: C_3  and  C_4
REMARK    4  A    between atoms: C_3  and  N_8
REMARK    5  A    between atoms: C_4  and  O_6
REMARK    6  A    between atoms: O_6  and  C_7
REMARK    7  A    between atoms: N_8  and  C_17
REMARK    8  A    between atoms: C_9  and  C_11
REMARK    9  A    between atoms: C_15  and  C_16
REMARK                            x       y       z     vdW  Elec       q    Type
REMARK                         _______ _______ _______ _____ _____    ______ ____
ROOT
ATOM      1  N   UNL     1       3.083   6.224  18.285  0.00  0.00    +0.000 N 
ATOM      2  C   UNL     1       4.185   6.614  17.468  0.00  0.00    +0.000 C 
ATOM      3  O   UNL     1       4.305   7.802  17.152  0.00  0.00    +0.000 OA
ENDROOT
BRANCH   2   4
ATOM      4  C   UNL     1       5.248   5.695  16.980  0.00  0.00    +0.000 A 
ATOM      5  C   UNL     1       5.389   5.040  15.770  0.00  0.00    +0.000 A 
ATOM      6  S   UNL     1       6.840   4.147  15.701  0.00  0.00    +0.000 S 
ATOM      7  N   UNL     1       7.277   4.447  17.250  0.00  0.00    +0.000 NA
ATOM      8  C   UNL     1       6.361   5.229  17.827  0.00  0.00    +0.000 A 
ATOM      9  C   UNL     1       6.567   5.485  19.285  0.00  0.00    +0.000 C 
ENDBRANCH   2   4
BRANCH   1  10
ATOM     10  C   UNL     1       2.279   7.294  18.845  0.00  0.00    +0.000 A 
ATOM     11  C   UNL     1       1.715   8.286  18.020  0.00  0.00    +0.000 A 
ATOM     12  C   UNL     1       1.009   9.365  18.562  0.00  0.00    +0.000 A 
ATOM     13  C   UNL     1       0.864   9.483  19.944  0.00  0.00    +0.000 A 
ATOM     14  C   UNL     1       1.402   8.503  20.774  0.00  0.00    +0.000 A 
ATOM     15  C   UNL     1       2.086   7.408  20.227  0.00  0.00    +0.000 A 
ENDBRANCH   1  10
BRANCH   1  16
ATOM     16  C   UNL     1       2.690   4.858  18.748  0.00  0.00    +0.000 C 
BRANCH  16  18
ATOM     17  C   UNL     1       1.035   3.654  20.354  0.00  0.00    +0.000 C 
ATOM     18  C   UNL     1       2.010   4.799  20.140  0.00  0.00    +0.000 C 
ENDBRANCH  16  18
BRANCH  16  19
ATOM     19  C   UNL     1       1.919   4.035  17.691  0.00  0.00    +0.000 C 
ATOM     20  O   UNL     1       0.910   4.439  17.129  0.00  0.00    +0.000 OA
BRANCH  19  21
ATOM     21  O   UNL     1       2.521   2.841  17.437  0.00  0.00    +0.000 OA
ATOM     22  C   UNL     1       3.771   2.587  18.087  0.00  0.00    +0.000 C 
ENDBRANCH  19  21
ENDBRANCH  16  19
ENDBRANCH   1  16
TORSDOF 6
ENDMDL
MODEL 8
REMARK VINA RESULT:      -6.4      1.372      2.003
REMARK  Name = 
REMARK  9 active torsions:
REMARK  status: ('A' for Active; 'I' for Inactive)
REMARK    1  A    between atoms: C_1  and  C_2
REMARK    2  A    between atoms: C_2  and  C_3
REMARK    3  A    between atoms: C_3  and  C_4
REMARK    4  A    between atoms: C_3  and  N_8
REMARK    5  A    between atoms: C_4  and  O_6
REMARK    6  A    between atoms: O_6  and  C_7
REMARK    7  A    between atoms: N_8  and  C_17
REMARK    8  A    between atoms: C_9  and  C_11
REMARK    9  A    between atoms: C_15  and  C_16
REMARK                            x       y       z     vdW  Elec       q    Type
REMARK                         _______ _______ _______ _____ _____    ______ ____
ROOT
ATOM      1  N   UNL     1       3.398   6.098  17.904  0.00  0.00    +0.000 N 
ATOM      2  C   UNL     1       4.434   6.588  17.055  0.00  0.00    +0.000 C 
ATOM      3  O   UNL     1       4.530   7.805  16.870  0.00  0.00    +0.000 OA
ENDROOT
BRANCH   2   4
ATOM      4  C   UNL     1       5.455   5.740  16.384  0.00  0.00    +0.000 A 
ATOM      5  C   UNL     1       5.392   5.010  15.209  0.00  0.00    +0.000 A 
ATOM      6  S   UNL     1       6.880   4.258  14.854  0.00  0.00    +0.000 S 
ATOM      7  N   UNL     1       7.618   4.716  16.242  0.00  0.00    +0.000 NA
ATOM      8  C   UNL     1       6.774   5.449  16.973  0.00  0.00    +0.000 A 
ATOM      9  C   UNL     1       7.273   5.834  18.328  0.00  0.00    +0.000 C 
ENDBRANCH   2   4
BRANCH   1  10
ATOM     10  C   UNL     1       2.642   7.090  18.645  0.00  0.00    +0.000 A 
ATOM     11  C   UNL     1       2.394   6.933  20.022  0.00  0.00    +0.000 A 
ATOM     12  C   UNL     1       1.596   7.843  20.724  0.00  0.00    +0.000 A 
ATOM     13  C   UNL     1       1.017   8.924  20.058  0.00  0.00    +0.000 A 
ATOM     14  C   UNL     1       1.264   9.103  18.700  0.00  0.00    +0.000 A 
ATOM     15  C   UNL     1       2.086   8.204  18.005  0.00  0.00    +0.000 A 
ENDBRANCH   1  10
BRANCH   1  16
ATOM     16  C   UNL     1       3.042   4.684  18.236  0.00  0.00    +0.000 C 
BRANCH  16  18
ATOM     17  C   UNL     1       4.674   3.083  19.476  0.00  0.00    +0.000 C 
ATOM     18  C   UNL     1       3.604   4.156  19.580  0.00  0.00    +0.000 C 
ENDBRANCH  16  18
BRANCH  16  19
ATOM     19  C   UNL     1       1.540   4.361  18.069  0.00  0.00    +0.000 C 
ATOM     20  O   UNL     1       0.900   4.635  17.062  0.00  0.00    +0.000 OA
BRANCH  19  21
ATOM     21  O   UNL     1       1.036   3.704  19.149  0.00  0.00    +0.000 OA
ATOM     22  C   UNL     1       0.644   2.339  18.960  0.00  0.00    +0.000 C 
ENDBRANCH  19  21
ENDBRANCH  16  19
ENDBRANCH   1  16
TORSDOF 6
ENDMDL
MODEL 9
REMARK VINA RESULT:      -6.4      1.635      3.865
REMARK  Name = 
REMARK  9 active torsions:
REMARK  status: ('A' for Active; 'I' for Inactive)
REMARK    1  A    between atoms: C_1  and  C_2
REMARK    2  A    between atoms: C_2  and  C_3
REMARK    3  A    between atoms: C_3  and  C_4
REMARK    4  A    between atoms: C_3  and  N_8
REMARK    5  A    between atoms: C_4  and  O_6
REMARK    6  A    between atoms: O_6  and  C_7
REMARK    7  A    between atoms: N_8  and  C_17
REMARK    8  A    between atoms: C_9  and  C_11
REMARK    9  A    between atoms: C_15  and  C_16
REMARK                            x       y       z     vdW  Elec       q    Type
REMARK                         _______ _______ _______ _____ _____    ______ ____
ROOT
ATOM      1  N   UNL     1       3.918   4.670  17.713  0.00  0.00    +0.000 N 
ATOM      2  C   UNL     1       4.586   3.729  16.875  0.00  0.00    +0.000 C 
ATOM      3  O   UNL     1       4.364   2.525  17.031  0.00  0.00    +0.000 OA
ENDROOT
BRANCH   2   4
ATOM      4  C   UNL     1       5.527   4.085  15.780  0.00  0.00    +0.000 A 
ATOM      5  C   UNL     1       5.351   4.100  14.407  0.00  0.00    +0.000 A 
ATOM      6  S   UNL     1       6.745   4.654  13.597  0.00  0.00    +0.000 S 
ATOM      7  N   UNL     1       7.669   4.767  14.944  0.00  0.00    +0.000 NA
ATOM      8  C   UNL     1       6.945   4.414  16.010  0.00  0.00    +0.000 A 
ATOM      9  C   UNL     1       7.699   4.350  17.299  0.00  0.00    +0.000 C 
ENDBRANCH   2   4
BRANCH   1  10
ATOM     10  C   UNL     1       2.872   4.147  18.571  0.00  0.00    +0.000 A 
ATOM     11  C   UNL     1       3.076   4.000  19.956  0.00  0.00    +0.000 A 
ATOM     12  C   UNL     1       2.101   3.420  20.776  0.00  0.00    +0.000 A 
ATOM     13  C   UNL     1       0.906   2.961  20.223  0.00  0.00    +0.000 A 
ATOM     14  C   UNL     1       0.681   3.113  18.858  0.00  0.00    +0.000 A 
ATOM     15  C   UNL     1       1.648   3.719  18.044  0.00  0.00    +0.000 A 
ENDBRANCH   1  10
BRANCH   1  16
ATOM     16  C   UNL     1       4.060   6.157  17.760  0.00  0.00    +0.000 C 
BRANCH  16  18
ATOM     17  C   UNL     1       2.454   8.203  17.804  0.00  0.00    +0.000 C 
ATOM     18  C   UNL     1       2.906   6.913  18.467  0.00  0.00    +0.000 C 
ENDBRANCH  16  18
BRANCH  16  19
ATOM     19  C   UNL     1       5.448   6.640  18.240  0.00  0.00    +0.000 C 
ATOM     20  O   UNL     1       6.011   6.191  19.230  0.00  0.00    +0.000 OA
BRANCH  19  21
ATOM     21  O   UNL     1       5.976   7.581  17.411  0.00  0.00    +0.000 OA
ATOM     22  C   UNL     1       7.383   7.825  17.511  0.00  0.00    +0.000 C 
ENDBRANCH  19  21
ENDBRANCH  16  19
ENDBRANCH   1  16
TORSDOF 6
ENDMDL
