MODEL 1
REMARK VINA RESULT:      -8.2      0.000      0.000
REMARK  Name = 
REMARK  8 active torsions:
REMARK  status: ('A' for Active; 'I' for Inactive)
REMARK    1  A    between atoms: C_1  and  O_2
REMARK    2  A    between atoms: O_2  and  C_3
REMARK    3  A    between atoms: C_6  and  C_7
REMARK    4  A    between atoms: C_13  and  C_14
REMARK    5  A    between atoms: C_13  and  C_16
REMARK    6  A    between atoms: C_14  and  O_15
REMARK    7  A    between atoms: C_16  and  C_17
REMARK    8  A    between atoms: C_22  and  C_23
REMARK                            x       y       z     vdW  Elec       q    Type
REMARK                         _______ _______ _______ _____ _____    ______ ____
ROOT
ATOM      1  C   UNL     1       7.072   5.088  14.505  0.00  0.00    +0.000 C 
ATOM      2  O   UNL     1       8.193   5.523  14.236  0.00  0.00    +0.000 OA
ATOM      3  N   UNL     1       6.460   5.398  15.735  0.00  0.00    +0.000 N 
ATOM      4  C   UNL     1       7.193   6.263  16.654  0.00  0.00    +0.000 C 
ATOM      5  C   UNL     1       6.931   5.881  18.103  0.00  0.00    +0.000 C 
ATOM      6  C   UNL     1       5.440   5.744  18.429  0.00  0.00    +0.000 C 
ATOM      7  C   UNL     1       4.576   5.027  17.352  0.00  0.00    +0.000 C 
ATOM      8  C   UNL     1       5.011   5.446  15.933  0.00  0.00    +0.000 C 
ENDROOT
BRANCH   1  12
ATOM      9  C   UNL     1       6.147   2.760  11.940  0.00  0.00    +0.000 A 
ATOM     10  C   UNL     1       4.872   3.177  12.259  0.00  0.00    +0.000 A 
ATOM     11  C   UNL     1       5.018   4.144  13.281  0.00  0.00    +0.000 A 
ATOM     12  C   UNL     1       6.371   4.238  13.558  0.00  0.00    +0.000 A 
ATOM     13  O   UNL     1       7.058   3.417  12.705  0.00  0.00    +0.000 OA
BRANCH   9  15
ATOM     14  C   UNL     1       6.176   0.573  11.156  0.00  0.00    +0.000 C 
ATOM     15  O   UNL     1       6.697   1.893  11.099  0.00  0.00    +0.000 OA
ENDBRANCH   9  15
ENDBRANCH   1  12
BRANCH   7  16
ATOM     16  C   UNL     1       4.741   3.482  17.499  0.00  0.00    +0.000 C 
BRANCH  16  17
ATOM     17  O   UNL     1       5.275   3.075  18.751  0.00  0.00    +0.000 OA
ATOM     18  H   UNL     1       4.806   3.579  19.441  0.00  0.00    +0.000 HD
ENDBRANCH  16  17
ENDBRANCH   7  16
BRANCH   7  19
ATOM     19  C   UNL     1       3.037   5.327  17.520  0.00  0.00    +0.000 C 
BRANCH  19  20
ATOM     20  C   UNL     1       2.214   4.497  18.499  0.00  0.00    +0.000 A 
ATOM     21  C   UNL     1       1.697   3.271  18.024  0.00  0.00    +0.000 A 
ATOM     22  C   UNL     1       0.922   2.438  18.830  0.00  0.00    +0.000 A 
ATOM     23  C   UNL     1       0.629   2.812  20.132  0.00  0.00    +0.000 A 
ATOM     24  C   UNL     1       1.107   4.025  20.621  0.00  0.00    +0.000 A 
ATOM     25  C   UNL     1       1.884   4.888  19.817  0.00  0.00    +0.000 A 
ATOM     26  C   UNL     1       2.305   6.194  20.435  0.00  0.00    +0.000 C 
ENDBRANCH  19  20
ENDBRANCH   7  19
TORSDOF 6
ENDMDL
MODEL 2
REMARK VINA RESULT:      -8.1      1.082      2.098
REMARK  Name = 
REMARK  8 active torsions:
REMARK  status: ('A' for Active; 'I' for Inactive)
REMARK    1  A    between atoms: C_1  and  O_2
REMARK    2  A    between atoms: O_2  and  C_3
REMARK    3  A    between atoms: C_6  and  C_7
REMARK    4  A    between atoms: C_13  and  C_14
REMARK    5  A    between atoms: C_13  and  C_16
REMARK    6  A    between atoms: C_14  and  O_15
REMARK    7  A    between atoms: C_16  and  C_17
REMARK    8  A    between atoms: C_22  and  C_23
REMARK                            x       y       z     vdW  Elec       q    Type
REMARK                         _______ _______ _______ _____ _____    ______ ____
ROOT
ATOM      1  C   UNL     1       6.997   5.104  14.852  0.00  0.00    +0.000 C 
ATOM      2  O   UNL     1       8.110   5.588  14.637  0.00  0.00    +0.000 OA
ATOM      3  N   UNL     1       6.355   5.305  16.090  0.00  0.00    +0.000 N 
ATOM      4  C   UNL     1       7.047   6.119  17.083  0.00  0.00    +0.000 C 
ATOM      5  C   UNL     1       6.770   5.624  18.495  0.00  0.00    +0.000 C 
ATOM      6  C   UNL     1       5.279   5.423  18.781  0.00  0.00    +0.000 C 
ATOM      7  C   UNL     1       4.454   4.765  17.637  0.00  0.00    +0.000 C 
ATOM      8  C   UNL     1       4.902   5.299  16.262  0.00  0.00    +0.000 C 
ENDROOT
BRANCH   1  12
ATOM      9  C   UNL     1       6.183   2.947  12.106  0.00  0.00    +0.000 A 
ATOM     10  C   UNL     1       4.891   3.306  12.429  0.00  0.00    +0.000 A 
ATOM     11  C   UNL     1       4.993   4.199  13.521  0.00  0.00    +0.000 A 
ATOM     12  C   UNL     1       6.337   4.307  13.832  0.00  0.00    +0.000 A 
ATOM     13  O   UNL     1       7.062   3.570  12.935  0.00  0.00    +0.000 OA
BRANCH   9  15
ATOM     14  C   UNL     1       6.205   0.864  11.078  0.00  0.00    +0.000 C 
ATOM     15  O   UNL     1       6.772   2.159  11.215  0.00  0.00    +0.000 OA
ENDBRANCH   9  15
ENDBRANCH   1  12
BRANCH   7  16
ATOM     16  C   UNL     1       4.660   3.218  17.674  0.00  0.00    +0.000 C 
BRANCH  16  17
ATOM     17  O   UNL     1       4.792   2.684  18.984  0.00  0.00    +0.000 OA
ATOM     18  H   UNL     1       3.963   2.880  19.459  0.00  0.00    +0.000 HD
ENDBRANCH  16  17
ENDBRANCH   7  16
BRANCH   7  19
ATOM     19  C   UNL     1       2.905   5.010  17.797  0.00  0.00    +0.000 C 
BRANCH  19  20
ATOM     20  C   UNL     1       2.414   6.179  18.644  0.00  0.00    +0.000 A 
ATOM     21  C   UNL     1       2.378   7.449  18.026  0.00  0.00    +0.000 A 
ATOM     22  C   UNL     1       1.958   8.589  18.711  0.00  0.00    +0.000 A 
ATOM     23  C   UNL     1       1.574   8.496  20.039  0.00  0.00    +0.000 A 
ATOM     24  C   UNL     1       1.619   7.262  20.681  0.00  0.00    +0.000 A 
ATOM     25  C   UNL     1       2.053   6.097  20.009  0.00  0.00    +0.000 A 
ATOM     26  C   UNL     1       2.107   4.828  20.816  0.00  0.00    +0.000 C 
ENDBRANCH  19  20
ENDBRANCH   7  19
TORSDOF 6
ENDMDL
MODEL 3
REMARK VINA RESULT:      -7.9      1.045      1.719
REMARK  Name = 
REMARK  8 active torsions:
REMARK  status: ('A' for Active; 'I' for Inactive)
REMARK    1  A    between atoms: C_1  and  O_2
REMARK    2  A    between atoms: O_2  and  C_3
REMARK    3  A    between atoms: C_6  and  C_7
REMARK    4  A    between atoms: C_13  and  C_14
REMARK    5  A    between atoms: C_13  and  C_16
REMARK    6  A    between atoms: C_14  and  O_15
REMARK    7  A    between atoms: C_16  and  C_17
REMARK    8  A    between atoms: C_22  and  C_23
REMARK                            x       y       z     vdW  Elec       q    Type
REMARK                         _______ _______ _______ _____ _____    ______ ____
ROOT
ATOM      1  C   UNL     1       7.002   4.851  14.345  0.00  0.00    +0.000 C 
ATOM      2  O   UNL     1       8.090   5.368  14.087  0.00  0.00    +0.000 OA
ATOM      3  N   UNL     1       6.405   5.029  15.608  0.00  0.00    +0.000 N 
ATOM      4  C   UNL     1       7.112   5.861  16.576  0.00  0.00    +0.000 C 
ATOM      5  C   UNL     1       6.908   5.353  17.996  0.00  0.00    +0.000 C 
ATOM      6  C   UNL     1       5.437   5.107  18.341  0.00  0.00    +0.000 C 
ATOM      7  C   UNL     1       4.586   4.427  17.229  0.00  0.00    +0.000 C 
ATOM      8  C   UNL     1       4.961   4.978  15.839  0.00  0.00    +0.000 C 
ENDROOT
BRANCH   1  12
ATOM      9  C   UNL     1       6.130   2.530  11.754  0.00  0.00    +0.000 A 
ATOM     10  C   UNL     1       4.875   3.079  11.920  0.00  0.00    +0.000 A 
ATOM     11  C   UNL     1       5.007   4.065  12.926  0.00  0.00    +0.000 A 
ATOM     12  C   UNL     1       6.325   4.038  13.349  0.00  0.00    +0.000 A 
ATOM     13  O   UNL     1       7.015   3.125  12.598  0.00  0.00    +0.000 OA
BRANCH   9  15
ATOM     14  C   UNL     1       6.132   0.284  11.164  0.00  0.00    +0.000 C 
ATOM     15  O   UNL     1       6.677   1.585  11.001  0.00  0.00    +0.000 OA
ENDBRANCH   9  15
ENDBRANCH   1  12
BRANCH   7  16
ATOM     16  C   UNL     1       4.839   2.887  17.251  0.00  0.00    +0.000 C 
BRANCH  16  17
ATOM     17  O   UNL     1       4.160   2.205  18.296  0.00  0.00    +0.000 OA
ATOM     18  H   UNL     1       4.526   2.532  19.138  0.00  0.00    +0.000 HD
ENDBRANCH  16  17
ENDBRANCH   7  16
BRANCH   7  19
ATOM     19  C   UNL     1       3.038   4.625  17.452  0.00  0.00    +0.000 C 
BRANCH  19  20
ATOM     20  C   UNL     1       2.552   5.466  18.628  0.00  0.00    +0.000 A 
ATOM     21  C   UNL     1       1.994   4.773  19.725  0.00  0.00    +0.000 A 
ATOM     22  C   UNL     1       1.508   5.441  20.849  0.00  0.00    +0.000 A 
ATOM     23  C   UNL     1       1.552   6.826  20.903  0.00  0.00    +0.000 A 
ATOM     24  C   UNL     1       2.077   7.537  19.827  0.00  0.00    +0.000 A 
ATOM     25  C   UNL     1       2.564   6.879  18.676  0.00  0.00    +0.000 A 
ATOM     26  C   UNL     1       3.063   7.752  17.556  0.00  0.00    +0.000 C 
ENDBRANCH  19  20
ENDBRANCH   7  19
TORSDOF 6
ENDMDL
MODEL 4
REMARK VINA RESULT:      -7.8      0.492      1.443
REMARK  Name = 
REMARK  8 active torsions:
REMARK  status: ('A' for Active; 'I' for Inactive)
REMARK    1  A    between atoms: C_1  and  O_2
REMARK    2  A    between atoms: O_2  and  C_3
REMARK    3  A    between atoms: C_6  and  C_7
REMARK    4  A    between atoms: C_13  and  C_14
REMARK    5  A    between atoms: C_13  and  C_16
REMARK    6  A    between atoms: C_14  and  O_15
REMARK    7  A    between atoms: C_16  and  C_17
REMARK    8  A    between atoms: C_22  and  C_23
REMARK                            x       y       z     vdW  Elec       q    Type
REMARK                         _______ _______ _______ _____ _____    ______ ____
ROOT
ATOM      1  C   UNL     1       7.099   5.182  14.484  0.00  0.00    +0.000 C 
ATOM      2  O   UNL     1       8.179   5.679  14.158  0.00  0.00    +0.000 OA
ATOM      3  N   UNL     1       6.529   5.470  15.740  0.00  0.00    +0.000 N 
ATOM      4  C   UNL     1       7.252   6.386  16.615  0.00  0.00    +0.000 C 
ATOM      5  C   UNL     1       7.082   6.006  18.078  0.00  0.00    +0.000 C 
ATOM      6  C   UNL     1       5.619   5.786  18.476  0.00  0.00    +0.000 C 
ATOM      7  C   UNL     1       4.748   5.008  17.448  0.00  0.00    +0.000 C 
ATOM      8  C   UNL     1       5.090   5.435  16.006  0.00  0.00    +0.000 C 
ENDROOT
BRANCH   1  12
ATOM      9  C   UNL     1       6.192   2.774  11.988  0.00  0.00    +0.000 A 
ATOM     10  C   UNL     1       4.910   3.122  12.362  0.00  0.00    +0.000 A 
ATOM     11  C   UNL     1       5.049   4.109  13.366  0.00  0.00    +0.000 A 
ATOM     12  C   UNL     1       6.405   4.282  13.579  0.00  0.00    +0.000 A 
ATOM     13  O   UNL     1       7.098   3.492  12.703  0.00  0.00    +0.000 OA
BRANCH   9  15
ATOM     14  C   UNL     1       6.205   0.619  11.120  0.00  0.00    +0.000 C 
ATOM     15  O   UNL     1       6.751   1.930  11.130  0.00  0.00    +0.000 OA
ENDBRANCH   9  15
ENDBRANCH   1  12
BRANCH   7  16
ATOM     16  C   UNL     1       5.010   3.477  17.600  0.00  0.00    +0.000 C 
BRANCH  16  17
ATOM     17  O   UNL     1       5.419   3.088  18.904  0.00  0.00    +0.000 OA
ATOM     18  H   UNL     1       4.813   3.519  19.535  0.00  0.00    +0.000 HD
ENDBRANCH  16  17
ENDBRANCH   7  16
BRANCH   7  19
ATOM     19  C   UNL     1       3.204   5.220  17.687  0.00  0.00    +0.000 C 
BRANCH  19  20
ATOM     20  C   UNL     1       2.527   4.531  18.866  0.00  0.00    +0.000 A 
ATOM     21  C   UNL     1       2.546   5.211  20.104  0.00  0.00    +0.000 A 
ATOM     22  C   UNL     1       1.967   4.668  21.251  0.00  0.00    +0.000 A 
ATOM     23  C   UNL     1       1.362   3.422  21.197  0.00  0.00    +0.000 A 
ATOM     24  C   UNL     1       1.346   2.719  19.996  0.00  0.00    +0.000 A 
ATOM     25  C   UNL     1       1.937   3.246  18.826  0.00  0.00    +0.000 A 
ATOM     26  C   UNL     1       1.903   2.377  17.598  0.00  0.00    +0.000 C 
ENDBRANCH  19  20
ENDBRANCH   7  19
TORSDOF 6
ENDMDL
MODEL 5
REMARK VINA RESULT:      -7.6      1.434      2.072
REMARK  Name = 
REMARK  8 active torsions:
REMARK  status: ('A' for Active; 'I' for Inactive)
REMARK    1  A    between atoms: C_1  and  O_2
REMARK    2  A    between atoms: O_2  and  C_3
REMARK    3  A    between atoms: C_6  and  C_7
REMARK    4  A    between atoms: C_13  and  C_14
REMARK    5  A    between atoms: C_13  and  C_16
REMARK    6  A    between atoms: C_14  and  O_15
REMARK    7  A    between atoms: C_16  and  C_17
REMARK    8  A    between atoms: C_22  and  C_23
REMARK                            x       y       z     vdW  Elec       q    Type
REMARK                         _______ _______ _______ _____ _____    ______ ____
ROOT
ATOM      1  C   UNL     1       6.873   4.612  14.026  0.00  0.00    +0.000 C 
ATOM      2  O   UNL     1       7.941   5.168  13.765  0.00  0.00    +0.000 OA
ATOM      3  N   UNL     1       6.297   4.731  15.306  0.00  0.00    +0.000 N 
ATOM      4  C   UNL     1       7.001   5.548  16.288  0.00  0.00    +0.000 C 
ATOM      5  C   UNL     1       6.840   4.986  17.693  0.00  0.00    +0.000 C 
ATOM      6  C   UNL     1       5.383   4.688  18.059  0.00  0.00    +0.000 C 
ATOM      7  C   UNL     1       4.528   4.024  16.940  0.00  0.00    +0.000 C 
ATOM      8  C   UNL     1       4.860   4.633  15.563  0.00  0.00    +0.000 C 
ENDROOT
BRANCH   1  12
ATOM      9  C   UNL     1       4.537   3.168  11.721  0.00  0.00    +0.000 A 
ATOM     10  C   UNL     1       5.580   2.300  11.471  0.00  0.00    +0.000 A 
ATOM     11  C   UNL     1       6.637   2.702  12.322  0.00  0.00    +0.000 A 
ATOM     12  C   UNL     1       6.198   3.816  13.015  0.00  0.00    +0.000 A 
ATOM     13  O   UNL     1       4.897   4.070  12.672  0.00  0.00    +0.000 OA
BRANCH   9  15
ATOM     14  C   UNL     1       3.198   3.936   9.985  0.00  0.00    +0.000 C 
ATOM     15  O   UNL     1       3.302   3.344  11.271  0.00  0.00    +0.000 OA
ENDBRANCH   9  15
ENDBRANCH   1  12
BRANCH   7  16
ATOM     16  C   UNL     1       4.823   2.492  16.903  0.00  0.00    +0.000 C 
BRANCH  16  17
ATOM     17  O   UNL     1       4.104   1.742  17.873  0.00  0.00    +0.000 OA
ATOM     18  H   UNL     1       4.089   0.817  17.568  0.00  0.00    +0.000 HD
ENDBRANCH  16  17
ENDBRANCH   7  16
BRANCH   7  19
ATOM     19  C   UNL     1       2.980   4.173  17.200  0.00  0.00    +0.000 C 
BRANCH  19  20
ATOM     20  C   UNL     1       2.496   4.849  18.478  0.00  0.00    +0.000 A 
ATOM     21  C   UNL     1       1.946   4.015  19.477  0.00  0.00    +0.000 A 
ATOM     22  C   UNL     1       1.462   4.529  20.680  0.00  0.00    +0.000 A 
ATOM     23  C   UNL     1       1.502   5.894  20.915  0.00  0.00    +0.000 A 
ATOM     24  C   UNL     1       2.020   6.743  19.941  0.00  0.00    +0.000 A 
ATOM     25  C   UNL     1       2.504   6.244  18.712  0.00  0.00    +0.000 A 
ATOM     26  C   UNL     1       2.995   7.259  17.714  0.00  0.00    +0.000 C 
ENDBRANCH  19  20
ENDBRANCH   7  19
TORSDOF 6
ENDMDL
MODEL 6
REMARK VINA RESULT:      -7.5      1.347      2.274
REMARK  Name = 
REMARK  8 active torsions:
REMARK  status: ('A' for Active; 'I' for Inactive)
REMARK    1  A    between atoms: C_1  and  O_2
REMARK    2  A    between atoms: O_2  and  C_3
REMARK    3  A    between atoms: C_6  and  C_7
REMARK    4  A    between atoms: C_13  and  C_14
REMARK    5  A    between atoms: C_13  and  C_16
REMARK    6  A    between atoms: C_14  and  O_15
REMARK    7  A    between atoms: C_16  and  C_17
REMARK    8  A    between atoms: C_22  and  C_23
REMARK                            x       y       z     vdW  Elec       q    Type
REMARK                         _______ _______ _______ _____ _____    ______ ____
ROOT
ATOM      1  C   UNL     1       7.010   4.840  14.302  0.00  0.00    +0.000 C 
ATOM      2  O   UNL     1       8.085   5.395  14.065  0.00  0.00    +0.000 OA
ATOM      3  N   UNL     1       6.413   4.949  15.573  0.00  0.00    +0.000 N 
ATOM      4  C   UNL     1       7.103   5.754  16.575  0.00  0.00    +0.000 C 
ATOM      5  C   UNL     1       6.915   5.180  17.971  0.00  0.00    +0.000 C 
ATOM      6  C   UNL     1       5.451   4.883  18.309  0.00  0.00    +0.000 C 
ATOM      7  C   UNL     1       4.613   4.233  17.170  0.00  0.00    +0.000 C 
ATOM      8  C   UNL     1       4.971   4.854  15.804  0.00  0.00    +0.000 C 
ENDROOT
BRANCH   1  12
ATOM      9  C   UNL     1       4.690   3.375  11.995  0.00  0.00    +0.000 A 
ATOM     10  C   UNL     1       5.772   2.583  11.672  0.00  0.00    +0.000 A 
ATOM     11  C   UNL     1       6.831   3.005  12.511  0.00  0.00    +0.000 A 
ATOM     12  C   UNL     1       6.350   4.056  13.272  0.00  0.00    +0.000 A 
ATOM     13  O   UNL     1       5.027   4.250  12.979  0.00  0.00    +0.000 OA
BRANCH   9  15
ATOM     14  C   UNL     1       3.243   3.525  10.183  0.00  0.00    +0.000 C 
ATOM     15  O   UNL     1       3.432   3.501  11.590  0.00  0.00    +0.000 OA
ENDBRANCH   9  15
ENDBRANCH   1  12
BRANCH   7  16
ATOM     16  C   UNL     1       4.904   2.700  17.123  0.00  0.00    +0.000 C 
BRANCH  16  17
ATOM     17  O   UNL     1       4.114   1.935  18.023  0.00  0.00    +0.000 OA
ATOM     18  H   UNL     1       4.129   1.013  17.707  0.00  0.00    +0.000 HD
ENDBRANCH  16  17
ENDBRANCH   7  16
BRANCH   7  19
ATOM     19  C   UNL     1       3.061   4.384  17.404  0.00  0.00    +0.000 C 
BRANCH  19  20
ATOM     20  C   UNL     1       2.556   5.339  18.480  0.00  0.00    +0.000 A 
ATOM     21  C   UNL     1       2.633   6.721  18.198  0.00  0.00    +0.000 A 
ATOM     22  C   UNL     1       2.210   7.684  19.114  0.00  0.00    +0.000 A 
ATOM     23  C   UNL     1       1.708   7.294  20.346  0.00  0.00    +0.000 A 
ATOM     24  C   UNL     1       1.639   5.939  20.660  0.00  0.00    +0.000 A 
ATOM     25  C   UNL     1       2.074   4.949  19.750  0.00  0.00    +0.000 A 
ATOM     26  C   UNL     1       1.998   3.520  20.217  0.00  0.00    +0.000 C 
ENDBRANCH  19  20
ENDBRANCH   7  19
TORSDOF 6
ENDMDL
MODEL 7
REMARK VINA RESULT:      -7.3      2.911      5.632
REMARK  Name = 
REMARK  8 active torsions:
REMARK  status: ('A' for Active; 'I' for Inactive)
REMARK    1  A    between atoms: C_1  and  O_2
REMARK    2  A    between atoms: O_2  and  C_3
REMARK    3  A    between atoms: C_6  and  C_7
REMARK    4  A    between atoms: C_13  and  C_14
REMARK    5  A    between atoms: C_13  and  C_16
REMARK    6  A    between atoms: C_14  and  O_15
REMARK    7  A    between atoms: C_16  and  C_17
REMARK    8  A    between atoms: C_22  and  C_23
REMARK                            x       y       z     vdW  Elec       q    Type
REMARK                         _______ _______ _______ _____ _____    ______ ____
ROOT
ATOM      1  C   UNL     1       4.778   3.606  19.340  0.00  0.00    +0.000 C 
ATOM      2  O   UNL     1       4.917   2.397  19.531  0.00  0.00    +0.000 OA
ATOM      3  N   UNL     1       3.603   4.266  19.750  0.00  0.00    +0.000 N 
ATOM      4  C   UNL     1       2.582   3.470  20.421  0.00  0.00    +0.000 C 
ATOM      5  C   UNL     1       1.183   3.958  20.075  0.00  0.00    +0.000 C 
ATOM      6  C   UNL     1       1.012   5.470  20.254  0.00  0.00    +0.000 C 
ATOM      7  C   UNL     1       2.198   6.347  19.759  0.00  0.00    +0.000 C 
ATOM      8  C   UNL     1       3.549   5.686  20.102  0.00  0.00    +0.000 C 
ENDROOT
BRANCH   1  12
ATOM      9  C   UNL     1       7.178   4.953  17.041  0.00  0.00    +0.000 A 
ATOM     10  C   UNL     1       7.511   5.747  18.119  0.00  0.00    +0.000 A 
ATOM     11  C   UNL     1       6.658   5.352  19.176  0.00  0.00    +0.000 A 
ATOM     12  C   UNL     1       5.824   4.366  18.678  0.00  0.00    +0.000 A 
ATOM     13  O   UNL     1       6.176   4.099  17.382  0.00  0.00    +0.000 OA
BRANCH   9  15
ATOM     14  C   UNL     1       6.557   4.475  14.855  0.00  0.00    +0.000 C 
ATOM     15  O   UNL     1       7.575   4.819  15.783  0.00  0.00    +0.000 OA
ENDBRANCH   9  15
ENDBRANCH   1  12
BRANCH   7  16
ATOM     16  C   UNL     1       2.099   6.527  18.211  0.00  0.00    +0.000 C 
BRANCH  16  17
ATOM     17  O   UNL     1       3.343   6.804  17.582  0.00  0.00    +0.000 OA
ATOM     18  H   UNL     1       3.432   7.774  17.536  0.00  0.00    +0.000 HD
ENDBRANCH  16  17
ENDBRANCH   7  16
BRANCH   7  19
ATOM     19  C   UNL     1       2.172   7.797  20.377  0.00  0.00    +0.000 C 
BRANCH  19  20
ATOM     20  C   UNL     1       1.131   8.800  19.891  0.00  0.00    +0.000 A 
ATOM     21  C   UNL     1       1.332   9.362  18.610  0.00  0.00    +0.000 A 
ATOM     22  C   UNL     1       0.449  10.299  18.071  0.00  0.00    +0.000 A 
ATOM     23  C   UNL     1      -0.654  10.710  18.802  0.00  0.00    +0.000 A 
ATOM     24  C   UNL     1      -0.866  10.188  20.075  0.00  0.00    +0.000 A 
ATOM     25  C   UNL     1       0.022   9.249  20.644  0.00  0.00    +0.000 A 
ATOM     26  C   UNL     1      -0.281   8.791  22.046  0.00  0.00    +0.000 C 
ENDBRANCH  19  20
ENDBRANCH   7  19
TORSDOF 6
ENDMDL
MODEL 8
REMARK VINA RESULT:      -7.2      1.208      1.500
REMARK  Name = 
REMARK  8 active torsions:
REMARK  status: ('A' for Active; 'I' for Inactive)
REMARK    1  A    between atoms: C_1  and  O_2
REMARK    2  A    between atoms: O_2  and  C_3
REMARK    3  A    between atoms: C_6  and  C_7
REMARK    4  A    between atoms: C_13  and  C_14
REMARK    5  A    between atoms: C_13  and  C_16
REMARK    6  A    between atoms: C_14  and  O_15
REMARK    7  A    between atoms: C_16  and  C_17
REMARK    8  A    between atoms: C_22  and  C_23
REMARK                            x       y       z     vdW  Elec       q    Type
REMARK                         _______ _______ _______ _____ _____    ______ ____
ROOT
ATOM      1  C   UNL     1       7.151   5.055  14.268  0.00  0.00    +0.000 C 
ATOM      2  O   UNL     1       8.230   5.608  14.048  0.00  0.00    +0.000 OA
ATOM      3  N   UNL     1       6.494   5.234  15.501  0.00  0.00    +0.000 N 
ATOM      4  C   UNL     1       7.127   6.109  16.482  0.00  0.00    +0.000 C 
ATOM      5  C   UNL     1       6.879   5.620  17.901  0.00  0.00    +0.000 C 
ATOM      6  C   UNL     1       5.403   5.326  18.188  0.00  0.00    +0.000 C 
ATOM      7  C   UNL     1       4.627   4.595  17.054  0.00  0.00    +0.000 C 
ATOM      8  C   UNL     1       5.043   5.135  15.670  0.00  0.00    +0.000 C 
ENDROOT
BRANCH   1  12
ATOM      9  C   UNL     1       4.926   3.288  12.082  0.00  0.00    +0.000 A 
ATOM     10  C   UNL     1       6.094   2.694  11.651  0.00  0.00    +0.000 A 
ATOM     11  C   UNL     1       7.133   3.262  12.426  0.00  0.00    +0.000 A 
ATOM     12  C   UNL     1       6.549   4.200  13.260  0.00  0.00    +0.000 A 
ATOM     13  O   UNL     1       5.193   4.179  13.073  0.00  0.00    +0.000 OA
BRANCH   9  15
ATOM     14  C   UNL     1       3.311   3.519  10.428  0.00  0.00    +0.000 C 
ATOM     15  O   UNL     1       3.637   3.214  11.776  0.00  0.00    +0.000 OA
ENDBRANCH   9  15
ENDBRANCH   1  12
BRANCH   7  16
ATOM     16  C   UNL     1       4.935   3.066  17.117  0.00  0.00    +0.000 C 
BRANCH  16  17
ATOM     17  O   UNL     1       5.530   2.548  15.935  0.00  0.00    +0.000 OA
ATOM     18  H   UNL     1       5.119   3.009  15.181  0.00  0.00    +0.000 HD
ENDBRANCH  16  17
ENDBRANCH   7  16
BRANCH   7  19
ATOM     19  C   UNL     1       3.065   4.740  17.205  0.00  0.00    +0.000 C 
BRANCH  19  20
ATOM     20  C   UNL     1       2.386   4.239  18.475  0.00  0.00    +0.000 A 
ATOM     21  C   UNL     1       1.971   2.888  18.490  0.00  0.00    +0.000 A 
ATOM     22  C   UNL     1       1.330   2.327  19.595  0.00  0.00    +0.000 A 
ATOM     23  C   UNL     1       1.072   3.104  20.713  0.00  0.00    +0.000 A 
ATOM     24  C   UNL     1       1.451   4.444  20.719  0.00  0.00    +0.000 A 
ATOM     25  C   UNL     1       2.090   5.034  19.607  0.00  0.00    +0.000 A 
ATOM     26  C   UNL     1       2.409   6.501  19.707  0.00  0.00    +0.000 C 
ENDBRANCH  19  20
ENDBRANCH   7  19
TORSDOF 6
ENDMDL
MODEL 9
REMARK VINA RESULT:      -7.2      2.840      5.256
REMARK  Name = 
REMARK  8 active torsions:
REMARK  status: ('A' for Active; 'I' for Inactive)
REMARK    1  A    between atoms: C_1  and  O_2
REMARK    2  A    between atoms: O_2  and  C_3
REMARK    3  A    between atoms: C_6  and  C_7
REMARK    4  A    between atoms: C_13  and  C_14
REMARK    5  A    between atoms: C_13  and  C_16
REMARK    6  A    between atoms: C_14  and  O_15
REMARK    7  A    between atoms: C_16  and  C_17
REMARK    8  A    between atoms: C_22  and  C_23
REMARK                            x       y       z     vdW  Elec       q    Type
REMARK                         _______ _______ _______ _____ _____    ______ ____
ROOT
ATOM      1  C   UNL     1       4.792   3.686  19.223  0.00  0.00    +0.000 C 
ATOM      2  O   UNL     1       5.094   2.653  19.823  0.00  0.00    +0.000 OA
ATOM      3  N   UNL     1       3.731   4.494  19.677  0.00  0.00    +0.000 N 
ATOM      4  C   UNL     1       3.031   4.071  20.886  0.00  0.00    +0.000 C 
ATOM      5  C   UNL     1       1.553   4.425  20.822  0.00  0.00    +0.000 C 
ATOM      6  C   UNL     1       1.299   5.884  20.433  0.00  0.00    +0.000 C 
ATOM      7  C   UNL     1       2.200   6.447  19.295  0.00  0.00    +0.000 C 
ATOM      8  C   UNL     1       3.648   5.936  19.440  0.00  0.00    +0.000 C 
ENDROOT
BRANCH   1  12
ATOM      9  C   UNL     1       5.866   4.393  15.876  0.00  0.00    +0.000 A 
ATOM     10  C   UNL     1       7.040   4.745  16.509  0.00  0.00    +0.000 A 
ATOM     11  C   UNL     1       6.825   4.519  17.889  0.00  0.00    +0.000 A 
ATOM     12  C   UNL     1       5.521   4.079  18.029  0.00  0.00    +0.000 A 
ATOM     13  O   UNL     1       4.954   3.966  16.788  0.00  0.00    +0.000 OA
BRANCH   9  15
ATOM     14  C   UNL     1       6.342   3.947  13.647  0.00  0.00    +0.000 C 
ATOM     15  O   UNL     1       5.411   4.374  14.630  0.00  0.00    +0.000 OA
ENDBRANCH   9  15
ENDBRANCH   1  12
BRANCH   7  16
ATOM     16  C   UNL     1       1.635   5.990  17.914  0.00  0.00    +0.000 C 
BRANCH  16  17
ATOM     17  O   UNL     1       2.019   4.674  17.540  0.00  0.00    +0.000 OA
ATOM     18  H   UNL     1       2.913   4.522  17.900  0.00  0.00    +0.000 HD
ENDBRANCH  16  17
ENDBRANCH   7  16
BRANCH   7  19
ATOM     19  C   UNL     1       2.219   8.023  19.268  0.00  0.00    +0.000 C 
BRANCH  19  20
ATOM     20  C   UNL     1       1.291   8.800  20.196  0.00  0.00    +0.000 A 
ATOM     21  C   UNL     1       1.430   8.567  21.583  0.00  0.00    +0.000 A 
ATOM     22  C   UNL     1       0.626   9.214  22.522  0.00  0.00    +0.000 A 
ATOM     23  C   UNL     1      -0.350  10.104  22.100  0.00  0.00    +0.000 A 
ATOM     24  C   UNL     1      -0.523  10.337  20.739  0.00  0.00    +0.000 A 
ATOM     25  C   UNL     1       0.272   9.684  19.772  0.00  0.00    +0.000 A 
ATOM     26  C   UNL     1      -0.037   9.977  18.329  0.00  0.00    +0.000 C 
ENDBRANCH  19  20
ENDBRANCH   7  19
TORSDOF 6
ENDMDL
