MODEL 1
REMARK VINA RESULT:      -6.9      0.000      0.000
REMARK  Name = 
REMARK  5 active torsions:
REMARK  status: ('A' for Active; 'I' for Inactive)
REMARK    1  A    between atoms: O_1  and  C_2
REMARK    2  A    between atoms: C_3  and  O_4
REMARK    3  A    between atoms: C_7  and  O_8
REMARK    4  A    between atoms: O_8  and  N_9
REMARK    5  A    between atoms: C_15  and  O_16
REMARK                            x       y       z     vdW  Elec       q    Type
REMARK                         _______ _______ _______ _____ _____    ______ ____
ROOT
ATOM      1  C   UNL     1       7.278   5.065  17.435  0.00  0.00    +0.000 C 
ATOM      2  C   UNL     1       6.464   4.954  16.141  0.00  0.00    +0.000 C 
ATOM      3  C   UNL     1       5.286   5.920  16.208  0.00  0.00    +0.000 C 
ATOM      4  O   UNL     1       4.457   5.602  17.323  0.00  0.00    +0.000 OA
ATOM      5  C   UNL     1       5.137   5.785  18.568  0.00  0.00    +0.000 C 
ATOM      6  C   UNL     1       6.390   4.886  18.674  0.00  0.00    +0.000 C 
ENDROOT
BRANCH   1   7
ATOM      7  O   UNL     1       8.340   4.108  17.440  0.00  0.00    +0.000 OA
ATOM      8  H   UNL     1       8.401   3.759  18.353  0.00  0.00    +0.000 HD
ENDBRANCH   1   7
BRANCH   2   9
ATOM      9  O   UNL     1       7.320   5.214  15.025  0.00  0.00    +0.000 OA
ATOM     10  H   UNL     1       7.073   6.066  14.626  0.00  0.00    +0.000 HD
ENDBRANCH   2   9
BRANCH   6  11
ATOM     11  O   UNL     1       7.123   5.234  19.867  0.00  0.00    +0.000 OA
ATOM     12  H   UNL     1       8.007   5.543  19.603  0.00  0.00    +0.000 HD
ENDBRANCH   6  11
BRANCH   5  13
ATOM     13  O   UNL     1       4.316   5.490  19.716  0.00  0.00    +0.000 OA
BRANCH  13  14
ATOM     14  N   UNL     1       3.117   4.688  19.390  0.00  0.00    +0.000 NA
ATOM     15  C   UNL     1       3.550   3.327  19.773  0.00  0.00    +0.000 C 
ATOM     16  C   UNL     1       2.400   2.322  19.803  0.00  0.00    +0.000 C 
ATOM     17  C   UNL     1       1.255   2.815  20.678  0.00  0.00    +0.000 C 
ATOM     18  C   UNL     1       0.849   4.215  20.245  0.00  0.00    +0.000 C 
ATOM     19  C   UNL     1       2.050   5.151  20.275  0.00  0.00    +0.000 C 
ENDBRANCH  13  14
ENDBRANCH   5  13
TORSDOF 5
ENDMDL
MODEL 2
REMARK VINA RESULT:      -6.9      1.378      1.827
REMARK  Name = 
REMARK  5 active torsions:
REMARK  status: ('A' for Active; 'I' for Inactive)
REMARK    1  A    between atoms: O_1  and  C_2
REMARK    2  A    between atoms: C_3  and  O_4
REMARK    3  A    between atoms: C_7  and  O_8
REMARK    4  A    between atoms: O_8  and  N_9
REMARK    5  A    between atoms: C_15  and  O_16
REMARK                            x       y       z     vdW  Elec       q    Type
REMARK                         _______ _______ _______ _____ _____    ______ ____
ROOT
ATOM      1  C   UNL     1       7.011   4.659  17.018  0.00  0.00    +0.000 C 
ATOM      2  C   UNL     1       6.807   4.728  15.500  0.00  0.00    +0.000 C 
ATOM      3  C   UNL     1       5.383   5.190  15.208  0.00  0.00    +0.000 C 
ATOM      4  O   UNL     1       4.447   4.277  15.776  0.00  0.00    +0.000 OA
ATOM      5  C   UNL     1       4.525   4.246  17.204  0.00  0.00    +0.000 C 
ATOM      6  C   UNL     1       5.925   3.810  17.692  0.00  0.00    +0.000 C 
ENDROOT
BRANCH   1   7
ATOM      7  O   UNL     1       8.309   4.144  17.324  0.00  0.00    +0.000 OA
ATOM      8  H   UNL     1       8.952   4.848  17.100  0.00  0.00    +0.000 HD
ENDBRANCH   1   7
BRANCH   2   9
ATOM      9  O   UNL     1       7.791   5.597  14.934  0.00  0.00    +0.000 OA
ATOM     10  H   UNL     1       7.716   6.475  15.348  0.00  0.00    +0.000 HD
ENDBRANCH   2   9
BRANCH   6  11
ATOM     11  O   UNL     1       5.994   3.960  19.125  0.00  0.00    +0.000 OA
ATOM     12  H   UNL     1       6.002   3.073  19.526  0.00  0.00    +0.000 HD
ENDBRANCH   6  11
BRANCH   5  13
ATOM     13  O   UNL     1       3.575   3.345  17.808  0.00  0.00    +0.000 OA
BRANCH  13  14
ATOM     14  N   UNL     1       3.202   3.723  19.187  0.00  0.00    +0.000 NA
ATOM     15  C   UNL     1       1.788   4.123  19.019  0.00  0.00    +0.000 C 
ATOM     16  C   UNL     1       1.056   4.302  20.348  0.00  0.00    +0.000 C 
ATOM     17  C   UNL     1       1.190   3.064  21.225  0.00  0.00    +0.000 C 
ATOM     18  C   UNL     1       2.658   2.694  21.367  0.00  0.00    +0.000 C 
ATOM     19  C   UNL     1       3.294   2.508  19.995  0.00  0.00    +0.000 C 
ENDBRANCH  13  14
ENDBRANCH   5  13
TORSDOF 5
ENDMDL
MODEL 3
REMARK VINA RESULT:      -6.8      1.000      1.132
REMARK  Name = 
REMARK  5 active torsions:
REMARK  status: ('A' for Active; 'I' for Inactive)
REMARK    1  A    between atoms: O_1  and  C_2
REMARK    2  A    between atoms: C_3  and  O_4
REMARK    3  A    between atoms: C_7  and  O_8
REMARK    4  A    between atoms: O_8  and  N_9
REMARK    5  A    between atoms: C_15  and  O_16
REMARK                            x       y       z     vdW  Elec       q    Type
REMARK                         _______ _______ _______ _____ _____    ______ ____
ROOT
ATOM      1  C   UNL     1       7.035   5.042  17.473  0.00  0.00    +0.000 C 
ATOM      2  C   UNL     1       6.582   4.881  16.018  0.00  0.00    +0.000 C 
ATOM      3  C   UNL     1       5.550   5.956  15.694  0.00  0.00    +0.000 C 
ATOM      4  O   UNL     1       4.426   5.831  16.561  0.00  0.00    +0.000 OA
ATOM      5  C   UNL     1       4.773   6.072  17.928  0.00  0.00    +0.000 C 
ATOM      6  C   UNL     1       5.838   5.072  18.434  0.00  0.00    +0.000 C 
ENDROOT
BRANCH   1   7
ATOM      7  O   UNL     1       7.937   3.993  17.834  0.00  0.00    +0.000 OA
ATOM      8  H   UNL     1       7.745   3.239  17.239  0.00  0.00    +0.000 HD
ENDBRANCH   1   7
BRANCH   2   9
ATOM      9  O   UNL     1       7.725   4.945  15.161  0.00  0.00    +0.000 OA
ATOM     10  H   UNL     1       8.528   5.024  15.706  0.00  0.00    +0.000 HD
ENDBRANCH   2   9
BRANCH   6  11
ATOM     11  O   UNL     1       6.269   5.466  19.753  0.00  0.00    +0.000 OA
ATOM     12  H   UNL     1       5.563   5.242  20.385  0.00  0.00    +0.000 HD
ENDBRANCH   6  11
BRANCH   5  13
ATOM     13  O   UNL     1       3.650   5.971  18.828  0.00  0.00    +0.000 OA
BRANCH  13  14
ATOM     14  N   UNL     1       3.200   4.581  19.052  0.00  0.00    +0.000 NA
ATOM     15  C   UNL     1       2.780   4.624  20.470  0.00  0.00    +0.000 C 
ATOM     16  C   UNL     1       2.003   3.381  20.900  0.00  0.00    +0.000 C 
ATOM     17  C   UNL     1       0.825   3.115  19.972  0.00  0.00    +0.000 C 
ATOM     18  C   UNL     1       1.307   3.082  18.530  0.00  0.00    +0.000 C 
ATOM     19  C   UNL     1       2.043   4.371  18.185  0.00  0.00    +0.000 C 
ENDBRANCH  13  14
ENDBRANCH   5  13
TORSDOF 5
ENDMDL
MODEL 4
REMARK VINA RESULT:      -6.8      1.571      1.697
REMARK  Name = 
REMARK  5 active torsions:
REMARK  status: ('A' for Active; 'I' for Inactive)
REMARK    1  A    between atoms: O_1  and  C_2
REMARK    2  A    between atoms: C_3  and  O_4
REMARK    3  A    between atoms: C_7  and  O_8
REMARK    4  A    between atoms: O_8  and  N_9
REMARK    5  A    between atoms: C_15  and  O_16
REMARK                            x       y       z     vdW  Elec       q    Type
REMARK                         _______ _______ _______ _____ _____    ______ ____
ROOT
ATOM      1  C   UNL     1       6.814   4.990  17.798  0.00  0.00    +0.000 C 
ATOM      2  C   UNL     1       6.831   6.109  16.750  0.00  0.00    +0.000 C 
ATOM      3  C   UNL     1       5.507   6.865  16.807  0.00  0.00    +0.000 C 
ATOM      4  O   UNL     1       4.425   5.976  16.540  0.00  0.00    +0.000 OA
ATOM      5  C   UNL     1       4.300   4.965  17.545  0.00  0.00    +0.000 C 
ATOM      6  C   UNL     1       5.574   4.097  17.647  0.00  0.00    +0.000 C 
ENDROOT
BRANCH   1   7
ATOM      7  O   UNL     1       8.007   4.207  17.711  0.00  0.00    +0.000 OA
ATOM      8  H   UNL     1       8.031   3.640  18.509  0.00  0.00    +0.000 HD
ENDBRANCH   1   7
BRANCH   2   9
ATOM      9  O   UNL     1       7.955   6.958  16.989  0.00  0.00    +0.000 OA
ATOM     10  H   UNL     1       7.856   7.381  17.861  0.00  0.00    +0.000 HD
ENDBRANCH   2   9
BRANCH   6  11
ATOM     11  O   UNL     1       5.456   3.214  18.781  0.00  0.00    +0.000 OA
ATOM     12  H   UNL     1       4.857   3.625  19.429  0.00  0.00    +0.000 HD
ENDBRANCH   6  11
BRANCH   5  13
ATOM     13  O   UNL     1       3.200   4.062  17.312  0.00  0.00    +0.000 OA
BRANCH  13  14
ATOM     14  N   UNL     1       2.087   4.232  18.270  0.00  0.00    +0.000 NA
ATOM     15  C   UNL     1       1.864   2.843  18.724  0.00  0.00    +0.000 C 
ATOM     16  C   UNL     1       0.944   2.753  19.941  0.00  0.00    +0.000 C 
ATOM     17  C   UNL     1       1.435   3.643  21.074  0.00  0.00    +0.000 C 
ATOM     18  C   UNL     1       1.650   5.057  20.558  0.00  0.00    +0.000 C 
ATOM     19  C   UNL     1       2.601   5.050  19.368  0.00  0.00    +0.000 C 
ENDBRANCH  13  14
ENDBRANCH   5  13
TORSDOF 5
ENDMDL
MODEL 5
REMARK VINA RESULT:      -6.7      2.304      5.454
REMARK  Name = 
REMARK  5 active torsions:
REMARK  status: ('A' for Active; 'I' for Inactive)
REMARK    1  A    between atoms: O_1  and  C_2
REMARK    2  A    between atoms: C_3  and  O_4
REMARK    3  A    between atoms: C_7  and  O_8
REMARK    4  A    between atoms: O_8  and  N_9
REMARK    5  A    between atoms: C_15  and  O_16
REMARK                            x       y       z     vdW  Elec       q    Type
REMARK                         _______ _______ _______ _____ _____    ______ ____
ROOT
ATOM      1  C   UNL     1       2.767   2.690  20.220  0.00  0.00    +0.000 C 
ATOM      2  C   UNL     1       1.567   3.537  19.786  0.00  0.00    +0.000 C 
ATOM      3  C   UNL     1       1.462   3.510  18.264  0.00  0.00    +0.000 C 
ATOM      4  O   UNL     1       2.653   4.034  17.683  0.00  0.00    +0.000 OA
ATOM      5  C   UNL     1       3.795   3.223  17.974  0.00  0.00    +0.000 C 
ATOM      6  C   UNL     1       4.051   3.119  19.495  0.00  0.00    +0.000 C 
ENDROOT
BRANCH   1   7
ATOM      7  O   UNL     1       2.946   2.767  21.637  0.00  0.00    +0.000 OA
ATOM      8  H   UNL     1       2.885   3.714  21.878  0.00  0.00    +0.000 HD
ENDBRANCH   1   7
BRANCH   2   9
ATOM      9  O   UNL     1       0.387   3.042  20.424  0.00  0.00    +0.000 OA
ATOM     10  H   UNL     1       0.214   2.135  20.115  0.00  0.00    +0.000 HD
ENDBRANCH   2   9
BRANCH   6  11
ATOM     11  O   UNL     1       5.102   2.160  19.734  0.00  0.00    +0.000 OA
ATOM     12  H   UNL     1       5.520   2.371  20.587  0.00  0.00    +0.000 HD
ENDBRANCH   6  11
BRANCH   5  13
ATOM     13  O   UNL     1       5.013   3.718  17.382  0.00  0.00    +0.000 OA
BRANCH  13  14
ATOM     14  N   UNL     1       5.459   5.008  17.949  0.00  0.00    +0.000 NA
ATOM     15  C   UNL     1       6.898   4.756  18.177  0.00  0.00    +0.000 C 
ATOM     16  C   UNL     1       7.682   6.026  18.506  0.00  0.00    +0.000 C 
ATOM     17  C   UNL     1       7.460   7.102  17.452  0.00  0.00    +0.000 C 
ATOM     18  C   UNL     1       5.968   7.323  17.254  0.00  0.00    +0.000 C 
ATOM     19  C   UNL     1       5.278   6.011  16.902  0.00  0.00    +0.000 C 
ENDBRANCH  13  14
ENDBRANCH   5  13
TORSDOF 5
ENDMDL
MODEL 6
REMARK VINA RESULT:      -6.7      1.531      2.325
REMARK  Name = 
REMARK  5 active torsions:
REMARK  status: ('A' for Active; 'I' for Inactive)
REMARK    1  A    between atoms: O_1  and  C_2
REMARK    2  A    between atoms: C_3  and  O_4
REMARK    3  A    between atoms: C_7  and  O_8
REMARK    4  A    between atoms: O_8  and  N_9
REMARK    5  A    between atoms: C_15  and  O_16
REMARK                            x       y       z     vdW  Elec       q    Type
REMARK                         _______ _______ _______ _____ _____    ______ ____
ROOT
ATOM      1  C   UNL     1       6.370   5.504  16.627  0.00  0.00    +0.000 C 
ATOM      2  C   UNL     1       6.890   6.633  17.524  0.00  0.00    +0.000 C 
ATOM      3  C   UNL     1       7.458   6.030  18.805  0.00  0.00    +0.000 C 
ATOM      4  O   UNL     1       6.444   5.302  19.493  0.00  0.00    +0.000 OA
ATOM      5  C   UNL     1       5.991   4.172  18.740  0.00  0.00    +0.000 C 
ATOM      6  C   UNL     1       5.390   4.594  17.380  0.00  0.00    +0.000 C 
ENDROOT
BRANCH   1   7
ATOM      7  O   UNL     1       5.751   6.043  15.455  0.00  0.00    +0.000 OA
ATOM      8  H   UNL     1       5.060   6.665  15.762  0.00  0.00    +0.000 HD
ENDBRANCH   1   7
BRANCH   2   9
ATOM      9  O   UNL     1       7.860   7.397  16.802  0.00  0.00    +0.000 OA
ATOM     10  H   UNL     1       7.961   7.022  15.910  0.00  0.00    +0.000 HD
ENDBRANCH   2   9
BRANCH   6  11
ATOM     11  O   UNL     1       5.108   3.414  16.600  0.00  0.00    +0.000 OA
ATOM     12  H   UNL     1       5.924   2.887  16.536  0.00  0.00    +0.000 HD
ENDBRANCH   6  11
BRANCH   5  13
ATOM     13  O   UNL     1       4.977   3.403  19.420  0.00  0.00    +0.000 OA
BRANCH  13  14
ATOM     14  N   UNL     1       3.601   3.857  19.128  0.00  0.00    +0.000 NA
ATOM     15  C   UNL     1       2.863   2.577  19.086  0.00  0.00    +0.000 C 
ATOM     16  C   UNL     1       1.346   2.762  19.077  0.00  0.00    +0.000 C 
ATOM     17  C   UNL     1       0.888   3.638  20.234  0.00  0.00    +0.000 C 
ATOM     18  C   UNL     1       1.676   4.939  20.234  0.00  0.00    +0.000 C 
ATOM     19  C   UNL     1       3.172   4.655  20.275  0.00  0.00    +0.000 C 
ENDBRANCH  13  14
ENDBRANCH   5  13
TORSDOF 5
ENDMDL
MODEL 7
REMARK VINA RESULT:      -6.7      1.613      1.979
REMARK  Name = 
REMARK  5 active torsions:
REMARK  status: ('A' for Active; 'I' for Inactive)
REMARK    1  A    between atoms: O_1  and  C_2
REMARK    2  A    between atoms: C_3  and  O_4
REMARK    3  A    between atoms: C_7  and  O_8
REMARK    4  A    between atoms: O_8  and  N_9
REMARK    5  A    between atoms: C_15  and  O_16
REMARK                            x       y       z     vdW  Elec       q    Type
REMARK                         _______ _______ _______ _____ _____    ______ ____
ROOT
ATOM      1  C   UNL     1       6.616   5.877  16.217  0.00  0.00    +0.000 C 
ATOM      2  C   UNL     1       7.176   4.847  15.230  0.00  0.00    +0.000 C 
ATOM      3  C   UNL     1       6.070   3.868  14.849  0.00  0.00    +0.000 C 
ATOM      4  O   UNL     1       5.585   3.202  16.012  0.00  0.00    +0.000 OA
ATOM      5  C   UNL     1       4.959   4.106  16.927  0.00  0.00    +0.000 C 
ATOM      6  C   UNL     1       5.940   5.197  17.415  0.00  0.00    +0.000 C 
ENDROOT
BRANCH   1   7
ATOM      7  O   UNL     1       7.652   6.756  16.662  0.00  0.00    +0.000 OA
ATOM      8  H   UNL     1       7.674   6.695  17.639  0.00  0.00    +0.000 HD
ENDBRANCH   1   7
BRANCH   2   9
ATOM      9  O   UNL     1       7.717   5.529  14.096  0.00  0.00    +0.000 OA
ATOM     10  H   UNL     1       7.395   5.101  13.283  0.00  0.00    +0.000 HD
ENDBRANCH   2   9
BRANCH   6  11
ATOM     11  O   UNL     1       5.215   6.170  18.195  0.00  0.00    +0.000 OA
ATOM     12  H   UNL     1       4.265   5.966  18.134  0.00  0.00    +0.000 HD
ENDBRANCH   6  11
BRANCH   5  13
ATOM     13  O   UNL     1       4.441   3.457  18.106  0.00  0.00    +0.000 OA
BRANCH  13  14
ATOM     14  N   UNL     1       3.049   3.842  18.424  0.00  0.00    +0.000 NA
ATOM     15  C   UNL     1       2.329   2.566  18.222  0.00  0.00    +0.000 C 
ATOM     16  C   UNL     1       0.897   2.599  18.753  0.00  0.00    +0.000 C 
ATOM     17  C   UNL     1       0.855   3.043  20.208  0.00  0.00    +0.000 C 
ATOM     18  C   UNL     1       1.608   4.356  20.364  0.00  0.00    +0.000 C 
ATOM     19  C   UNL     1       3.031   4.219  19.836  0.00  0.00    +0.000 C 
ENDBRANCH  13  14
ENDBRANCH   5  13
TORSDOF 5
ENDMDL
MODEL 8
REMARK VINA RESULT:      -6.6      1.582      2.471
REMARK  Name = 
REMARK  5 active torsions:
REMARK  status: ('A' for Active; 'I' for Inactive)
REMARK    1  A    between atoms: O_1  and  C_2
REMARK    2  A    between atoms: C_3  and  O_4
REMARK    3  A    between atoms: C_7  and  O_8
REMARK    4  A    between atoms: O_8  and  N_9
REMARK    5  A    between atoms: C_15  and  O_16
REMARK                            x       y       z     vdW  Elec       q    Type
REMARK                         _______ _______ _______ _____ _____    ______ ____
ROOT
ATOM      1  C   UNL     1       6.733   5.262  16.231  0.00  0.00    +0.000 C 
ATOM      2  C   UNL     1       6.714   6.524  17.101  0.00  0.00    +0.000 C 
ATOM      3  C   UNL     1       6.633   6.117  18.569  0.00  0.00    +0.000 C 
ATOM      4  O   UNL     1       5.449   5.359  18.801  0.00  0.00    +0.000 OA
ATOM      5  C   UNL     1       5.457   4.118  18.089  0.00  0.00    +0.000 C 
ATOM      6  C   UNL     1       5.554   4.335  16.561  0.00  0.00    +0.000 C 
ENDROOT
BRANCH   1   7
ATOM      7  O   UNL     1       6.719   5.612  14.845  0.00  0.00    +0.000 OA
ATOM      8  H   UNL     1       7.654   5.710  14.570  0.00  0.00    +0.000 HD
ENDBRANCH   1   7
BRANCH   2   9
ATOM      9  O   UNL     1       7.875   7.308  16.815  0.00  0.00    +0.000 OA
ATOM     10  H   UNL     1       8.311   7.550  17.651  0.00  0.00    +0.000 HD
ENDBRANCH   2   9
BRANCH   6  11
ATOM     11  O   UNL     1       5.729   3.059  15.912  0.00  0.00    +0.000 OA
ATOM     12  H   UNL     1       4.980   2.919  15.306  0.00  0.00    +0.000 HD
ENDBRANCH   6  11
BRANCH   5  13
ATOM     13  O   UNL     1       4.278   3.320  18.320  0.00  0.00    +0.000 OA
BRANCH  13  14
ATOM     14  N   UNL     1       3.525   3.721  19.527  0.00  0.00    +0.000 NA
ATOM     15  C   UNL     1       2.171   3.949  18.976  0.00  0.00    +0.000 C 
ATOM     16  C   UNL     1       1.106   4.108  20.059  0.00  0.00    +0.000 C 
ATOM     17  C   UNL     1       1.127   2.938  21.034  0.00  0.00    +0.000 C 
ATOM     18  C   UNL     1       2.537   2.745  21.570  0.00  0.00    +0.000 C 
ATOM     19  C   UNL     1       3.522   2.566  20.422  0.00  0.00    +0.000 C 
ENDBRANCH  13  14
ENDBRANCH   5  13
TORSDOF 5
ENDMDL
MODEL 9
REMARK VINA RESULT:      -6.5      1.043      2.149
REMARK  Name = 
REMARK  5 active torsions:
REMARK  status: ('A' for Active; 'I' for Inactive)
REMARK    1  A    between atoms: O_1  and  C_2
REMARK    2  A    between atoms: C_3  and  O_4
REMARK    3  A    between atoms: C_7  and  O_8
REMARK    4  A    between atoms: O_8  and  N_9
REMARK    5  A    between atoms: C_15  and  O_16
REMARK                            x       y       z     vdW  Elec       q    Type
REMARK                         _______ _______ _______ _____ _____    ______ ____
ROOT
ATOM      1  C   UNL     1       5.588   5.691  16.068  0.00  0.00    +0.000 C 
ATOM      2  C   UNL     1       7.103   5.655  16.292  0.00  0.00    +0.000 C 
ATOM      3  C   UNL     1       7.448   4.464  17.180  0.00  0.00    +0.000 C 
ATOM      4  O   UNL     1       6.782   4.581  18.435  0.00  0.00    +0.000 OA
ATOM      5  C   UNL     1       5.360   4.519  18.295  0.00  0.00    +0.000 C 
ATOM      6  C   UNL     1       4.822   5.657  17.398  0.00  0.00    +0.000 C 
ENDROOT
BRANCH   1   7
ATOM      7  O   UNL     1       5.222   6.848  15.311  0.00  0.00    +0.000 OA
ATOM      8  H   UNL     1       4.434   7.232  15.747  0.00  0.00    +0.000 HD
ENDBRANCH   1   7
BRANCH   2   9
ATOM      9  O   UNL     1       7.764   5.602  15.025  0.00  0.00    +0.000 OA
ATOM     10  H   UNL     1       8.726   5.654  15.165  0.00  0.00    +0.000 HD
ENDBRANCH   2   9
BRANCH   6  11
ATOM     11  O   UNL     1       3.415   5.445  17.157  0.00  0.00    +0.000 OA
ATOM     12  H   UNL     1       3.321   4.737  16.497  0.00  0.00    +0.000 HD
ENDBRANCH   6  11
BRANCH   5  13
ATOM     13  O   UNL     1       4.658   4.614  19.551  0.00  0.00    +0.000 OA
BRANCH  13  14
ATOM     14  N   UNL     1       3.249   4.172  19.472  0.00  0.00    +0.000 NA
ATOM     15  C   UNL     1       3.361   2.741  19.827  0.00  0.00    +0.000 C 
ATOM     16  C   UNL     1       2.008   2.086  20.098  0.00  0.00    +0.000 C 
ATOM     17  C   UNL     1       1.214   2.863  21.140  0.00  0.00    +0.000 C 
ATOM     18  C   UNL     1       1.129   4.326  20.730  0.00  0.00    +0.000 C 
ATOM     19  C   UNL     1       2.523   4.899  20.511  0.00  0.00    +0.000 C 
ENDBRANCH  13  14
ENDBRANCH   5  13
TORSDOF 5
ENDMDL
