MODEL 1
REMARK VINA RESULT:      -7.9      0.000      0.000
REMARK  Name = 
REMARK  6 active torsions:
REMARK  status: ('A' for Active; 'I' for Inactive)
REMARK    1  A    between atoms: C_1  and  C_2
REMARK    2  A    between atoms: C_2  and  C_3
REMARK    3  A    between atoms: C_3  and  C_4
REMARK    4  A    between atoms: C_3  and  C_10
REMARK    5  A    between atoms: C_11  and  O_12
REMARK    6  A    between atoms: O_12  and  C_13
REMARK                            x       y       z     vdW  Elec       q    Type
REMARK                         _______ _______ _______ _____ _____    ______ ____
ROOT
ATOM      1  C   UNL     1       4.886   5.559  18.474  0.00  0.00    +0.000 A 
ATOM      2  C   UNL     1       3.784   6.347  18.503  0.00  0.00    +0.000 A 
ATOM      3  O   UNL     1       2.804   6.216  19.492  0.00  0.00    +0.000 OA
ATOM      4  C   UNL     1       2.466   4.934  19.820  0.00  0.00    +0.000 A 
ATOM      5  C   UNL     1       1.187   4.691  20.305  0.00  0.00    +0.000 A 
ATOM      6  C   UNL     1       0.721   3.379  20.339  0.00  0.00    +0.000 A 
ATOM      7  C   UNL     1       1.553   2.336  19.914  0.00  0.00    +0.000 A 
ATOM      8  C   UNL     1       2.884   2.584  19.569  0.00  0.00    +0.000 A 
ATOM      9  C   UNL     1       3.348   3.900  19.561  0.00  0.00    +0.000 A 
ATOM     10  C   UNL     1       4.735   4.278  19.226  0.00  0.00    +0.000 A 
ATOM     11  O   UNL     1       5.662   3.532  19.507  0.00  0.00    +0.000 OA
ENDROOT
BRANCH   2  12
ATOM     12  O   UNL     1       3.591   7.309  17.521  0.00  0.00    +0.000 OA
ATOM     13  C   UNL     1       2.581   8.254  17.894  0.00  0.00    +0.000 C 
ENDBRANCH   2  12
BRANCH   1  14
ATOM     14  C   UNL     1       6.130   5.856  17.643  0.00  0.00    +0.000 C 
BRANCH  14  15
ATOM     15  C   UNL     1       6.167   5.062  16.317  0.00  0.00    +0.000 A 
ATOM     16  C   UNL     1       5.019   4.421  15.818  0.00  0.00    +0.000 A 
ATOM     17  C   UNL     1       4.987   3.954  14.497  0.00  0.00    +0.000 A 
ATOM     18  C   UNL     1       6.099   4.104  13.672  0.00  0.00    +0.000 A 
ATOM     19  C   UNL     1       7.261   4.688  14.170  0.00  0.00    +0.000 A 
ATOM     20  C   UNL     1       7.297   5.160  15.490  0.00  0.00    +0.000 A 
ENDBRANCH  14  15
BRANCH  14  22
ATOM     21  C   UNL     1       7.777   7.873  17.745  0.00  0.00    +0.000 C 
ATOM     22  C   UNL     1       6.469   7.313  17.221  0.00  0.00    +0.000 C 
ENDBRANCH  14  22
ENDBRANCH   1  14
TORSDOF 4
ENDMDL
MODEL 2
REMARK VINA RESULT:      -7.8      0.239      1.040
REMARK  Name = 
REMARK  6 active torsions:
REMARK  status: ('A' for Active; 'I' for Inactive)
REMARK    1  A    between atoms: C_1  and  C_2
REMARK    2  A    between atoms: C_2  and  C_3
REMARK    3  A    between atoms: C_3  and  C_4
REMARK    4  A    between atoms: C_3  and  C_10
REMARK    5  A    between atoms: C_11  and  O_12
REMARK    6  A    between atoms: O_12  and  C_13
REMARK                            x       y       z     vdW  Elec       q    Type
REMARK                         _______ _______ _______ _____ _____    ______ ____
ROOT
ATOM      1  C   UNL     1       4.976   5.646  18.419  0.00  0.00    +0.000 A 
ATOM      2  C   UNL     1       3.883   6.446  18.464  0.00  0.00    +0.000 A 
ATOM      3  O   UNL     1       2.919   6.330  19.470  0.00  0.00    +0.000 OA
ATOM      4  C   UNL     1       2.572   5.053  19.809  0.00  0.00    +0.000 A 
ATOM      5  C   UNL     1       1.300   4.826  20.317  0.00  0.00    +0.000 A 
ATOM      6  C   UNL     1       0.820   3.519  20.365  0.00  0.00    +0.000 A 
ATOM      7  C   UNL     1       1.633   2.466  19.930  0.00  0.00    +0.000 A 
ATOM      8  C   UNL     1       2.961   2.697  19.561  0.00  0.00    +0.000 A 
ATOM      9  C   UNL     1       3.439   4.008  19.540  0.00  0.00    +0.000 A 
ATOM     10  C   UNL     1       4.824   4.370  19.179  0.00  0.00    +0.000 A 
ATOM     11  O   UNL     1       5.748   3.615  19.447  0.00  0.00    +0.000 OA
ENDROOT
BRANCH   2  12
ATOM     12  O   UNL     1       3.684   7.406  17.481  0.00  0.00    +0.000 OA
ATOM     13  C   UNL     1       2.577   8.262  17.791  0.00  0.00    +0.000 C 
ENDBRANCH   2  12
BRANCH   1  14
ATOM     14  C   UNL     1       6.208   5.926  17.566  0.00  0.00    +0.000 C 
BRANCH  14  15
ATOM     15  C   UNL     1       6.086   5.356  16.133  0.00  0.00    +0.000 A 
ATOM     16  C   UNL     1       7.084   5.584  15.170  0.00  0.00    +0.000 A 
ATOM     17  C   UNL     1       7.105   4.838  13.983  0.00  0.00    +0.000 A 
ATOM     18  C   UNL     1       6.127   3.876  13.741  0.00  0.00    +0.000 A 
ATOM     19  C   UNL     1       5.103   3.678  14.662  0.00  0.00    +0.000 A 
ATOM     20  C   UNL     1       5.078   4.419  15.852  0.00  0.00    +0.000 A 
ENDBRANCH  14  15
BRANCH  14  22
ATOM     21  C   UNL     1       8.000   7.755  18.051  0.00  0.00    +0.000 C 
ATOM     22  C   UNL     1       6.707   7.383  17.352  0.00  0.00    +0.000 C 
ENDBRANCH  14  22
ENDBRANCH   1  14
TORSDOF 4
ENDMDL
MODEL 3
REMARK VINA RESULT:      -7.7      1.733      5.850
REMARK  Name = 
REMARK  6 active torsions:
REMARK  status: ('A' for Active; 'I' for Inactive)
REMARK    1  A    between atoms: C_1  and  C_2
REMARK    2  A    between atoms: C_2  and  C_3
REMARK    3  A    between atoms: C_3  and  C_4
REMARK    4  A    between atoms: C_3  and  C_10
REMARK    5  A    between atoms: C_11  and  O_12
REMARK    6  A    between atoms: O_12  and  C_13
REMARK                            x       y       z     vdW  Elec       q    Type
REMARK                         _______ _______ _______ _____ _____    ______ ____
ROOT
ATOM      1  C   UNL     1       3.752   5.024  18.890  0.00  0.00    +0.000 A 
ATOM      2  C   UNL     1       3.163   4.285  17.919  0.00  0.00    +0.000 A 
ATOM      3  O   UNL     1       3.897   3.433  17.087  0.00  0.00    +0.000 OA
ATOM      4  C   UNL     1       5.085   3.932  16.633  0.00  0.00    +0.000 A 
ATOM      5  C   UNL     1       5.576   3.469  15.419  0.00  0.00    +0.000 A 
ATOM      6  C   UNL     1       6.596   4.181  14.793  0.00  0.00    +0.000 A 
ATOM      7  C   UNL     1       7.122   5.324  15.408  0.00  0.00    +0.000 A 
ATOM      8  C   UNL     1       6.718   5.690  16.695  0.00  0.00    +0.000 A 
ATOM      9  C   UNL     1       5.712   4.955  17.322  0.00  0.00    +0.000 A 
ATOM     10  C   UNL     1       5.215   5.242  18.683  0.00  0.00    +0.000 A 
ATOM     11  O   UNL     1       5.971   5.687  19.534  0.00  0.00    +0.000 OA
ENDROOT
BRANCH   2  12
ATOM     12  O   UNL     1       1.793   4.373  17.713  0.00  0.00    +0.000 OA
ATOM     13  C   UNL     1       1.133   3.132  17.991  0.00  0.00    +0.000 C 
ENDBRANCH   2  12
BRANCH   1  14
ATOM     14  C   UNL     1       2.996   5.705  20.026  0.00  0.00    +0.000 C 
BRANCH  14  15
ATOM     15  C   UNL     1       2.488   7.115  19.645  0.00  0.00    +0.000 A 
ATOM     16  C   UNL     1       2.610   7.604  18.333  0.00  0.00    +0.000 A 
ATOM     17  C   UNL     1       1.902   8.747  17.936  0.00  0.00    +0.000 A 
ATOM     18  C   UNL     1       1.086   9.419  18.844  0.00  0.00    +0.000 A 
ATOM     19  C   UNL     1       1.000   8.976  20.161  0.00  0.00    +0.000 A 
ATOM     20  C   UNL     1       1.703   7.832  20.563  0.00  0.00    +0.000 A 
ENDBRANCH  14  15
BRANCH  14  22
ATOM     21  C   UNL     1       2.040   3.776  21.495  0.00  0.00    +0.000 C 
ATOM     22  C   UNL     1       1.760   5.020  20.674  0.00  0.00    +0.000 C 
ENDBRANCH  14  22
ENDBRANCH   1  14
TORSDOF 4
ENDMDL
MODEL 4
REMARK VINA RESULT:      -7.7      1.745      5.828
REMARK  Name = 
REMARK  6 active torsions:
REMARK  status: ('A' for Active; 'I' for Inactive)
REMARK    1  A    between atoms: C_1  and  C_2
REMARK    2  A    between atoms: C_2  and  C_3
REMARK    3  A    between atoms: C_3  and  C_4
REMARK    4  A    between atoms: C_3  and  C_10
REMARK    5  A    between atoms: C_11  and  O_12
REMARK    6  A    between atoms: O_12  and  C_13
REMARK                            x       y       z     vdW  Elec       q    Type
REMARK                         _______ _______ _______ _____ _____    ______ ____
ROOT
ATOM      1  C   UNL     1       3.724   4.877  18.993  0.00  0.00    +0.000 A 
ATOM      2  C   UNL     1       3.159   4.106  18.032  0.00  0.00    +0.000 A 
ATOM      3  O   UNL     1       3.923   3.291  17.190  0.00  0.00    +0.000 OA
ATOM      4  C   UNL     1       5.076   3.850  16.717  0.00  0.00    +0.000 A 
ATOM      5  C   UNL     1       5.572   3.410  15.496  0.00  0.00    +0.000 A 
ATOM      6  C   UNL     1       6.544   4.173  14.853  0.00  0.00    +0.000 A 
ATOM      7  C   UNL     1       7.019   5.343  15.458  0.00  0.00    +0.000 A 
ATOM      8  C   UNL     1       6.617   5.690  16.750  0.00  0.00    +0.000 A 
ATOM      9  C   UNL     1       5.660   4.906  17.394  0.00  0.00    +0.000 A 
ATOM     10  C   UNL     1       5.170   5.170  18.762  0.00  0.00    +0.000 A 
ATOM     11  O   UNL     1       5.915   5.656  19.600  0.00  0.00    +0.000 OA
ENDROOT
BRANCH   2  12
ATOM     12  O   UNL     1       1.783   4.122  17.847  0.00  0.00    +0.000 OA
ATOM     13  C   UNL     1       1.188   2.861  18.179  0.00  0.00    +0.000 C 
ENDBRANCH   2  12
BRANCH   1  14
ATOM     14  C   UNL     1       2.951   5.520  20.139  0.00  0.00    +0.000 C 
BRANCH  14  15
ATOM     15  C   UNL     1       2.233   6.824  19.718  0.00  0.00    +0.000 A 
ATOM     16  C   UNL     1       1.506   7.588  20.648  0.00  0.00    +0.000 A 
ATOM     17  C   UNL     1       1.106   8.894  20.332  0.00  0.00    +0.000 A 
ATOM     18  C   UNL     1       1.411   9.439  19.087  0.00  0.00    +0.000 A 
ATOM     19  C   UNL     1       2.084   8.675  18.138  0.00  0.00    +0.000 A 
ATOM     20  C   UNL     1       2.488   7.368  18.450  0.00  0.00    +0.000 A 
ENDBRANCH  14  15
BRANCH  14  22
ATOM     21  C   UNL     1       2.334   3.473  21.629  0.00  0.00    +0.000 C 
ATOM     22  C   UNL     1       1.862   4.719  20.905  0.00  0.00    +0.000 C 
ENDBRANCH  14  22
ENDBRANCH   1  14
TORSDOF 4
ENDMDL
MODEL 5
REMARK VINA RESULT:      -7.7      1.141      2.874
REMARK  Name = 
REMARK  6 active torsions:
REMARK  status: ('A' for Active; 'I' for Inactive)
REMARK    1  A    between atoms: C_1  and  C_2
REMARK    2  A    between atoms: C_2  and  C_3
REMARK    3  A    between atoms: C_3  and  C_4
REMARK    4  A    between atoms: C_3  and  C_10
REMARK    5  A    between atoms: C_11  and  O_12
REMARK    6  A    between atoms: O_12  and  C_13
REMARK                            x       y       z     vdW  Elec       q    Type
REMARK                         _______ _______ _______ _____ _____    ______ ____
ROOT
ATOM      1  C   UNL     1       4.294   5.105  17.621  0.00  0.00    +0.000 A 
ATOM      2  C   UNL     1       3.518   5.995  18.286  0.00  0.00    +0.000 A 
ATOM      3  O   UNL     1       2.813   5.647  19.443  0.00  0.00    +0.000 OA
ATOM      4  C   UNL     1       2.198   4.427  19.413  0.00  0.00    +0.000 A 
ATOM      5  C   UNL     1       1.063   4.240  20.191  0.00  0.00    +0.000 A 
ATOM      6  C   UNL     1       0.250   3.138  19.937  0.00  0.00    +0.000 A 
ATOM      7  C   UNL     1       0.605   2.233  18.930  0.00  0.00    +0.000 A 
ATOM      8  C   UNL     1       1.825   2.356  18.259  0.00  0.00    +0.000 A 
ATOM      9  C   UNL     1       2.642   3.452  18.538  0.00  0.00    +0.000 A 
ATOM     10  C   UNL     1       3.955   3.678  17.902  0.00  0.00    +0.000 A 
ATOM     11  O   UNL     1       4.657   2.729  17.582  0.00  0.00    +0.000 OA
ENDROOT
BRANCH   2  12
ATOM     12  O   UNL     1       3.389   7.294  17.813  0.00  0.00    +0.000 OA
ATOM     13  C   UNL     1       2.270   7.966  18.405  0.00  0.00    +0.000 C 
ENDBRANCH   2  12
BRANCH   1  14
ATOM     14  C   UNL     1       5.330   5.489  16.570  0.00  0.00    +0.000 C 
BRANCH  14  15
ATOM     15  C   UNL     1       6.562   6.200  17.177  0.00  0.00    +0.000 A 
ATOM     16  C   UNL     1       6.855   7.540  16.868  0.00  0.00    +0.000 A 
ATOM     17  C   UNL     1       7.791   8.253  17.631  0.00  0.00    +0.000 A 
ATOM     18  C   UNL     1       8.451   7.634  18.690  0.00  0.00    +0.000 A 
ATOM     19  C   UNL     1       8.210   6.292  18.972  0.00  0.00    +0.000 A 
ATOM     20  C   UNL     1       7.272   5.575  18.214  0.00  0.00    +0.000 A 
ENDBRANCH  14  15
BRANCH  14  22
ATOM     21  C   UNL     1       6.745   4.929  14.455  0.00  0.00    +0.000 C 
ATOM     22  C   UNL     1       5.940   4.411  15.630  0.00  0.00    +0.000 C 
ENDBRANCH  14  22
ENDBRANCH   1  14
TORSDOF 4
ENDMDL
MODEL 6
REMARK VINA RESULT:      -7.5      0.991      1.065
REMARK  Name = 
REMARK  6 active torsions:
REMARK  status: ('A' for Active; 'I' for Inactive)
REMARK    1  A    between atoms: C_1  and  C_2
REMARK    2  A    between atoms: C_2  and  C_3
REMARK    3  A    between atoms: C_3  and  C_4
REMARK    4  A    between atoms: C_3  and  C_10
REMARK    5  A    between atoms: C_11  and  O_12
REMARK    6  A    between atoms: O_12  and  C_13
REMARK                            x       y       z     vdW  Elec       q    Type
REMARK                         _______ _______ _______ _____ _____    ______ ____
ROOT
ATOM      1  C   UNL     1       5.235   4.603  18.812  0.00  0.00    +0.000 A 
ATOM      2  C   UNL     1       4.424   5.689  18.816  0.00  0.00    +0.000 A 
ATOM      3  O   UNL     1       3.368   5.824  19.722  0.00  0.00    +0.000 OA
ATOM      4  C   UNL     1       2.630   4.694  19.939  0.00  0.00    +0.000 A 
ATOM      5  C   UNL     1       1.301   4.835  20.315  0.00  0.00    +0.000 A 
ATOM      6  C   UNL     1       0.459   3.729  20.229  0.00  0.00    +0.000 A 
ATOM      7  C   UNL     1       0.971   2.500  19.794  0.00  0.00    +0.000 A 
ATOM      8  C   UNL     1       2.340   2.342  19.561  0.00  0.00    +0.000 A 
ATOM      9  C   UNL     1       3.178   3.452  19.674  0.00  0.00    +0.000 A 
ATOM     10  C   UNL     1       4.638   3.400  19.464  0.00  0.00    +0.000 A 
ATOM     11  O   UNL     1       5.268   2.395  19.759  0.00  0.00    +0.000 OA
ENDROOT
BRANCH   2  12
ATOM     12  O   UNL     1       4.618   6.705  17.889  0.00  0.00    +0.000 OA
ATOM     13  C   UNL     1       3.420   7.461  17.671  0.00  0.00    +0.000 C 
ENDBRANCH   2  12
BRANCH   1  14
ATOM     14  C   UNL     1       6.578   4.540  18.093  0.00  0.00    +0.000 C 
BRANCH  14  15
ATOM     15  C   UNL     1       6.430   4.317  16.569  0.00  0.00    +0.000 A 
ATOM     16  C   UNL     1       5.261   3.758  16.024  0.00  0.00    +0.000 A 
ATOM     17  C   UNL     1       5.023   3.824  14.644  0.00  0.00    +0.000 A 
ATOM     18  C   UNL     1       5.951   4.427  13.799  0.00  0.00    +0.000 A 
ATOM     19  C   UNL     1       7.138   4.936  14.319  0.00  0.00    +0.000 A 
ATOM     20  C   UNL     1       7.380   4.875  15.699  0.00  0.00    +0.000 A 
ENDBRANCH  14  15
BRANCH  14  22
ATOM     21  C   UNL     1       8.166   5.967  19.587  0.00  0.00    +0.000 C 
ATOM     22  C   UNL     1       7.592   5.712  18.207  0.00  0.00    +0.000 C 
ENDBRANCH  14  22
ENDBRANCH   1  14
TORSDOF 4
ENDMDL
MODEL 7
REMARK VINA RESULT:      -7.4      1.577      3.876
REMARK  Name = 
REMARK  6 active torsions:
REMARK  status: ('A' for Active; 'I' for Inactive)
REMARK    1  A    between atoms: C_1  and  C_2
REMARK    2  A    between atoms: C_2  and  C_3
REMARK    3  A    between atoms: C_3  and  C_4
REMARK    4  A    between atoms: C_3  and  C_10
REMARK    5  A    between atoms: C_11  and  O_12
REMARK    6  A    between atoms: O_12  and  C_13
REMARK                            x       y       z     vdW  Elec       q    Type
REMARK                         _______ _______ _______ _____ _____    ______ ____
ROOT
ATOM      1  C   UNL     1       4.201   4.806  16.941  0.00  0.00    +0.000 A 
ATOM      2  C   UNL     1       3.715   3.566  17.193  0.00  0.00    +0.000 A 
ATOM      3  O   UNL     1       2.411   3.361  17.658  0.00  0.00    +0.000 OA
ATOM      4  C   UNL     1       1.985   4.231  18.621  0.00  0.00    +0.000 A 
ATOM      5  C   UNL     1       1.020   3.800  19.522  0.00  0.00    +0.000 A 
ATOM      6  C   UNL     1       0.810   4.539  20.684  0.00  0.00    +0.000 A 
ATOM      7  C   UNL     1       1.549   5.707  20.906  0.00  0.00    +0.000 A 
ATOM      8  C   UNL     1       2.408   6.204  19.922  0.00  0.00    +0.000 A 
ATOM      9  C   UNL     1       2.593   5.467  18.751  0.00  0.00    +0.000 A 
ATOM     10  C   UNL     1       3.465   5.900  17.641  0.00  0.00    +0.000 A 
ATOM     11  O   UNL     1       3.596   7.089  17.388  0.00  0.00    +0.000 OA
ENDROOT
BRANCH   2  12
ATOM     12  O   UNL     1       4.522   2.452  17.010  0.00  0.00    +0.000 OA
ATOM     13  C   UNL     1       4.190   1.399  17.924  0.00  0.00    +0.000 C 
ENDBRANCH   2  12
BRANCH   1  14
ATOM     14  C   UNL     1       5.466   5.081  16.136  0.00  0.00    +0.000 C 
BRANCH  14  15
ATOM     15  C   UNL     1       6.597   5.699  16.992  0.00  0.00    +0.000 A 
ATOM     16  C   UNL     1       6.989   7.039  16.824  0.00  0.00    +0.000 A 
ATOM     17  C   UNL     1       7.800   7.663  17.782  0.00  0.00    +0.000 A 
ATOM     18  C   UNL     1       8.240   6.955  18.898  0.00  0.00    +0.000 A 
ATOM     19  C   UNL     1       7.904   5.613  19.048  0.00  0.00    +0.000 A 
ATOM     20  C   UNL     1       7.090   4.984  18.095  0.00  0.00    +0.000 A 
ENDBRANCH  14  15
BRANCH  14  22
ATOM     21  C   UNL     1       6.013   3.971  13.842  0.00  0.00    +0.000 C 
ATOM     22  C   UNL     1       6.168   3.938  15.350  0.00  0.00    +0.000 C 
ENDBRANCH  14  22
ENDBRANCH   1  14
TORSDOF 4
ENDMDL
MODEL 8
REMARK VINA RESULT:      -7.4      1.377      3.129
REMARK  Name = 
REMARK  6 active torsions:
REMARK  status: ('A' for Active; 'I' for Inactive)
REMARK    1  A    between atoms: C_1  and  C_2
REMARK    2  A    between atoms: C_2  and  C_3
REMARK    3  A    between atoms: C_3  and  C_4
REMARK    4  A    between atoms: C_3  and  C_10
REMARK    5  A    between atoms: C_11  and  O_12
REMARK    6  A    between atoms: O_12  and  C_13
REMARK                            x       y       z     vdW  Elec       q    Type
REMARK                         _______ _______ _______ _____ _____    ______ ____
ROOT
ATOM      1  C   UNL     1       4.988   4.776  18.107  0.00  0.00    +0.000 A 
ATOM      2  C   UNL     1       4.490   3.873  18.986  0.00  0.00    +0.000 A 
ATOM      3  O   UNL     1       3.132   3.830  19.317  0.00  0.00    +0.000 OA
ATOM      4  C   UNL     1       2.534   5.043  19.511  0.00  0.00    +0.000 A 
ATOM      5  C   UNL     1       1.440   5.113  20.364  0.00  0.00    +0.000 A 
ATOM      6  C   UNL     1       1.025   6.361  20.821  0.00  0.00    +0.000 A 
ATOM      7  C   UNL     1       1.694   7.514  20.393  0.00  0.00    +0.000 A 
ATOM      8  C   UNL     1       2.695   7.436  19.421  0.00  0.00    +0.000 A 
ATOM      9  C   UNL     1       3.088   6.182  18.953  0.00  0.00    +0.000 A 
ATOM     10  C   UNL     1       4.124   5.980  17.921  0.00  0.00    +0.000 A 
ATOM     11  O   UNL     1       4.274   6.802  17.029  0.00  0.00    +0.000 OA
ENDROOT
BRANCH   2  12
ATOM     12  O   UNL     1       5.338   2.963  19.603  0.00  0.00    +0.000 OA
ATOM     13  C   UNL     1       4.610   1.991  20.364  0.00  0.00    +0.000 C 
ENDBRANCH   2  12
BRANCH   1  14
ATOM     14  C   UNL     1       6.365   4.672  17.460  0.00  0.00    +0.000 C 
BRANCH  14  15
ATOM     15  C   UNL     1       6.299   4.658  15.915  0.00  0.00    +0.000 A 
ATOM     16  C   UNL     1       7.342   5.190  15.136  0.00  0.00    +0.000 A 
ATOM     17  C   UNL     1       7.407   4.920  13.762  0.00  0.00    +0.000 A 
ATOM     18  C   UNL     1       6.430   4.136  13.153  0.00  0.00    +0.000 A 
ATOM     19  C   UNL     1       5.363   3.648  13.903  0.00  0.00    +0.000 A 
ATOM     20  C   UNL     1       5.294   3.913  15.278  0.00  0.00    +0.000 A 
ENDBRANCH  14  15
BRANCH  14  22
ATOM     21  C   UNL     1       7.880   5.827  19.238  0.00  0.00    +0.000 C 
ATOM     22  C   UNL     1       7.471   5.715  17.783  0.00  0.00    +0.000 C 
ENDBRANCH  14  22
ENDBRANCH   1  14
TORSDOF 4
ENDMDL
MODEL 9
REMARK VINA RESULT:      -7.2      1.498      5.887
REMARK  Name = 
REMARK  6 active torsions:
REMARK  status: ('A' for Active; 'I' for Inactive)
REMARK    1  A    between atoms: C_1  and  C_2
REMARK    2  A    between atoms: C_2  and  C_3
REMARK    3  A    between atoms: C_3  and  C_4
REMARK    4  A    between atoms: C_3  and  C_10
REMARK    5  A    between atoms: C_11  and  O_12
REMARK    6  A    between atoms: O_12  and  C_13
REMARK                            x       y       z     vdW  Elec       q    Type
REMARK                         _______ _______ _______ _____ _____    ______ ____
ROOT
ATOM      1  C   UNL     1       3.789   5.913  18.668  0.00  0.00    +0.000 A 
ATOM      2  C   UNL     1       4.738   5.083  19.164  0.00  0.00    +0.000 A 
ATOM      3  O   UNL     1       6.075   5.158  18.760  0.00  0.00    +0.000 OA
ATOM      4  C   UNL     1       6.276   5.344  17.422  0.00  0.00    +0.000 A 
ATOM      5  C   UNL     1       7.452   4.867  16.857  0.00  0.00    +0.000 A 
ATOM      6  C   UNL     1       7.535   4.758  15.471  0.00  0.00    +0.000 A 
ATOM      7  C   UNL     1       6.450   5.154  14.679  0.00  0.00    +0.000 A 
ATOM      8  C   UNL     1       5.335   5.767  15.255  0.00  0.00    +0.000 A 
ATOM      9  C   UNL     1       5.273   5.893  16.643  0.00  0.00    +0.000 A 
ATOM     10  C   UNL     1       4.152   6.533  17.359  0.00  0.00    +0.000 A 
ATOM     11  O   UNL     1       3.546   7.465  16.848  0.00  0.00    +0.000 OA
ENDROOT
BRANCH   2  12
ATOM     12  O   UNL     1       4.393   4.108  20.091  0.00  0.00    +0.000 OA
ATOM     13  C   UNL     1       4.607   2.787  19.577  0.00  0.00    +0.000 C 
ENDBRANCH   2  12
BRANCH   1  14
ATOM     14  C   UNL     1       2.411   6.108  19.291  0.00  0.00    +0.000 C 
BRANCH  14  15
ATOM     15  C   UNL     1       1.624   4.784  19.428  0.00  0.00    +0.000 A 
ATOM     16  C   UNL     1       1.371   3.967  18.312  0.00  0.00    +0.000 A 
ATOM     17  C   UNL     1       0.916   2.653  18.486  0.00  0.00    +0.000 A 
ATOM     18  C   UNL     1       0.695   2.150  19.766  0.00  0.00    +0.000 A 
ATOM     19  C   UNL     1       0.891   2.965  20.877  0.00  0.00    +0.000 A 
ATOM     20  C   UNL     1       1.348   4.280  20.709  0.00  0.00    +0.000 A 
ENDBRANCH  14  15
BRANCH  14  22
ATOM     21  C   UNL     1       1.460   8.070  20.717  0.00  0.00    +0.000 C 
ATOM     22  C   UNL     1       2.260   6.784  20.682  0.00  0.00    +0.000 C 
ENDBRANCH  14  22
ENDBRANCH   1  14
TORSDOF 4
ENDMDL
