MODEL 1
REMARK VINA RESULT:      -7.9      0.000      0.000
REMARK  Name = 
REMARK  9 active torsions:
REMARK  status: ('A' for Active; 'I' for Inactive)
REMARK    1  A    between atoms: C_1  and  C_2
REMARK    2  A    between atoms: C_2  and  C_3
REMARK    3  A    between atoms: C_6  and  C_7
REMARK    4  A    between atoms: N_15  and  C_16
REMARK    5  A    between atoms: C_16  and  C_17
REMARK    6  A    between atoms: N_19  and  C_20
REMARK    7  A    between atoms: C_21  and  C_22
REMARK    8  A    between atoms: C_24  and  C_25
REMARK    9  A    between atoms: C_27  and  C_28
REMARK                            x       y       z     vdW  Elec       q    Type
REMARK                         _______ _______ _______ _____ _____    ______ ____
ROOT
ATOM      1  C   UNL     1       1.562   7.211  20.202  0.00  0.00    +0.000 C 
ATOM      2  N   UNL     1       0.577   7.512  20.992  0.00  0.00    +0.000 NA
ATOM      3  C   UNL     1       0.320   8.847  21.350  0.00  0.00    +0.000 A 
ATOM      4  C   UNL     1      -0.119   9.044  22.661  0.00  0.00    +0.000 A 
ATOM      5  C   UNL     1      -0.474  10.310  23.106  0.00  0.00    +0.000 A 
ATOM      6  C   UNL     1      -0.407  11.351  22.203  0.00  0.00    +0.000 A 
ATOM      7  N   UNL     1      -0.055  11.198  20.908  0.00  0.00    +0.000 NA
ATOM      8  C   UNL     1       0.324   9.966  20.486  0.00  0.00    +0.000 A 
ATOM      9  N   UNL     1       0.664   9.854  19.107  0.00  0.00    +0.000 N 
ATOM     10  C   UNL     1       1.673   9.041  18.615  0.00  0.00    +0.000 C 
ATOM     11  O   UNL     1       1.939   8.939  17.417  0.00  0.00    +0.000 OA
ATOM     12  C   UNL     1       2.466   8.264  19.627  0.00  0.00    +0.000 C 
ENDROOT
BRANCH   1  16
ATOM     13  C   UNL     1       2.185   3.137  19.015  0.00  0.00    +0.000 A 
ATOM     14  C   UNL     1       1.694   3.417  20.292  0.00  0.00    +0.000 A 
ATOM     15  C   UNL     1       1.495   4.740  20.700  0.00  0.00    +0.000 A 
ATOM     16  C   UNL     1       1.773   5.788  19.821  0.00  0.00    +0.000 A 
ATOM     17  C   UNL     1       2.292   5.510  18.551  0.00  0.00    +0.000 A 
ATOM     18  C   UNL     1       2.490   4.190  18.150  0.00  0.00    +0.000 A 
BRANCH  13  20
ATOM     19  C   UNL     1       3.779   1.289  18.547  0.00  0.00    +0.000 C 
ATOM     20  C   UNL     1       2.317   1.709  18.551  0.00  0.00    +0.000 C 
ENDBRANCH  13  20
ENDBRANCH   1  16
BRANCH   9  21
ATOM     21  C   UNL     1      -0.082  10.673  18.152  0.00  0.00    +0.000 C 
BRANCH  21  22
ATOM     22  C   UNL     1      -1.611  10.684  18.355  0.00  0.00    +0.000 C 
ATOM     23  O   UNL     1      -2.226   9.617  18.397  0.00  0.00    +0.000 OA
ATOM     24  N   UNL     1      -2.218  11.937  18.384  0.00  0.00    +0.000 N 
ATOM     25  H   UNL     1      -1.700  12.671  17.922  0.00  0.00    +0.000 HD
BRANCH  24  26
ATOM     26  C   UNL     1      -3.628  12.105  18.443  0.00  0.00    +0.000 A 
ATOM     27  C   UNL     1      -4.461  11.833  17.339  0.00  0.00    +0.000 A 
ATOM     28  C   UNL     1      -3.987  11.168  16.074  0.00  0.00    +0.000 C 
ATOM     29  C   UNL     1      -5.841  12.102  17.431  0.00  0.00    +0.000 A 
ATOM     30  C   UNL     1      -6.414  12.573  18.614  0.00  0.00    +0.000 A 
ATOM     31  C   UNL     1      -7.889  12.830  18.715  0.00  0.00    +0.000 C 
ATOM     32  C   UNL     1      -5.591  12.761  19.727  0.00  0.00    +0.000 A 
ATOM     33  C   UNL     1      -4.206  12.525  19.662  0.00  0.00    +0.000 A 
ATOM     34  C   UNL     1      -3.389  12.745  20.906  0.00  0.00    +0.000 C 
ENDBRANCH  24  26
ENDBRANCH  21  22
ENDBRANCH   9  21
TORSDOF 5
ENDMDL
MODEL 2
REMARK VINA RESULT:      -7.5      0.331      1.749
REMARK  Name = 
REMARK  9 active torsions:
REMARK  status: ('A' for Active; 'I' for Inactive)
REMARK    1  A    between atoms: C_1  and  C_2
REMARK    2  A    between atoms: C_2  and  C_3
REMARK    3  A    between atoms: C_6  and  C_7
REMARK    4  A    between atoms: N_15  and  C_16
REMARK    5  A    between atoms: C_16  and  C_17
REMARK    6  A    between atoms: N_19  and  C_20
REMARK    7  A    between atoms: C_21  and  C_22
REMARK    8  A    between atoms: C_24  and  C_25
REMARK    9  A    between atoms: C_27  and  C_28
REMARK                            x       y       z     vdW  Elec       q    Type
REMARK                         _______ _______ _______ _____ _____    ______ ____
ROOT
ATOM      1  C   UNL     1       1.683   7.003  20.144  0.00  0.00    +0.000 C 
ATOM      2  N   UNL     1       0.718   7.337  20.945  0.00  0.00    +0.000 NA
ATOM      3  C   UNL     1       0.488   8.684  21.274  0.00  0.00    +0.000 A 
ATOM      4  C   UNL     1       0.078   8.920  22.589  0.00  0.00    +0.000 A 
ATOM      5  C   UNL     1      -0.250  10.203  23.008  0.00  0.00    +0.000 A 
ATOM      6  C   UNL     1      -0.187  11.220  22.079  0.00  0.00    +0.000 A 
ATOM      7  N   UNL     1       0.137  11.029  20.780  0.00  0.00    +0.000 NA
ATOM      8  C   UNL     1       0.489   9.782  20.383  0.00  0.00    +0.000 A 
ATOM      9  N   UNL     1       0.799   9.630  19.000  0.00  0.00    +0.000 N 
ATOM     10  C   UNL     1       1.787   8.790  18.509  0.00  0.00    +0.000 C 
ATOM     11  O   UNL     1       2.027   8.654  17.309  0.00  0.00    +0.000 OA
ATOM     12  C   UNL     1       2.589   8.028  19.523  0.00  0.00    +0.000 C 
ENDROOT
BRANCH   1  16
ATOM     13  C   UNL     1       2.231   2.849  19.227  0.00  0.00    +0.000 A 
ATOM     14  C   UNL     1       2.099   3.774  18.189  0.00  0.00    +0.000 A 
ATOM     15  C   UNL     1       1.909   5.131  18.470  0.00  0.00    +0.000 A 
ATOM     16  C   UNL     1       1.867   5.567  19.794  0.00  0.00    +0.000 A 
ATOM     17  C   UNL     1       1.971   4.638  20.836  0.00  0.00    +0.000 A 
ATOM     18  C   UNL     1       2.159   3.287  20.551  0.00  0.00    +0.000 A 
BRANCH  13  20
ATOM     19  C   UNL     1       3.934   1.250  18.380  0.00  0.00    +0.000 C 
ATOM     20  C   UNL     1       2.521   1.402  18.919  0.00  0.00    +0.000 C 
ENDBRANCH  13  20
ENDBRANCH   1  16
BRANCH   9  21
ATOM     21  C   UNL     1       0.045  10.435  18.040  0.00  0.00    +0.000 C 
BRANCH  21  22
ATOM     22  C   UNL     1      -1.476  10.495  18.289  0.00  0.00    +0.000 C 
ATOM     23  O   UNL     1      -2.126   9.449  18.335  0.00  0.00    +0.000 OA
ATOM     24  N   UNL     1      -2.039  11.767  18.354  0.00  0.00    +0.000 N 
ATOM     25  H   UNL     1      -1.510  12.490  17.886  0.00  0.00    +0.000 HD
BRANCH  24  26
ATOM     26  C   UNL     1      -3.439  11.982  18.458  0.00  0.00    +0.000 A 
ATOM     27  C   UNL     1      -4.037  12.460  19.642  0.00  0.00    +0.000 A 
ATOM     28  C   UNL     1      -3.261  12.967  20.828  0.00  0.00    +0.000 C 
ATOM     29  C   UNL     1      -5.440  12.570  19.712  0.00  0.00    +0.000 A 
ATOM     30  C   UNL     1      -6.250  12.277  18.614  0.00  0.00    +0.000 A 
ATOM     31  C   UNL     1      -7.741  12.423  18.686  0.00  0.00    +0.000 C 
ATOM     32  C   UNL     1      -5.640  11.882  17.420  0.00  0.00    +0.000 A 
ATOM     33  C   UNL     1      -4.245  11.739  17.323  0.00  0.00    +0.000 A 
ATOM     34  C   UNL     1      -3.664  11.316  16.000  0.00  0.00    +0.000 C 
ENDBRANCH  24  26
ENDBRANCH  21  22
ENDBRANCH   9  21
TORSDOF 5
ENDMDL
MODEL 3
REMARK VINA RESULT:      -7.5      4.246      6.544
REMARK  Name = 
REMARK  9 active torsions:
REMARK  status: ('A' for Active; 'I' for Inactive)
REMARK    1  A    between atoms: C_1  and  C_2
REMARK    2  A    between atoms: C_2  and  C_3
REMARK    3  A    between atoms: C_6  and  C_7
REMARK    4  A    between atoms: N_15  and  C_16
REMARK    5  A    between atoms: C_16  and  C_17
REMARK    6  A    between atoms: N_19  and  C_20
REMARK    7  A    between atoms: C_21  and  C_22
REMARK    8  A    between atoms: C_24  and  C_25
REMARK    9  A    between atoms: C_27  and  C_28
REMARK                            x       y       z     vdW  Elec       q    Type
REMARK                         _______ _______ _______ _____ _____    ______ ____
ROOT
ATOM      1  C   UNL     1       1.074   8.599  19.175  0.00  0.00    +0.000 C 
ATOM      2  N   UNL     1       0.549   9.296  18.214  0.00  0.00    +0.000 NA
ATOM      3  C   UNL     1      -0.514  10.182  18.462  0.00  0.00    +0.000 A 
ATOM      4  C   UNL     1      -1.480  10.259  17.456  0.00  0.00    +0.000 A 
ATOM      5  C   UNL     1      -2.537  11.154  17.557  0.00  0.00    +0.000 A 
ATOM      6  C   UNL     1      -2.579  11.979  18.662  0.00  0.00    +0.000 A 
ATOM      7  N   UNL     1      -1.631  11.989  19.625  0.00  0.00    +0.000 NA
ATOM      8  C   UNL     1      -0.619  11.090  19.540  0.00  0.00    +0.000 A 
ATOM      9  N   UNL     1       0.366  11.157  20.568  0.00  0.00    +0.000 N 
ATOM     10  C   UNL     1       1.003  10.054  21.113  0.00  0.00    +0.000 C 
ATOM     11  O   UNL     1       1.868  10.132  21.986  0.00  0.00    +0.000 OA
ATOM     12  C   UNL     1       0.586   8.709  20.591  0.00  0.00    +0.000 C 
ENDROOT
BRANCH   1  16
ATOM     13  C   UNL     1       4.371   5.972  18.385  0.00  0.00    +0.000 A 
ATOM     14  C   UNL     1       4.114   7.037  17.520  0.00  0.00    +0.000 A 
ATOM     15  C   UNL     1       3.037   7.898  17.756  0.00  0.00    +0.000 A 
ATOM     16  C   UNL     1       2.222   7.701  18.871  0.00  0.00    +0.000 A 
ATOM     17  C   UNL     1       2.460   6.617  19.724  0.00  0.00    +0.000 A 
ATOM     18  C   UNL     1       3.534   5.762  19.483  0.00  0.00    +0.000 A 
BRANCH  13  20
ATOM     19  C   UNL     1       6.682   5.479  19.152  0.00  0.00    +0.000 C 
ATOM     20  C   UNL     1       5.582   5.099  18.174  0.00  0.00    +0.000 C 
ENDBRANCH  13  20
ENDBRANCH   1  16
BRANCH   9  21
ATOM     21  C   UNL     1       0.703  12.476  21.103  0.00  0.00    +0.000 C 
BRANCH  21  22
ATOM     22  C   UNL     1       1.813  13.228  20.339  0.00  0.00    +0.000 C 
ATOM     23  O   UNL     1       2.261  12.750  19.295  0.00  0.00    +0.000 OA
ATOM     24  N   UNL     1       2.309  14.377  20.947  0.00  0.00    +0.000 N 
ATOM     25  H   UNL     1       2.181  14.417  21.949  0.00  0.00    +0.000 HD
BRANCH  24  26
ATOM     26  C   UNL     1       3.410  15.107  20.426  0.00  0.00    +0.000 A 
ATOM     27  C   UNL     1       3.268  16.020  19.361  0.00  0.00    +0.000 A 
ATOM     28  C   UNL     1       1.939  16.456  18.803  0.00  0.00    +0.000 C 
ATOM     29  C   UNL     1       4.411  16.648  18.831  0.00  0.00    +0.000 A 
ATOM     30  C   UNL     1       5.678  16.437  19.377  0.00  0.00    +0.000 A 
ATOM     31  C   UNL     1       6.889  17.131  18.826  0.00  0.00    +0.000 C 
ATOM     32  C   UNL     1       5.796  15.594  20.485  0.00  0.00    +0.000 A 
ATOM     33  C   UNL     1       4.678  14.931  21.024  0.00  0.00    +0.000 A 
ATOM     34  C   UNL     1       4.888  14.044  22.222  0.00  0.00    +0.000 C 
ENDBRANCH  24  26
ENDBRANCH  21  22
ENDBRANCH   9  21
TORSDOF 5
ENDMDL
MODEL 4
REMARK VINA RESULT:      -7.4      4.235      6.496
REMARK  Name = 
REMARK  9 active torsions:
REMARK  status: ('A' for Active; 'I' for Inactive)
REMARK    1  A    between atoms: C_1  and  C_2
REMARK    2  A    between atoms: C_2  and  C_3
REMARK    3  A    between atoms: C_6  and  C_7
REMARK    4  A    between atoms: N_15  and  C_16
REMARK    5  A    between atoms: C_16  and  C_17
REMARK    6  A    between atoms: N_19  and  C_20
REMARK    7  A    between atoms: C_21  and  C_22
REMARK    8  A    between atoms: C_24  and  C_25
REMARK    9  A    between atoms: C_27  and  C_28
REMARK                            x       y       z     vdW  Elec       q    Type
REMARK                         _______ _______ _______ _____ _____    ______ ____
ROOT
ATOM      1  C   UNL     1       1.082   8.608  19.222  0.00  0.00    +0.000 C 
ATOM      2  N   UNL     1       0.570   9.320  18.265  0.00  0.00    +0.000 NA
ATOM      3  C   UNL     1      -0.480  10.220  18.518  0.00  0.00    +0.000 A 
ATOM      4  C   UNL     1      -1.443  10.319  17.511  0.00  0.00    +0.000 A 
ATOM      5  C   UNL     1      -2.486  11.230  17.616  0.00  0.00    +0.000 A 
ATOM      6  C   UNL     1      -2.517  12.047  18.727  0.00  0.00    +0.000 A 
ATOM      7  N   UNL     1      -1.571  12.035  19.692  0.00  0.00    +0.000 NA
ATOM      8  C   UNL     1      -0.573  11.122  19.603  0.00  0.00    +0.000 A 
ATOM      9  N   UNL     1       0.410  11.166  20.633  0.00  0.00    +0.000 N 
ATOM     10  C   UNL     1       1.029  10.049  21.171  0.00  0.00    +0.000 C 
ATOM     11  O   UNL     1       1.894  10.107  22.046  0.00  0.00    +0.000 OA
ATOM     12  C   UNL     1       0.593   8.715  20.638  0.00  0.00    +0.000 C 
ENDROOT
BRANCH   1  16
ATOM     13  C   UNL     1       4.358   6.015  18.253  0.00  0.00    +0.000 A 
ATOM     14  C   UNL     1       3.602   5.773  19.401  0.00  0.00    +0.000 A 
ATOM     15  C   UNL     1       2.536   6.614  19.738  0.00  0.00    +0.000 A 
ATOM     16  C   UNL     1       2.216   7.694  18.915  0.00  0.00    +0.000 A 
ATOM     17  C   UNL     1       2.990   7.955  17.778  0.00  0.00    +0.000 A 
ATOM     18  C   UNL     1       4.051   7.115  17.447  0.00  0.00    +0.000 A 
BRANCH  13  20
ATOM     19  C   UNL     1       5.255   4.614  16.407  0.00  0.00    +0.000 C 
ATOM     20  C   UNL     1       5.450   5.058  17.848  0.00  0.00    +0.000 C 
ENDBRANCH  13  20
ENDBRANCH   1  16
BRANCH   9  21
ATOM     21  C   UNL     1       0.767  12.476  21.179  0.00  0.00    +0.000 C 
BRANCH  21  22
ATOM     22  C   UNL     1       1.868  13.229  20.404  0.00  0.00    +0.000 C 
ATOM     23  O   UNL     1       2.311  12.749  19.359  0.00  0.00    +0.000 OA
ATOM     24  N   UNL     1       2.362  14.384  21.004  0.00  0.00    +0.000 N 
ATOM     25  H   UNL     1       2.241  14.427  22.007  0.00  0.00    +0.000 HD
BRANCH  24  26
ATOM     26  C   UNL     1       3.456  15.117  20.472  0.00  0.00    +0.000 A 
ATOM     27  C   UNL     1       3.297  16.045  19.423  0.00  0.00    +0.000 A 
ATOM     28  C   UNL     1       1.959  16.494  18.896  0.00  0.00    +0.000 C 
ATOM     29  C   UNL     1       4.433  16.677  18.880  0.00  0.00    +0.000 A 
ATOM     30  C   UNL     1       5.709  16.453  19.399  0.00  0.00    +0.000 A 
ATOM     31  C   UNL     1       6.911  17.150  18.835  0.00  0.00    +0.000 C 
ATOM     32  C   UNL     1       5.845  15.593  20.493  0.00  0.00    +0.000 A 
ATOM     33  C   UNL     1       4.735  14.928  21.043  0.00  0.00    +0.000 A 
ATOM     34  C   UNL     1       4.963  14.023  22.224  0.00  0.00    +0.000 C 
ENDBRANCH  24  26
ENDBRANCH  21  22
ENDBRANCH   9  21
TORSDOF 5
ENDMDL
MODEL 5
REMARK VINA RESULT:      -7.4      3.748      6.295
REMARK  Name = 
REMARK  9 active torsions:
REMARK  status: ('A' for Active; 'I' for Inactive)
REMARK    1  A    between atoms: C_1  and  C_2
REMARK    2  A    between atoms: C_2  and  C_3
REMARK    3  A    between atoms: C_6  and  C_7
REMARK    4  A    between atoms: N_15  and  C_16
REMARK    5  A    between atoms: C_16  and  C_17
REMARK    6  A    between atoms: N_19  and  C_20
REMARK    7  A    between atoms: C_21  and  C_22
REMARK    8  A    between atoms: C_24  and  C_25
REMARK    9  A    between atoms: C_27  and  C_28
REMARK                            x       y       z     vdW  Elec       q    Type
REMARK                         _______ _______ _______ _____ _____    ______ ____
ROOT
ATOM      1  C   UNL     1       0.426   9.137  19.377  0.00  0.00    +0.000 C 
ATOM      2  N   UNL     1      -0.151   9.926  18.524  0.00  0.00    +0.000 NA
ATOM      3  C   UNL     1      -1.258  10.708  18.899  0.00  0.00    +0.000 A 
ATOM      4  C   UNL     1      -2.242  10.865  17.920  0.00  0.00    +0.000 A 
ATOM      5  C   UNL     1      -3.346  11.676  18.150  0.00  0.00    +0.000 A 
ATOM      6  C   UNL     1      -3.417  12.339  19.357  0.00  0.00    +0.000 A 
ATOM      7  N   UNL     1      -2.456  12.273  20.305  0.00  0.00    +0.000 NA
ATOM      8  C   UNL     1      -1.397  11.454  20.092  0.00  0.00    +0.000 A 
ATOM      9  N   UNL     1      -0.402  11.438  21.112  0.00  0.00    +0.000 N 
ATOM     10  C   UNL     1       0.304  10.309  21.496  0.00  0.00    +0.000 C 
ATOM     11  O   UNL     1       1.177  10.318  22.365  0.00  0.00    +0.000 OA
ATOM     12  C   UNL     1      -0.045   9.026  20.799  0.00  0.00    +0.000 C 
ENDROOT
BRANCH   1  16
ATOM     13  C   UNL     1       3.859   6.932  18.054  0.00  0.00    +0.000 A 
ATOM     14  C   UNL     1       3.190   6.538  19.215  0.00  0.00    +0.000 A 
ATOM     15  C   UNL     1       2.075   7.251  19.667  0.00  0.00    +0.000 A 
ATOM     16  C   UNL     1       1.618   8.355  18.946  0.00  0.00    +0.000 A 
ATOM     17  C   UNL     1       2.303   8.769  17.798  0.00  0.00    +0.000 A 
ATOM     18  C   UNL     1       3.414   8.055  17.352  0.00  0.00    +0.000 A 
BRANCH  13  20
ATOM     19  C   UNL     1       5.139   6.296  16.022  0.00  0.00    +0.000 C 
ATOM     20  C   UNL     1       5.006   6.110  17.525  0.00  0.00    +0.000 C 
ENDBRANCH  13  20
ENDBRANCH   1  16
BRANCH   9  21
ATOM     21  C   UNL     1      -0.131  12.689  21.819  0.00  0.00    +0.000 C 
BRANCH  21  22
ATOM     22  C   UNL     1       0.839  13.649  21.099  0.00  0.00    +0.000 C 
ATOM     23  O   UNL     1       0.398  14.664  20.556  0.00  0.00    +0.000 OA
ATOM     24  N   UNL     1       2.169  13.243  21.032  0.00  0.00    +0.000 N 
ATOM     25  H   UNL     1       2.314  12.247  21.118  0.00  0.00    +0.000 HD
BRANCH  24  26
ATOM     26  C   UNL     1       3.154  13.960  20.301  0.00  0.00    +0.000 A 
ATOM     27  C   UNL     1       3.305  13.814  18.907  0.00  0.00    +0.000 A 
ATOM     28  C   UNL     1       2.341  13.055  18.034  0.00  0.00    +0.000 C 
ATOM     29  C   UNL     1       4.356  14.486  18.252  0.00  0.00    +0.000 A 
ATOM     30  C   UNL     1       5.215  15.343  18.941  0.00  0.00    +0.000 A 
ATOM     31  C   UNL     1       6.315  16.077  18.232  0.00  0.00    +0.000 C 
ATOM     32  C   UNL     1       5.005  15.543  20.308  0.00  0.00    +0.000 A 
ATOM     33  C   UNL     1       3.980  14.870  20.997  0.00  0.00    +0.000 A 
ATOM     34  C   UNL     1       3.815  15.144  22.468  0.00  0.00    +0.000 C 
ENDBRANCH  24  26
ENDBRANCH  21  22
ENDBRANCH   9  21
TORSDOF 5
ENDMDL
MODEL 6
REMARK VINA RESULT:      -7.4      3.639      6.191
REMARK  Name = 
REMARK  9 active torsions:
REMARK  status: ('A' for Active; 'I' for Inactive)
REMARK    1  A    between atoms: C_1  and  C_2
REMARK    2  A    between atoms: C_2  and  C_3
REMARK    3  A    between atoms: C_6  and  C_7
REMARK    4  A    between atoms: N_15  and  C_16
REMARK    5  A    between atoms: C_16  and  C_17
REMARK    6  A    between atoms: N_19  and  C_20
REMARK    7  A    between atoms: C_21  and  C_22
REMARK    8  A    between atoms: C_24  and  C_25
REMARK    9  A    between atoms: C_27  and  C_28
REMARK                            x       y       z     vdW  Elec       q    Type
REMARK                         _______ _______ _______ _____ _____    ______ ____
ROOT
ATOM      1  C   UNL     1       4.916   4.758  17.574  0.00  0.00    +0.000 C 
ATOM      2  N   UNL     1       4.203   3.775  18.031  0.00  0.00    +0.000 NA
ATOM      3  C   UNL     1       3.571   3.862  19.284  0.00  0.00    +0.000 A 
ATOM      4  C   UNL     1       3.537   2.679  20.025  0.00  0.00    +0.000 A 
ATOM      5  C   UNL     1       2.875   2.626  21.245  0.00  0.00    +0.000 A 
ATOM      6  C   UNL     1       2.231   3.766  21.677  0.00  0.00    +0.000 A 
ATOM      7  N   UNL     1       2.179   4.913  20.964  0.00  0.00    +0.000 NA
ATOM      8  C   UNL     1       2.854   4.971  19.790  0.00  0.00    +0.000 A 
ATOM      9  N   UNL     1       2.748   6.194  19.066  0.00  0.00    +0.000 N 
ATOM     10  C   UNL     1       3.779   6.761  18.333  0.00  0.00    +0.000 C 
ATOM     11  O   UNL     1       3.662   7.808  17.695  0.00  0.00    +0.000 OA
ATOM     12  C   UNL     1       5.093   6.035  18.346  0.00  0.00    +0.000 C 
ENDROOT
BRANCH   1  16
ATOM     13  C   UNL     1       6.643   4.335  13.671  0.00  0.00    +0.000 A 
ATOM     14  C   UNL     1       7.277   5.135  14.624  0.00  0.00    +0.000 A 
ATOM     15  C   UNL     1       6.722   5.292  15.899  0.00  0.00    +0.000 A 
ATOM     16  C   UNL     1       5.536   4.635  16.227  0.00  0.00    +0.000 A 
ATOM     17  C   UNL     1       4.885   3.855  15.264  0.00  0.00    +0.000 A 
ATOM     18  C   UNL     1       5.441   3.702  13.996  0.00  0.00    +0.000 A 
BRANCH  13  20
ATOM     19  C   UNL     1       6.626   2.927  11.624  0.00  0.00    +0.000 C 
ATOM     20  C   UNL     1       7.288   4.099  12.329  0.00  0.00    +0.000 C 
ENDBRANCH  13  20
ENDBRANCH   1  16
BRANCH   9  21
ATOM     21  C   UNL     1       1.475   6.913  19.127  0.00  0.00    +0.000 C 
BRANCH  21  22
ATOM     22  C   UNL     1       1.491   8.201  19.977  0.00  0.00    +0.000 C 
ATOM     23  O   UNL     1       2.191   8.251  20.990  0.00  0.00    +0.000 OA
ATOM     24  N   UNL     1       0.618   9.210  19.580  0.00  0.00    +0.000 N 
ATOM     25  H   UNL     1      -0.174   8.897  19.035  0.00  0.00    +0.000 HD
BRANCH  24  26
ATOM     26  C   UNL     1       0.432  10.402  20.329  0.00  0.00    +0.000 A 
ATOM     27  C   UNL     1      -0.240  10.411  21.568  0.00  0.00    +0.000 A 
ATOM     28  C   UNL     1      -0.652   9.165  22.308  0.00  0.00    +0.000 C 
ATOM     29  C   UNL     1      -0.469  11.638  22.222  0.00  0.00    +0.000 A 
ATOM     30  C   UNL     1       0.010  12.841  21.702  0.00  0.00    +0.000 A 
ATOM     31  C   UNL     1      -0.212  14.141  22.418  0.00  0.00    +0.000 C 
ATOM     32  C   UNL     1       0.746  12.811  20.515  0.00  0.00    +0.000 A 
ATOM     33  C   UNL     1       0.972  11.606  19.824  0.00  0.00    +0.000 A 
ATOM     34  C   UNL     1       1.779  11.657  18.555  0.00  0.00    +0.000 C 
ENDBRANCH  24  26
ENDBRANCH  21  22
ENDBRANCH   9  21
TORSDOF 5
ENDMDL
MODEL 7
REMARK VINA RESULT:      -7.4      3.680      6.439
REMARK  Name = 
REMARK  9 active torsions:
REMARK  status: ('A' for Active; 'I' for Inactive)
REMARK    1  A    between atoms: C_1  and  C_2
REMARK    2  A    between atoms: C_2  and  C_3
REMARK    3  A    between atoms: C_6  and  C_7
REMARK    4  A    between atoms: N_15  and  C_16
REMARK    5  A    between atoms: C_16  and  C_17
REMARK    6  A    between atoms: N_19  and  C_20
REMARK    7  A    between atoms: C_21  and  C_22
REMARK    8  A    between atoms: C_24  and  C_25
REMARK    9  A    between atoms: C_27  and  C_28
REMARK                            x       y       z     vdW  Elec       q    Type
REMARK                         _______ _______ _______ _____ _____    ______ ____
ROOT
ATOM      1  C   UNL     1       0.312   9.219  19.426  0.00  0.00    +0.000 C 
ATOM      2  N   UNL     1      -0.263  10.020  18.582  0.00  0.00    +0.000 NA
ATOM      3  C   UNL     1      -1.371  10.796  18.963  0.00  0.00    +0.000 A 
ATOM      4  C   UNL     1      -2.352  10.967  17.983  0.00  0.00    +0.000 A 
ATOM      5  C   UNL     1      -3.457  11.774  18.220  0.00  0.00    +0.000 A 
ATOM      6  C   UNL     1      -3.533  12.420  19.436  0.00  0.00    +0.000 A 
ATOM      7  N   UNL     1      -2.576  12.340  20.387  0.00  0.00    +0.000 NA
ATOM      8  C   UNL     1      -1.516  11.525  20.166  0.00  0.00    +0.000 A 
ATOM      9  N   UNL     1      -0.525  11.494  21.190  0.00  0.00    +0.000 N 
ATOM     10  C   UNL     1       0.180  10.360  21.561  0.00  0.00    +0.000 C 
ATOM     11  O   UNL     1       1.049  10.357  22.434  0.00  0.00    +0.000 OA
ATOM     12  C   UNL     1      -0.165   9.087  20.844  0.00  0.00    +0.000 C 
ENDROOT
BRANCH   1  16
ATOM     13  C   UNL     1       3.749   7.032  18.084  0.00  0.00    +0.000 A 
ATOM     14  C   UNL     1       3.109   6.656  19.267  0.00  0.00    +0.000 A 
ATOM     15  C   UNL     1       1.993   7.364  19.725  0.00  0.00    +0.000 A 
ATOM     16  C   UNL     1       1.506   8.445  18.989  0.00  0.00    +0.000 A 
ATOM     17  C   UNL     1       2.162   8.841  17.817  0.00  0.00    +0.000 A 
ATOM     18  C   UNL     1       3.274   8.132  17.366  0.00  0.00    +0.000 A 
BRANCH  13  20
ATOM     19  C   UNL     1       5.100   6.494  16.070  0.00  0.00    +0.000 C 
ATOM     20  C   UNL     1       4.897   6.214  17.550  0.00  0.00    +0.000 C 
ENDBRANCH  13  20
ENDBRANCH   1  16
BRANCH   9  21
ATOM     21  C   UNL     1      -0.258  12.735  21.916  0.00  0.00    +0.000 C 
BRANCH  21  22
ATOM     22  C   UNL     1       0.767  13.676  21.248  0.00  0.00    +0.000 C 
ATOM     23  O   UNL     1       0.404  14.784  20.849  0.00  0.00    +0.000 OA
ATOM     24  N   UNL     1       2.044  13.155  21.054  0.00  0.00    +0.000 N 
ATOM     25  H   UNL     1       2.091  12.146  21.020  0.00  0.00    +0.000 HD
BRANCH  24  26
ATOM     26  C   UNL     1       3.058  13.854  20.346  0.00  0.00    +0.000 A 
ATOM     27  C   UNL     1       3.972  14.708  20.996  0.00  0.00    +0.000 A 
ATOM     28  C   UNL     1       4.096  14.820  22.493  0.00  0.00    +0.000 C 
ATOM     29  C   UNL     1       4.899  15.441  20.230  0.00  0.00    +0.000 A 
ATOM     30  C   UNL     1       4.976  15.294  18.844  0.00  0.00    +0.000 A 
ATOM     31  C   UNL     1       5.986  16.057  18.037  0.00  0.00    +0.000 C 
ATOM     32  C   UNL     1       4.121  14.384  18.219  0.00  0.00    +0.000 A 
ATOM     33  C   UNL     1       3.167  13.654  18.952  0.00  0.00    +0.000 A 
ATOM     34  C   UNL     1       2.285  12.689  18.206  0.00  0.00    +0.000 C 
ENDBRANCH  24  26
ENDBRANCH  21  22
ENDBRANCH   9  21
TORSDOF 5
ENDMDL
MODEL 8
REMARK VINA RESULT:      -7.4      2.806      3.923
REMARK  Name = 
REMARK  9 active torsions:
REMARK  status: ('A' for Active; 'I' for Inactive)
REMARK    1  A    between atoms: C_1  and  C_2
REMARK    2  A    between atoms: C_2  and  C_3
REMARK    3  A    between atoms: C_6  and  C_7
REMARK    4  A    between atoms: N_15  and  C_16
REMARK    5  A    between atoms: C_16  and  C_17
REMARK    6  A    between atoms: N_19  and  C_20
REMARK    7  A    between atoms: C_21  and  C_22
REMARK    8  A    between atoms: C_24  and  C_25
REMARK    9  A    between atoms: C_27  and  C_28
REMARK                            x       y       z     vdW  Elec       q    Type
REMARK                         _______ _______ _______ _____ _____    ______ ____
ROOT
ATOM      1  C   UNL     1       1.788   7.710  20.011  0.00  0.00    +0.000 C 
ATOM      2  N   UNL     1       0.922   7.648  20.976  0.00  0.00    +0.000 NA
ATOM      3  C   UNL     1       0.375   8.817  21.532  0.00  0.00    +0.000 A 
ATOM      4  C   UNL     1       0.149   8.780  22.910  0.00  0.00    +0.000 A 
ATOM      5  C   UNL     1      -0.455   9.849  23.558  0.00  0.00    +0.000 A 
ATOM      6  C   UNL     1      -0.850  10.926  22.791  0.00  0.00    +0.000 A 
ATOM      7  N   UNL     1      -0.715  10.978  21.448  0.00  0.00    +0.000 NA
ATOM      8  C   UNL     1      -0.094   9.947  20.823  0.00  0.00    +0.000 A 
ATOM      9  N   UNL     1       0.002  10.041  19.405  0.00  0.00    +0.000 N 
ATOM     10  C   UNL     1       1.088   9.601  18.665  0.00  0.00    +0.000 C 
ATOM     11  O   UNL     1       1.145   9.670  17.436  0.00  0.00    +0.000 OA
ATOM     12  C   UNL     1       2.239   9.022  19.436  0.00  0.00    +0.000 C 
ENDROOT
BRANCH   1  16
ATOM     13  C   UNL     1       3.322   4.110  18.256  0.00  0.00    +0.000 A 
ATOM     14  C   UNL     1       2.590   4.042  19.443  0.00  0.00    +0.000 A 
ATOM     15  C   UNL     1       2.091   5.207  20.035  0.00  0.00    +0.000 A 
ATOM     16  C   UNL     1       2.312   6.445  19.429  0.00  0.00    +0.000 A 
ATOM     17  C   UNL     1       3.070   6.517  18.254  0.00  0.00    +0.000 A 
ATOM     18  C   UNL     1       3.566   5.354  17.669  0.00  0.00    +0.000 A 
BRANCH  13  20
ATOM     19  C   UNL     1       3.440   1.634  18.429  0.00  0.00    +0.000 C 
ATOM     20  C   UNL     1       3.784   2.846  17.578  0.00  0.00    +0.000 C 
ENDBRANCH  13  20
ENDBRANCH   1  16
BRANCH   9  21
ATOM     21  C   UNL     1      -1.106  10.670  18.687  0.00  0.00    +0.000 C 
BRANCH  21  22
ATOM     22  C   UNL     1      -0.932  12.177  18.407  0.00  0.00    +0.000 C 
ATOM     23  O   UNL     1      -1.277  12.636  17.316  0.00  0.00    +0.000 OA
ATOM     24  N   UNL     1      -0.293  12.917  19.399  0.00  0.00    +0.000 N 
ATOM     25  H   UNL     1       0.303  12.379  20.012  0.00  0.00    +0.000 HD
BRANCH  24  26
ATOM     26  C   UNL     1       0.046  14.287  19.236  0.00  0.00    +0.000 A 
ATOM     27  C   UNL     1      -0.804  15.325  19.667  0.00  0.00    +0.000 A 
ATOM     28  C   UNL     1      -2.040  15.106  20.500  0.00  0.00    +0.000 C 
ATOM     29  C   UNL     1      -0.453  16.663  19.400  0.00  0.00    +0.000 A 
ATOM     30  C   UNL     1       0.750  16.989  18.772  0.00  0.00    +0.000 A 
ATOM     31  C   UNL     1       1.131  18.417  18.515  0.00  0.00    +0.000 C 
ATOM     32  C   UNL     1       1.623  15.955  18.422  0.00  0.00    +0.000 A 
ATOM     33  C   UNL     1       1.292  14.608  18.653  0.00  0.00    +0.000 A 
ATOM     34  C   UNL     1       2.288  13.553  18.252  0.00  0.00    +0.000 C 
ENDBRANCH  24  26
ENDBRANCH  21  22
ENDBRANCH   9  21
TORSDOF 5
ENDMDL
MODEL 9
REMARK VINA RESULT:      -7.4      3.653      6.257
REMARK  Name = 
REMARK  9 active torsions:
REMARK  status: ('A' for Active; 'I' for Inactive)
REMARK    1  A    between atoms: C_1  and  C_2
REMARK    2  A    between atoms: C_2  and  C_3
REMARK    3  A    between atoms: C_6  and  C_7
REMARK    4  A    between atoms: N_15  and  C_16
REMARK    5  A    between atoms: C_16  and  C_17
REMARK    6  A    between atoms: N_19  and  C_20
REMARK    7  A    between atoms: C_21  and  C_22
REMARK    8  A    between atoms: C_24  and  C_25
REMARK    9  A    between atoms: C_27  and  C_28
REMARK                            x       y       z     vdW  Elec       q    Type
REMARK                         _______ _______ _______ _____ _____    ______ ____
ROOT
ATOM      1  C   UNL     1       4.894   4.700  17.651  0.00  0.00    +0.000 C 
ATOM      2  N   UNL     1       4.183   3.709  18.095  0.00  0.00    +0.000 NA
ATOM      3  C   UNL     1       3.549   3.780  19.348  0.00  0.00    +0.000 A 
ATOM      4  C   UNL     1       3.518   2.588  20.074  0.00  0.00    +0.000 A 
ATOM      5  C   UNL     1       2.854   2.518  21.292  0.00  0.00    +0.000 A 
ATOM      6  C   UNL     1       2.207   3.652  21.738  0.00  0.00    +0.000 A 
ATOM      7  N   UNL     1       2.152   4.807  21.038  0.00  0.00    +0.000 NA
ATOM      8  C   UNL     1       2.829   4.881  19.866  0.00  0.00    +0.000 A 
ATOM      9  N   UNL     1       2.721   6.113  19.157  0.00  0.00    +0.000 N 
ATOM     10  C   UNL     1       3.751   6.690  18.432  0.00  0.00    +0.000 C 
ATOM     11  O   UNL     1       3.633   7.745  17.807  0.00  0.00    +0.000 OA
ATOM     12  C   UNL     1       5.067   5.967  18.438  0.00  0.00    +0.000 C 
ENDROOT
BRANCH   1  16
ATOM     13  C   UNL     1       6.759   4.449  13.796  0.00  0.00    +0.000 A 
ATOM     14  C   UNL     1       5.453   3.983  13.964  0.00  0.00    +0.000 A 
ATOM     15  C   UNL     1       4.833   4.047  15.216  0.00  0.00    +0.000 A 
ATOM     16  C   UNL     1       5.517   4.595  16.303  0.00  0.00    +0.000 A 
ATOM     17  C   UNL     1       6.835   5.037  16.143  0.00  0.00    +0.000 A 
ATOM     18  C   UNL     1       7.449   4.970  14.894  0.00  0.00    +0.000 A 
BRANCH  13  20
ATOM     19  C   UNL     1       8.139   5.760  12.200  0.00  0.00    +0.000 C 
ATOM     20  C   UNL     1       7.391   4.456  12.428  0.00  0.00    +0.000 C 
ENDBRANCH  13  20
ENDBRANCH   1  16
BRANCH   9  21
ATOM     21  C   UNL     1       1.446   6.827  19.225  0.00  0.00    +0.000 C 
BRANCH  21  22
ATOM     22  C   UNL     1       1.469   8.128  20.055  0.00  0.00    +0.000 C 
ATOM     23  O   UNL     1       2.178   8.194  21.061  0.00  0.00    +0.000 OA
ATOM     24  N   UNL     1       0.592   9.130  19.651  0.00  0.00    +0.000 N 
ATOM     25  H   UNL     1      -0.205   8.809  19.118  0.00  0.00    +0.000 HD
BRANCH  24  26
ATOM     26  C   UNL     1       0.412  10.334  20.384  0.00  0.00    +0.000 A 
ATOM     27  C   UNL     1      -0.258  10.362  21.623  0.00  0.00    +0.000 A 
ATOM     28  C   UNL     1      -0.674   9.129  22.381  0.00  0.00    +0.000 C 
ATOM     29  C   UNL     1      -0.481  11.599  22.261  0.00  0.00    +0.000 A 
ATOM     30  C   UNL     1       0.002  12.793  21.723  0.00  0.00    +0.000 A 
ATOM     31  C   UNL     1      -0.214  14.104  22.421  0.00  0.00    +0.000 C 
ATOM     32  C   UNL     1       0.735  12.743  20.535  0.00  0.00    +0.000 A 
ATOM     33  C   UNL     1       0.955  11.529  19.861  0.00  0.00    +0.000 A 
ATOM     34  C   UNL     1       1.761  11.558  18.590  0.00  0.00    +0.000 C 
ENDBRANCH  24  26
ENDBRANCH  21  22
ENDBRANCH   9  21
TORSDOF 5
ENDMDL
