MODEL 1
REMARK VINA RESULT:      -6.8      0.000      0.000
REMARK  Name = 
REMARK  7 active torsions:
REMARK  status: ('A' for Active; 'I' for Inactive)
REMARK    1  A    between atoms: C_1  and  C_2
REMARK    2  A    between atoms: C_2  and  C_3
REMARK    3  A    between atoms: C_2  and  O_4
REMARK    4  A    between atoms: C_2  and  C_5
REMARK    5  A    between atoms: C_6  and  C_7
REMARK    6  A    between atoms: C_10  and  C_11
REMARK    7  A    between atoms: C_17  and  C_19
REMARK                            x       y       z     vdW  Elec       q    Type
REMARK                         _______ _______ _______ _____ _____    ______ ____
ROOT
ATOM      1  C   UNL     1      10.176  13.099  19.694  0.00  0.00    +0.000 C 
ATOM      2  O   UNL     1      11.394  13.198  19.827  0.00  0.00    +0.000 OA
ATOM      3  N   UNL     1       9.304  14.150  19.969  0.00  0.00    +0.000 N 
ATOM      4  C   UNL     1       9.832  15.502  20.217  0.00  0.00    +0.000 C 
ATOM      5  C   UNL     1       9.009  16.579  19.472  0.00  0.00    +0.000 C 
ATOM      6  N   UNL     1       7.561  16.380  19.643  0.00  0.00    +0.000 N 
ATOM      7  C   UNL     1       6.715  17.480  19.837  0.00  0.00    +0.000 C 
ATOM      8  O   UNL     1       7.155  18.627  19.775  0.00  0.00    +0.000 OA
ATOM      9  C   UNL     1       7.111  15.018  19.344  0.00  0.00    +0.000 C 
ATOM     10  C   UNL     1       7.864  14.029  20.234  0.00  0.00    +0.000 C 
ENDROOT
BRANCH   1  14
ATOM     11  C   UNL     1       8.577   9.407  18.192  0.00  0.00    +0.000 A 
ATOM     12  C   UNL     1       8.457  10.579  17.440  0.00  0.00    +0.000 A 
ATOM     13  C   UNL     1       8.995  11.779  17.924  0.00  0.00    +0.000 A 
ATOM     14  C   UNL     1       9.633  11.810  19.170  0.00  0.00    +0.000 A 
ATOM     15  C   UNL     1       9.674  10.642  19.944  0.00  0.00    +0.000 A 
ATOM     16  C   UNL     1       9.199   9.438  19.436  0.00  0.00    +0.000 A 
BRANCH  11  18
ATOM     17  C   UNL     1       7.470   7.159  17.407  0.00  0.00    +0.000 C 
ATOM     18  C   UNL     1       8.022   8.174  17.746  0.00  0.00    +0.000 C 
BRANCH  17  20
ATOM     19  C   UNL     1       5.259   6.085  17.216  0.00  0.00    +0.000 C 
ATOM     20  C   UNL     1       6.765   5.941  16.992  0.00  0.00    +0.000 C 
ATOM     21  C   UNL     1       7.324   4.743  17.756  0.00  0.00    +0.000 C 
BRANCH  20  22
ATOM     22  O   UNL     1       6.993   5.742  15.598  0.00  0.00    +0.000 OA
ATOM     23  H   UNL     1       6.132   5.777  15.150  0.00  0.00    +0.000 HD
ENDBRANCH  20  22
ENDBRANCH  17  20
ENDBRANCH  11  18
ENDBRANCH   1  14
BRANCH   7  24
ATOM     24  C   UNL     1       5.308  17.223  20.100  0.00  0.00    +0.000 A 
ATOM     25  C   UNL     1       4.656  16.843  21.264  0.00  0.00    +0.000 A 
ATOM     26  C   UNL     1       3.275  16.772  20.958  0.00  0.00    +0.000 A 
ATOM     27  C   UNL     1       3.164  17.071  19.623  0.00  0.00    +0.000 A 
ATOM     28  O   UNL     1       4.388  17.297  19.088  0.00  0.00    +0.000 OA
ENDBRANCH   7  24
TORSDOF 5
ENDMDL
MODEL 2
REMARK VINA RESULT:      -6.8      4.641      6.707
REMARK  Name = 
REMARK  7 active torsions:
REMARK  status: ('A' for Active; 'I' for Inactive)
REMARK    1  A    between atoms: C_1  and  C_2
REMARK    2  A    between atoms: C_2  and  C_3
REMARK    3  A    between atoms: C_2  and  O_4
REMARK    4  A    between atoms: C_2  and  C_5
REMARK    5  A    between atoms: C_6  and  C_7
REMARK    6  A    between atoms: C_10  and  C_11
REMARK    7  A    between atoms: C_17  and  C_19
REMARK                            x       y       z     vdW  Elec       q    Type
REMARK                         _______ _______ _______ _____ _____    ______ ____
ROOT
ATOM      1  C   UNL     1      -0.106  11.087  19.045  0.00  0.00    +0.000 C 
ATOM      2  O   UNL     1      -1.325  10.928  19.025  0.00  0.00    +0.000 OA
ATOM      3  N   UNL     1       0.485  12.347  19.115  0.00  0.00    +0.000 N 
ATOM      4  C   UNL     1      -0.339  13.534  19.396  0.00  0.00    +0.000 C 
ATOM      5  C   UNL     1       0.339  14.465  20.429  0.00  0.00    +0.000 C 
ATOM      6  N   UNL     1       1.759  14.690  20.117  0.00  0.00    +0.000 N 
ATOM      7  C   UNL     1       2.325  15.961  20.280  0.00  0.00    +0.000 C 
ATOM      8  O   UNL     1       1.672  16.880  20.772  0.00  0.00    +0.000 OA
ATOM      9  C   UNL     1       2.517  13.457  19.883  0.00  0.00    +0.000 C 
ATOM     10  C   UNL     1       1.869  12.673  18.743  0.00  0.00    +0.000 C 
ENDROOT
BRANCH   1  14
ATOM     11  C   UNL     1       2.352   7.564  19.016  0.00  0.00    +0.000 A 
ATOM     12  C   UNL     1       2.101   8.253  17.826  0.00  0.00    +0.000 A 
ATOM     13  C   UNL     1       1.313   9.412  17.840  0.00  0.00    +0.000 A 
ATOM     14  C   UNL     1       0.758   9.869  19.042  0.00  0.00    +0.000 A 
ATOM     15  C   UNL     1       0.957   9.121  20.212  0.00  0.00    +0.000 A 
ATOM     16  C   UNL     1       1.791   8.009  20.210  0.00  0.00    +0.000 A 
BRANCH  11  18
ATOM     17  C   UNL     1       3.735   5.333  18.979  0.00  0.00    +0.000 C 
ATOM     18  C   UNL     1       3.125   6.370  19.039  0.00  0.00    +0.000 C 
BRANCH  17  20
ATOM     19  C   UNL     1       4.495   3.581  17.420  0.00  0.00    +0.000 C 
ATOM     20  C   UNL     1       4.474   4.071  18.869  0.00  0.00    +0.000 C 
ATOM     21  C   UNL     1       3.847   3.030  19.793  0.00  0.00    +0.000 C 
BRANCH  20  22
ATOM     22  O   UNL     1       5.820   4.299  19.283  0.00  0.00    +0.000 OA
ATOM     23  H   UNL     1       6.022   5.236  19.127  0.00  0.00    +0.000 HD
ENDBRANCH  20  22
ENDBRANCH  17  20
ENDBRANCH  11  18
ENDBRANCH   1  14
BRANCH   7  24
ATOM     24  C   UNL     1       3.705  16.154  19.863  0.00  0.00    +0.000 A 
ATOM     25  C   UNL     1       4.245  16.458  18.623  0.00  0.00    +0.000 A 
ATOM     26  C   UNL     1       5.647  16.567  18.799  0.00  0.00    +0.000 A 
ATOM     27  C   UNL     1       5.889  16.285  20.121  0.00  0.00    +0.000 A 
ATOM     28  O   UNL     1       4.730  15.989  20.758  0.00  0.00    +0.000 OA
ENDBRANCH   7  24
TORSDOF 5
ENDMDL
MODEL 3
REMARK VINA RESULT:      -6.7      4.895      6.668
REMARK  Name = 
REMARK  7 active torsions:
REMARK  status: ('A' for Active; 'I' for Inactive)
REMARK    1  A    between atoms: C_1  and  C_2
REMARK    2  A    between atoms: C_2  and  C_3
REMARK    3  A    between atoms: C_2  and  O_4
REMARK    4  A    between atoms: C_2  and  C_5
REMARK    5  A    between atoms: C_6  and  C_7
REMARK    6  A    between atoms: C_10  and  C_11
REMARK    7  A    between atoms: C_17  and  C_19
REMARK                            x       y       z     vdW  Elec       q    Type
REMARK                         _______ _______ _______ _____ _____    ______ ____
ROOT
ATOM      1  C   UNL     1       0.270   9.908  20.260  0.00  0.00    +0.000 C 
ATOM      2  O   UNL     1      -0.614   9.408  20.952  0.00  0.00    +0.000 OA
ATOM      3  N   UNL     1       0.442  11.285  20.142  0.00  0.00    +0.000 N 
ATOM      4  C   UNL     1      -0.296  12.199  21.029  0.00  0.00    +0.000 C 
ATOM      5  C   UNL     1       0.616  13.327  21.569  0.00  0.00    +0.000 C 
ATOM      6  N   UNL     1       1.431  13.933  20.504  0.00  0.00    +0.000 N 
ATOM      7  C   UNL     1       1.639  15.317  20.476  0.00  0.00    +0.000 C 
ATOM      8  O   UNL     1       1.225  16.032  21.388  0.00  0.00    +0.000 OA
ATOM      9  C   UNL     1       2.160  12.958  19.688  0.00  0.00    +0.000 C 
ATOM     10  C   UNL     1       1.167  11.975  19.066  0.00  0.00    +0.000 C 
ENDROOT
BRANCH   1  14
ATOM     11  C   UNL     1       2.964   7.245  18.234  0.00  0.00    +0.000 A 
ATOM     12  C   UNL     1       2.414   8.335  17.554  0.00  0.00    +0.000 A 
ATOM     13  C   UNL     1       1.549   9.212  18.222  0.00  0.00    +0.000 A 
ATOM     14  C   UNL     1       1.217   8.986  19.563  0.00  0.00    +0.000 A 
ATOM     15  C   UNL     1       1.717   7.844  20.205  0.00  0.00    +0.000 A 
ATOM     16  C   UNL     1       2.626   7.011  19.564  0.00  0.00    +0.000 A 
BRANCH  11  18
ATOM     17  C   UNL     1       4.619   5.549  17.104  0.00  0.00    +0.000 C 
ATOM     18  C   UNL     1       3.826   6.317  17.585  0.00  0.00    +0.000 C 
BRANCH  17  20
ATOM     19  C   UNL     1       6.978   4.836  17.171  0.00  0.00    +0.000 C 
ATOM     20  C   UNL     1       5.599   4.606  16.553  0.00  0.00    +0.000 C 
ATOM     21  C   UNL     1       5.645   4.749  15.034  0.00  0.00    +0.000 C 
BRANCH  20  22
ATOM     22  O   UNL     1       5.179   3.281  16.876  0.00  0.00    +0.000 OA
ATOM     23  H   UNL     1       5.638   3.017  17.690  0.00  0.00    +0.000 HD
ENDBRANCH  20  22
ENDBRANCH  17  20
ENDBRANCH  11  18
ENDBRANCH   1  14
BRANCH   7  24
ATOM     24  C   UNL     1       2.367  15.878  19.348  0.00  0.00    +0.000 A 
ATOM     25  C   UNL     1       1.918  16.376  18.135  0.00  0.00    +0.000 A 
ATOM     26  C   UNL     1       3.058  16.827  17.427  0.00  0.00    +0.000 A 
ATOM     27  C   UNL     1       4.139  16.546  18.225  0.00  0.00    +0.000 A 
ATOM     28  O   UNL     1       3.736  15.931  19.363  0.00  0.00    +0.000 OA
ENDBRANCH   7  24
TORSDOF 5
ENDMDL
MODEL 4
REMARK VINA RESULT:      -6.7      0.691      1.252
REMARK  Name = 
REMARK  7 active torsions:
REMARK  status: ('A' for Active; 'I' for Inactive)
REMARK    1  A    between atoms: C_1  and  C_2
REMARK    2  A    between atoms: C_2  and  C_3
REMARK    3  A    between atoms: C_2  and  O_4
REMARK    4  A    between atoms: C_2  and  C_5
REMARK    5  A    between atoms: C_6  and  C_7
REMARK    6  A    between atoms: C_10  and  C_11
REMARK    7  A    between atoms: C_17  and  C_19
REMARK                            x       y       z     vdW  Elec       q    Type
REMARK                         _______ _______ _______ _____ _____    ______ ____
ROOT
ATOM      1  C   UNL     1      10.199  13.084  19.508  0.00  0.00    +0.000 C 
ATOM      2  O   UNL     1      11.424  13.173  19.476  0.00  0.00    +0.000 OA
ATOM      3  N   UNL     1       9.381  14.137  19.914  0.00  0.00    +0.000 N 
ATOM      4  C   UNL     1       9.950  15.481  20.107  0.00  0.00    +0.000 C 
ATOM      5  C   UNL     1       9.042  16.575  19.496  0.00  0.00    +0.000 C 
ATOM      6  N   UNL     1       7.629  16.383  19.859  0.00  0.00    +0.000 N 
ATOM      7  C   UNL     1       6.828  17.485  20.182  0.00  0.00    +0.000 C 
ATOM      8  O   UNL     1       7.265  18.631  20.077  0.00  0.00    +0.000 OA
ATOM      9  C   UNL     1       7.131  15.029  19.605  0.00  0.00    +0.000 C 
ATOM     10  C   UNL     1       7.989  14.022  20.371  0.00  0.00    +0.000 C 
ENDROOT
BRANCH   1  14
ATOM     11  C   UNL     1       8.449   9.396  18.170  0.00  0.00    +0.000 A 
ATOM     12  C   UNL     1       9.193   9.430  19.353  0.00  0.00    +0.000 A 
ATOM     13  C   UNL     1       9.749  10.637  19.797  0.00  0.00    +0.000 A 
ATOM     14  C   UNL     1       9.578  11.807  19.045  0.00  0.00    +0.000 A 
ATOM     15  C   UNL     1       8.894  11.738  17.823  0.00  0.00    +0.000 A 
ATOM     16  C   UNL     1       8.288  10.555  17.415  0.00  0.00    +0.000 A 
BRANCH  11  18
ATOM     17  C   UNL     1       7.449   7.118  17.332  0.00  0.00    +0.000 C 
ATOM     18  C   UNL     1       7.891   8.185  17.673  0.00  0.00    +0.000 C 
BRANCH  17  20
ATOM     19  C   UNL     1       5.387   5.783  17.125  0.00  0.00    +0.000 C 
ATOM     20  C   UNL     1       6.906   5.810  16.953  0.00  0.00    +0.000 C 
ATOM     21  C   UNL     1       7.574   4.719  17.787  0.00  0.00    +0.000 C 
BRANCH  20  22
ATOM     22  O   UNL     1       7.205   5.581  15.577  0.00  0.00    +0.000 OA
ATOM     23  H   UNL     1       6.673   4.823  15.281  0.00  0.00    +0.000 HD
ENDBRANCH  20  22
ENDBRANCH  17  20
ENDBRANCH  11  18
ENDBRANCH   1  14
BRANCH   7  24
ATOM     24  C   UNL     1       5.467  17.234  20.630  0.00  0.00    +0.000 A 
ATOM     25  C   UNL     1       4.274  17.182  19.925  0.00  0.00    +0.000 A 
ATOM     26  C   UNL     1       3.257  16.864  20.859  0.00  0.00    +0.000 A 
ATOM     27  C   UNL     1       3.875  16.780  22.082  0.00  0.00    +0.000 A 
ATOM     28  O   UNL     1       5.197  17.048  21.961  0.00  0.00    +0.000 OA
ENDBRANCH   7  24
TORSDOF 5
ENDMDL
MODEL 5
REMARK VINA RESULT:      -6.7      4.449      6.743
REMARK  Name = 
REMARK  7 active torsions:
REMARK  status: ('A' for Active; 'I' for Inactive)
REMARK    1  A    between atoms: C_1  and  C_2
REMARK    2  A    between atoms: C_2  and  C_3
REMARK    3  A    between atoms: C_2  and  O_4
REMARK    4  A    between atoms: C_2  and  C_5
REMARK    5  A    between atoms: C_6  and  C_7
REMARK    6  A    between atoms: C_10  and  C_11
REMARK    7  A    between atoms: C_17  and  C_19
REMARK                            x       y       z     vdW  Elec       q    Type
REMARK                         _______ _______ _______ _____ _____    ______ ____
ROOT
ATOM      1  C   UNL     1      -0.174  10.701  19.176  0.00  0.00    +0.000 C 
ATOM      2  O   UNL     1      -1.377  10.450  19.193  0.00  0.00    +0.000 OA
ATOM      3  N   UNL     1       0.326  11.992  19.328  0.00  0.00    +0.000 N 
ATOM      4  C   UNL     1      -0.569  13.085  19.744  0.00  0.00    +0.000 C 
ATOM      5  C   UNL     1       0.088  13.978  20.824  0.00  0.00    +0.000 C 
ATOM      6  N   UNL     1       1.471  14.337  20.473  0.00  0.00    +0.000 N 
ATOM      7  C   UNL     1       1.949  15.629  20.721  0.00  0.00    +0.000 C 
ATOM      8  O   UNL     1       1.254  16.451  21.317  0.00  0.00    +0.000 OA
ATOM      9  C   UNL     1       2.305  13.190  20.104  0.00  0.00    +0.000 C 
ATOM     10  C   UNL     1       1.662  12.454  18.929  0.00  0.00    +0.000 C 
ENDROOT
BRANCH   1  14
ATOM     11  C   UNL     1       2.586   7.431  18.787  0.00  0.00    +0.000 A 
ATOM     12  C   UNL     1       2.020   7.726  20.030  0.00  0.00    +0.000 A 
ATOM     13  C   UNL     1       1.107   8.782  20.152  0.00  0.00    +0.000 A 
ATOM     14  C   UNL     1       0.777   9.557  19.033  0.00  0.00    +0.000 A 
ATOM     15  C   UNL     1       1.414   9.295  17.812  0.00  0.00    +0.000 A 
ATOM     16  C   UNL     1       2.269   8.208  17.676  0.00  0.00    +0.000 A 
BRANCH  11  18
ATOM     17  C   UNL     1       4.365   5.538  18.411  0.00  0.00    +0.000 C 
ATOM     18  C   UNL     1       3.536   6.384  18.628  0.00  0.00    +0.000 C 
BRANCH  17  20
ATOM     19  C   UNL     1       6.792   5.135  18.258  0.00  0.00    +0.000 C 
ATOM     20  C   UNL     1       5.393   4.531  18.126  0.00  0.00    +0.000 C 
ATOM     21  C   UNL     1       5.171   3.955  16.730  0.00  0.00    +0.000 C 
BRANCH  20  22
ATOM     22  O   UNL     1       5.269   3.479  19.081  0.00  0.00    +0.000 OA
ATOM     23  H   UNL     1       5.977   2.837  18.907  0.00  0.00    +0.000 HD
ENDBRANCH  20  22
ENDBRANCH  17  20
ENDBRANCH  11  18
ENDBRANCH   1  14
BRANCH   7  24
ATOM     24  C   UNL     1       3.289  15.963  20.266  0.00  0.00    +0.000 A 
ATOM     25  C   UNL     1       4.474  16.120  20.969  0.00  0.00    +0.000 A 
ATOM     26  C   UNL     1       5.483  16.407  20.017  0.00  0.00    +0.000 A 
ATOM     27  C   UNL     1       4.856  16.449  18.796  0.00  0.00    +0.000 A 
ATOM     28  O   UNL     1       3.527  16.230  18.943  0.00  0.00    +0.000 OA
ENDBRANCH   7  24
TORSDOF 5
ENDMDL
MODEL 6
REMARK VINA RESULT:      -6.6      4.549      7.779
REMARK  Name = 
REMARK  7 active torsions:
REMARK  status: ('A' for Active; 'I' for Inactive)
REMARK    1  A    between atoms: C_1  and  C_2
REMARK    2  A    between atoms: C_2  and  C_3
REMARK    3  A    between atoms: C_2  and  O_4
REMARK    4  A    between atoms: C_2  and  C_5
REMARK    5  A    between atoms: C_6  and  C_7
REMARK    6  A    between atoms: C_10  and  C_11
REMARK    7  A    between atoms: C_17  and  C_19
REMARK                            x       y       z     vdW  Elec       q    Type
REMARK                         _______ _______ _______ _____ _____    ______ ____
ROOT
ATOM      1  C   UNL     1       3.465  16.128  19.289  0.00  0.00    +0.000 C 
ATOM      2  O   UNL     1       3.197  17.311  19.096  0.00  0.00    +0.000 OA
ATOM      3  N   UNL     1       2.520  15.208  19.740  0.00  0.00    +0.000 N 
ATOM      4  C   UNL     1       1.096  15.578  19.787  0.00  0.00    +0.000 C 
ATOM      5  C   UNL     1       0.196  14.444  19.239  0.00  0.00    +0.000 C 
ATOM      6  N   UNL     1       0.570  13.131  19.790  0.00  0.00    +0.000 N 
ATOM      7  C   UNL     1      -0.420  12.211  20.154  0.00  0.00    +0.000 C 
ATOM      8  O   UNL     1      -1.607  12.447  19.934  0.00  0.00    +0.000 OA
ATOM      9  C   UNL     1       1.999  12.826  19.674  0.00  0.00    +0.000 C 
ATOM     10  C   UNL     1       2.809  13.916  20.376  0.00  0.00    +0.000 C 
ENDROOT
BRANCH   1  14
ATOM     11  C   UNL     1       7.439  14.759  18.402  0.00  0.00    +0.000 A 
ATOM     12  C   UNL     1       6.374  14.404  17.569  0.00  0.00    +0.000 A 
ATOM     13  C   UNL     1       5.081  14.865  17.851  0.00  0.00    +0.000 A 
ATOM     14  C   UNL     1       4.852  15.665  18.978  0.00  0.00    +0.000 A 
ATOM     15  C   UNL     1       5.918  15.946  19.842  0.00  0.00    +0.000 A 
ATOM     16  C   UNL     1       7.211  15.544  19.529  0.00  0.00    +0.000 A 
BRANCH  11  18
ATOM     17  C   UNL     1       9.868  13.916  17.871  0.00  0.00    +0.000 C 
ATOM     18  C   UNL     1       8.762  14.290  18.164  0.00  0.00    +0.000 C 
BRANCH  17  20
ATOM     19  C   UNL     1      11.413  11.997  17.783  0.00  0.00    +0.000 C 
ATOM     20  C   UNL     1      11.216  13.484  17.486  0.00  0.00    +0.000 C 
ATOM     21  C   UNL     1      12.253  14.334  18.217  0.00  0.00    +0.000 C 
BRANCH  20  22
ATOM     22  O   UNL     1      11.369  13.684  16.082  0.00  0.00    +0.000 OA
ATOM     23  H   UNL     1      12.245  14.075  15.933  0.00  0.00    +0.000 HD
ENDBRANCH  20  22
ENDBRANCH  17  20
ENDBRANCH  11  18
ENDBRANCH   1  14
BRANCH   7  24
ATOM     24  C   UNL     1      -0.001  10.969  20.786  0.00  0.00    +0.000 A 
ATOM     25  C   UNL     1       0.118   9.686  20.274  0.00  0.00    +0.000 A 
ATOM     26  C   UNL     1       0.604   8.867  21.323  0.00  0.00    +0.000 A 
ATOM     27  C   UNL     1       0.717   9.682  22.422  0.00  0.00    +0.000 A 
ATOM     28  O   UNL     1       0.309  10.939  22.120  0.00  0.00    +0.000 OA
ENDBRANCH   7  24
TORSDOF 5
ENDMDL
MODEL 7
REMARK VINA RESULT:      -6.6      4.546      7.674
REMARK  Name = 
REMARK  7 active torsions:
REMARK  status: ('A' for Active; 'I' for Inactive)
REMARK    1  A    between atoms: C_1  and  C_2
REMARK    2  A    between atoms: C_2  and  C_3
REMARK    3  A    between atoms: C_2  and  O_4
REMARK    4  A    between atoms: C_2  and  C_5
REMARK    5  A    between atoms: C_6  and  C_7
REMARK    6  A    between atoms: C_10  and  C_11
REMARK    7  A    between atoms: C_17  and  C_19
REMARK                            x       y       z     vdW  Elec       q    Type
REMARK                         _______ _______ _______ _____ _____    ______ ____
ROOT
ATOM      1  C   UNL     1       3.593  15.968  19.262  0.00  0.00    +0.000 C 
ATOM      2  O   UNL     1       3.406  17.155  19.001  0.00  0.00    +0.000 OA
ATOM      3  N   UNL     1       2.573  15.129  19.707  0.00  0.00    +0.000 N 
ATOM      4  C   UNL     1       1.174  15.584  19.668  0.00  0.00    +0.000 C 
ATOM      5  C   UNL     1       0.233  14.479  19.130  0.00  0.00    +0.000 C 
ATOM      6  N   UNL     1       0.500  13.175  19.759  0.00  0.00    +0.000 N 
ATOM      7  C   UNL     1      -0.560  12.333  20.116  0.00  0.00    +0.000 C 
ATOM      8  O   UNL     1      -1.719  12.628  19.827  0.00  0.00    +0.000 OA
ATOM      9  C   UNL     1       1.911  12.781  19.727  0.00  0.00    +0.000 C 
ATOM     10  C   UNL     1       2.753  13.855  20.417  0.00  0.00    +0.000 C 
ENDROOT
BRANCH   1  14
ATOM     11  C   UNL     1       7.540  14.400  18.624  0.00  0.00    +0.000 A 
ATOM     12  C   UNL     1       7.235  15.063  19.815  0.00  0.00    +0.000 A 
ATOM     13  C   UNL     1       5.941  15.559  20.029  0.00  0.00    +0.000 A 
ATOM     14  C   UNL     1       4.961  15.410  19.040  0.00  0.00    +0.000 A 
ATOM     15  C   UNL     1       5.307  14.810  17.822  0.00  0.00    +0.000 A 
ATOM     16  C   UNL     1       6.570  14.261  17.635  0.00  0.00    +0.000 A 
BRANCH  11  18
ATOM     17  C   UNL     1       9.963  13.469  18.229  0.00  0.00    +0.000 C 
ATOM     18  C   UNL     1       8.848  13.904  18.359  0.00  0.00    +0.000 C 
BRANCH  17  20
ATOM     19  C   UNL     1      11.435  11.592  18.850  0.00  0.00    +0.000 C 
ATOM     20  C   UNL     1      11.317  12.919  18.100  0.00  0.00    +0.000 C 
ATOM     21  C   UNL     1      12.333  13.935  18.616  0.00  0.00    +0.000 C 
BRANCH  20  22
ATOM     22  O   UNL     1      11.574  12.675  16.718  0.00  0.00    +0.000 OA
ATOM     23  H   UNL     1      12.409  12.184  16.655  0.00  0.00    +0.000 HD
ENDBRANCH  20  22
ENDBRANCH  17  20
ENDBRANCH  11  18
ENDBRANCH   1  14
BRANCH   7  24
ATOM     24  C   UNL     1      -0.248  11.102  20.824  0.00  0.00    +0.000 A 
ATOM     25  C   UNL     1      -0.169   9.792  20.376  0.00  0.00    +0.000 A 
ATOM     26  C   UNL     1       0.210   8.998  21.486  0.00  0.00    +0.000 A 
ATOM     27  C   UNL     1       0.302   9.856  22.555  0.00  0.00    +0.000 A 
ATOM     28  O   UNL     1      -0.019  11.116  22.175  0.00  0.00    +0.000 OA
ENDBRANCH   7  24
TORSDOF 5
ENDMDL
MODEL 8
REMARK VINA RESULT:      -6.6      4.880      6.690
REMARK  Name = 
REMARK  7 active torsions:
REMARK  status: ('A' for Active; 'I' for Inactive)
REMARK    1  A    between atoms: C_1  and  C_2
REMARK    2  A    between atoms: C_2  and  C_3
REMARK    3  A    between atoms: C_2  and  O_4
REMARK    4  A    between atoms: C_2  and  C_5
REMARK    5  A    between atoms: C_6  and  C_7
REMARK    6  A    between atoms: C_10  and  C_11
REMARK    7  A    between atoms: C_17  and  C_19
REMARK                            x       y       z     vdW  Elec       q    Type
REMARK                         _______ _______ _______ _____ _____    ______ ____
ROOT
ATOM      1  C   UNL     1       0.243   9.805  20.164  0.00  0.00    +0.000 C 
ATOM      2  O   UNL     1      -0.654   9.281  20.821  0.00  0.00    +0.000 OA
ATOM      3  N   UNL     1       0.395  11.187  20.068  0.00  0.00    +0.000 N 
ATOM      4  C   UNL     1      -0.388  12.076  20.941  0.00  0.00    +0.000 C 
ATOM      5  C   UNL     1       0.486  13.213  21.525  0.00  0.00    +0.000 C 
ATOM      6  N   UNL     1       1.323  13.846  20.494  0.00  0.00    +0.000 N 
ATOM      7  C   UNL     1       1.508  15.234  20.489  0.00  0.00    +0.000 C 
ATOM      8  O   UNL     1       1.052  15.930  21.396  0.00  0.00    +0.000 OA
ATOM      9  C   UNL     1       2.096  12.894  19.690  0.00  0.00    +0.000 C 
ATOM     10  C   UNL     1       1.142  11.902  19.025  0.00  0.00    +0.000 C 
ENDROOT
BRANCH   1  14
ATOM     11  C   UNL     1       3.105   7.240  18.245  0.00  0.00    +0.000 A 
ATOM     12  C   UNL     1       2.704   6.982  19.558  0.00  0.00    +0.000 A 
ATOM     13  C   UNL     1       1.758   7.810  20.177  0.00  0.00    +0.000 A 
ATOM     14  C   UNL     1       1.229   8.908  19.487  0.00  0.00    +0.000 A 
ATOM     15  C   UNL     1       1.701   9.195  18.199  0.00  0.00    +0.000 A 
ATOM     16  C   UNL     1       2.590   8.338  17.562  0.00  0.00    +0.000 A 
BRANCH  11  18
ATOM     17  C   UNL     1       4.971   5.830  17.052  0.00  0.00    +0.000 C 
ATOM     18  C   UNL     1       4.083   6.438  17.591  0.00  0.00    +0.000 C 
BRANCH  17  20
ATOM     19  C   UNL     1       5.565   3.873  15.675  0.00  0.00    +0.000 C 
ATOM     20  C   UNL     1       6.079   5.109  16.415  0.00  0.00    +0.000 C 
ATOM     21  C   UNL     1       7.114   4.729  17.470  0.00  0.00    +0.000 C 
BRANCH  20  22
ATOM     22  O   UNL     1       6.692   5.977  15.463  0.00  0.00    +0.000 OA
ATOM     23  H   UNL     1       5.985   6.388  14.939  0.00  0.00    +0.000 HD
ENDBRANCH  20  22
ENDBRANCH  17  20
ENDBRANCH  11  18
ENDBRANCH   1  14
BRANCH   7  24
ATOM     24  C   UNL     1       2.262  15.821  19.393  0.00  0.00    +0.000 A 
ATOM     25  C   UNL     1       1.843  16.330  18.173  0.00  0.00    +0.000 A 
ATOM     26  C   UNL     1       2.998  16.809  17.507  0.00  0.00    +0.000 A 
ATOM     27  C   UNL     1       4.058  16.532  18.335  0.00  0.00    +0.000 A 
ATOM     28  O   UNL     1       3.629  15.894  19.451  0.00  0.00    +0.000 OA
ENDBRANCH   7  24
TORSDOF 5
ENDMDL
MODEL 9
REMARK VINA RESULT:      -6.6      2.927      3.335
REMARK  Name = 
REMARK  7 active torsions:
REMARK  status: ('A' for Active; 'I' for Inactive)
REMARK    1  A    between atoms: C_1  and  C_2
REMARK    2  A    between atoms: C_2  and  C_3
REMARK    3  A    between atoms: C_2  and  O_4
REMARK    4  A    between atoms: C_2  and  C_5
REMARK    5  A    between atoms: C_6  and  C_7
REMARK    6  A    between atoms: C_10  and  C_11
REMARK    7  A    between atoms: C_17  and  C_19
REMARK                            x       y       z     vdW  Elec       q    Type
REMARK                         _______ _______ _______ _____ _____    ______ ____
ROOT
ATOM      1  C   UNL     1      10.063  13.749  19.549  0.00  0.00    +0.000 C 
ATOM      2  O   UNL     1      10.845  14.360  18.824  0.00  0.00    +0.000 OA
ATOM      3  N   UNL     1       9.589  14.274  20.750  0.00  0.00    +0.000 N 
ATOM      4  C   UNL     1       9.836  15.685  21.087  0.00  0.00    +0.000 C 
ATOM      5  C   UNL     1       8.569  16.362  21.662  0.00  0.00    +0.000 C 
ATOM      6  N   UNL     1       7.918  15.529  22.686  0.00  0.00    +0.000 N 
ATOM      7  C   UNL     1       7.386  16.117  23.841  0.00  0.00    +0.000 C 
ATOM      8  O   UNL     1       7.372  17.340  23.972  0.00  0.00    +0.000 OA
ATOM      9  C   UNL     1       7.677  14.147  22.260  0.00  0.00    +0.000 C 
ATOM     10  C   UNL     1       9.003  13.504  21.856  0.00  0.00    +0.000 C 
ENDROOT
BRANCH   1  14
ATOM     11  C   UNL     1       8.624   9.924  18.227  0.00  0.00    +0.000 A 
ATOM     12  C   UNL     1       8.248  11.087  17.548  0.00  0.00    +0.000 A 
ATOM     13  C   UNL     1       8.732  12.332  17.971  0.00  0.00    +0.000 A 
ATOM     14  C   UNL     1       9.575  12.415  19.086  0.00  0.00    +0.000 A 
ATOM     15  C   UNL     1       9.879  11.248  19.799  0.00  0.00    +0.000 A 
ATOM     16  C   UNL     1       9.452  10.006  19.343  0.00  0.00    +0.000 A 
BRANCH  11  18
ATOM     17  C   UNL     1       7.633   7.589  17.553  0.00  0.00    +0.000 C 
ATOM     18  C   UNL     1       8.133   8.644  17.845  0.00  0.00    +0.000 C 
BRANCH  17  20
ATOM     19  C   UNL     1       5.478   6.498  17.060  0.00  0.00    +0.000 C 
ATOM     20  C   UNL     1       6.990   6.320  17.193  0.00  0.00    +0.000 C 
ATOM     21  C   UNL     1       7.331   5.261  18.238  0.00  0.00    +0.000 C 
BRANCH  20  22
ATOM     22  O   UNL     1       7.503   5.899  15.930  0.00  0.00    +0.000 OA
ATOM     23  H   UNL     1       8.141   6.567  15.632  0.00  0.00    +0.000 HD
ENDBRANCH  20  22
ENDBRANCH  17  20
ENDBRANCH  11  18
ENDBRANCH   1  14
BRANCH   7  24
ATOM     24  C   UNL     1       6.843  15.241  24.867  0.00  0.00    +0.000 A 
ATOM     25  C   UNL     1       5.532  14.918  25.183  0.00  0.00    +0.000 A 
ATOM     26  C   UNL     1       5.583  13.986  26.249  0.00  0.00    +0.000 A 
ATOM     27  C   UNL     1       6.913  13.823  26.550  0.00  0.00    +0.000 A 
ATOM     28  O   UNL     1       7.675  14.610  25.754  0.00  0.00    +0.000 OA
ENDBRANCH   7  24
TORSDOF 5
ENDMDL
