MODEL 1
REMARK VINA RESULT:      -9.0      0.000      0.000
REMARK  Name = 
REMARK  8 active torsions:
REMARK  status: ('A' for Active; 'I' for Inactive)
REMARK    1  A    between atoms: C_1  and  O_2
REMARK    2  A    between atoms: O_2  and  C_3
REMARK    3  A    between atoms: C_7  and  C_8
REMARK    4  A    between atoms: N_10  and  C_11
REMARK    5  A    between atoms: C_15  and  C_16
REMARK    6  A    between atoms: C_16  and  C_18
REMARK    7  A    between atoms: C_22  and  C_23
REMARK    8  A    between atoms: C_24  and  C_25
REMARK                            x       y       z     vdW  Elec       q    Type
REMARK                         _______ _______ _______ _____ _____    ______ ____
ROOT
ATOM      1  C   UNL     1       3.193   5.929  18.553  0.00  0.00    +0.000 C 
ATOM      2  O   UNL     1       2.797   4.826  18.924  0.00  0.00    +0.000 OA
ENDROOT
BRANCH   1   3
ATOM      3  C   UNL     1       2.391   7.125  18.916  0.00  0.00    +0.000 A 
ATOM      4  C   UNL     1       1.908   7.191  20.228  0.00  0.00    +0.000 A 
ATOM      5  C   UNL     1       1.197   8.307  20.679  0.00  0.00    +0.000 A 
ATOM      6  C   UNL     1       0.969   9.373  19.790  0.00  0.00    +0.000 A 
ATOM      7  C   UNL     1       0.405  10.682  19.878  0.00  0.00    +0.000 A 
ATOM      8  N   UNL     1       0.412  11.291  18.684  0.00  0.00    +0.000 NA
ATOM      9  N   UNL     1       0.999  10.411  17.863  0.00  0.00    +0.000 N 
ATOM     10  C   UNL     1       1.397   9.254  18.473  0.00  0.00    +0.000 A 
ATOM     11  C   UNL     1       2.099   8.139  17.989  0.00  0.00    +0.000 A 
ATOM     12  H   UNL     1       1.132  10.680  16.894  0.00  0.00    +0.000 HD
BRANCH   7  13
ATOM     13  C   UNL     1      -0.001  11.316  21.104  0.00  0.00    +0.000 C 
ATOM     14  C   UNL     1      -1.235  11.801  21.308  0.00  0.00    +0.000 C 
BRANCH  14  15
ATOM     15  C   UNL     1      -1.679  12.660  22.418  0.00  0.00    +0.000 A 
ATOM     16  C   UNL     1      -2.972  12.436  22.912  0.00  0.00    +0.000 A 
ATOM     17  C   UNL     1      -3.505  13.227  23.929  0.00  0.00    +0.000 A 
ATOM     18  C   UNL     1      -2.742  14.253  24.478  0.00  0.00    +0.000 A 
ATOM     19  C   UNL     1      -1.447  14.478  24.014  0.00  0.00    +0.000 A 
ATOM     20  C   UNL     1      -0.913  13.682  22.990  0.00  0.00    +0.000 A 
ENDBRANCH  14  15
ENDBRANCH   7  13
ENDBRANCH   1   3
BRANCH   1  25
ATOM     21  C   UNL     1       6.507   7.134  17.112  0.00  0.00    +0.000 A 
ATOM     22  C   UNL     1       6.769   6.080  16.228  0.00  0.00    +0.000 A 
ATOM     23  C   UNL     1       5.901   4.996  16.128  0.00  0.00    +0.000 A 
ATOM     24  C   UNL     1       4.744   4.967  16.896  0.00  0.00    +0.000 A 
ATOM     25  C   UNL     1       4.460   6.015  17.781  0.00  0.00    +0.000 A 
ATOM     26  C   UNL     1       5.372   7.073  17.928  0.00  0.00    +0.000 A 
BRANCH  21  29
ATOM     27  C   UNL     1       8.304   8.444  18.206  0.00  0.00    +0.000 C 
ATOM     28  O   UNL     1       8.626   7.599  19.036  0.00  0.00    +0.000 OA
ATOM     29  N   UNL     1       7.350   8.261  17.217  0.00  0.00    +0.000 N 
ATOM     30  H   UNL     1       7.358   8.911  16.440  0.00  0.00    +0.000 HD
BRANCH  27  35
ATOM     31  C   UNL     1      10.207  11.512  19.597  0.00  0.00    +0.000 C 
ATOM     32  C   UNL     1       9.225  12.587  19.118  0.00  0.00    +0.000 C 
ATOM     33  C   UNL     1       8.688  12.284  17.719  0.00  0.00    +0.000 C 
ATOM     34  C   UNL     1       8.061  10.893  17.634  0.00  0.00    +0.000 C 
ATOM     35  C   UNL     1       9.006   9.799  18.150  0.00  0.00    +0.000 C 
ATOM     36  C   UNL     1       9.518  10.150  19.558  0.00  0.00    +0.000 C 
BRANCH  31  38
ATOM     37  C   UNL     1      12.121  12.742  18.853  0.00  0.00    +0.000 C 
ATOM     38  O   UNL     1      11.353  11.550  18.737  0.00  0.00    +0.000 OA
ENDBRANCH  31  38
ENDBRANCH  27  35
ENDBRANCH  21  29
ENDBRANCH   1  25
TORSDOF 7
ENDMDL
MODEL 2
REMARK VINA RESULT:      -8.7      1.456      1.730
REMARK  Name = 
REMARK  8 active torsions:
REMARK  status: ('A' for Active; 'I' for Inactive)
REMARK    1  A    between atoms: C_1  and  O_2
REMARK    2  A    between atoms: O_2  and  C_3
REMARK    3  A    between atoms: C_7  and  C_8
REMARK    4  A    between atoms: N_10  and  C_11
REMARK    5  A    between atoms: C_15  and  C_16
REMARK    6  A    between atoms: C_16  and  C_18
REMARK    7  A    between atoms: C_22  and  C_23
REMARK    8  A    between atoms: C_24  and  C_25
REMARK                            x       y       z     vdW  Elec       q    Type
REMARK                         _______ _______ _______ _____ _____    ______ ____
ROOT
ATOM      1  C   UNL     1       2.809   6.097  17.957  0.00  0.00    +0.000 C 
ATOM      2  O   UNL     1       2.072   5.134  17.752  0.00  0.00    +0.000 OA
ENDROOT
BRANCH   1   3
ATOM      3  C   UNL     1       2.272   7.243  18.733  0.00  0.00    +0.000 A 
ATOM      4  C   UNL     1       1.828   8.351  18.003  0.00  0.00    +0.000 A 
ATOM      5  C   UNL     1       1.249   9.452  18.643  0.00  0.00    +0.000 A 
ATOM      6  C   UNL     1       1.117   9.432  20.043  0.00  0.00    +0.000 A 
ATOM      7  C   UNL     1       0.512  10.268  21.030  0.00  0.00    +0.000 A 
ATOM      8  N   UNL     1       0.710   9.779  22.263  0.00  0.00    +0.000 NA
ATOM      9  N   UNL     1       1.387   8.641  22.066  0.00  0.00    +0.000 N 
ATOM     10  C   UNL     1       1.628   8.351  20.752  0.00  0.00    +0.000 A 
ATOM     11  C   UNL     1       2.228   7.241  20.137  0.00  0.00    +0.000 A 
ATOM     12  H   UNL     1       1.626   8.083  22.879  0.00  0.00    +0.000 HD
BRANCH   7  13
ATOM     13  C   UNL     1      -0.307  11.414  20.739  0.00  0.00    +0.000 C 
ATOM     14  C   UNL     1      -0.999  12.081  21.675  0.00  0.00    +0.000 C 
BRANCH  14  15
ATOM     15  C   UNL     1      -2.032  13.105  21.454  0.00  0.00    +0.000 A 
ATOM     16  C   UNL     1      -3.364  12.711  21.649  0.00  0.00    +0.000 A 
ATOM     17  C   UNL     1      -4.420  13.593  21.419  0.00  0.00    +0.000 A 
ATOM     18  C   UNL     1      -4.156  14.892  20.998  0.00  0.00    +0.000 A 
ATOM     19  C   UNL     1      -2.838  15.308  20.819  0.00  0.00    +0.000 A 
ATOM     20  C   UNL     1      -1.777  14.421  21.049  0.00  0.00    +0.000 A 
ENDBRANCH  14  15
ENDBRANCH   7  13
ENDBRANCH   1   3
BRANCH   1  25
ATOM     21  C   UNL     1       6.385   7.041  17.046  0.00  0.00    +0.000 A 
ATOM     22  C   UNL     1       6.762   5.877  16.366  0.00  0.00    +0.000 A 
ATOM     23  C   UNL     1       5.883   4.806  16.234  0.00  0.00    +0.000 A 
ATOM     24  C   UNL     1       4.602   4.899  16.762  0.00  0.00    +0.000 A 
ATOM     25  C   UNL     1       4.202   6.058  17.439  0.00  0.00    +0.000 A 
ATOM     26  C   UNL     1       5.114   7.108  17.628  0.00  0.00    +0.000 A 
BRANCH  21  29
ATOM     27  C   UNL     1       8.200   8.308  18.161  0.00  0.00    +0.000 C 
ATOM     28  O   UNL     1       8.513   7.443  18.974  0.00  0.00    +0.000 OA
ATOM     29  N   UNL     1       7.241   8.157  17.172  0.00  0.00    +0.000 N 
ATOM     30  H   UNL     1       7.254   8.822  16.408  0.00  0.00    +0.000 HD
BRANCH  27  35
ATOM     31  C   UNL     1      10.087  11.353  19.621  0.00  0.00    +0.000 C 
ATOM     32  C   UNL     1       9.132  12.440  19.112  0.00  0.00    +0.000 C 
ATOM     33  C   UNL     1       8.639  12.144  17.695  0.00  0.00    +0.000 C 
ATOM     34  C   UNL     1       8.001  10.760  17.587  0.00  0.00    +0.000 C 
ATOM     35  C   UNL     1       8.917   9.656  18.132  0.00  0.00    +0.000 C 
ATOM     36  C   UNL     1       9.385   9.999  19.557  0.00  0.00    +0.000 C 
BRANCH  31  38
ATOM     37  C   UNL     1      12.011  12.584  18.909  0.00  0.00    +0.000 C 
ATOM     38  O   UNL     1      11.260  11.381  18.800  0.00  0.00    +0.000 OA
ENDBRANCH  31  38
ENDBRANCH  27  35
ENDBRANCH  21  29
ENDBRANCH   1  25
TORSDOF 7
ENDMDL
MODEL 3
REMARK VINA RESULT:      -8.7      1.944      2.379
REMARK  Name = 
REMARK  8 active torsions:
REMARK  status: ('A' for Active; 'I' for Inactive)
REMARK    1  A    between atoms: C_1  and  O_2
REMARK    2  A    between atoms: O_2  and  C_3
REMARK    3  A    between atoms: C_7  and  C_8
REMARK    4  A    between atoms: N_10  and  C_11
REMARK    5  A    between atoms: C_15  and  C_16
REMARK    6  A    between atoms: C_16  and  C_18
REMARK    7  A    between atoms: C_22  and  C_23
REMARK    8  A    between atoms: C_24  and  C_25
REMARK                            x       y       z     vdW  Elec       q    Type
REMARK                         _______ _______ _______ _____ _____    ______ ____
ROOT
ATOM      1  C   UNL     1       2.704   6.173  18.033  0.00  0.00    +0.000 C 
ATOM      2  O   UNL     1       1.974   5.191  17.911  0.00  0.00    +0.000 OA
ENDROOT
BRANCH   1   3
ATOM      3  C   UNL     1       2.181   7.354  18.764  0.00  0.00    +0.000 A 
ATOM      4  C   UNL     1       1.940   8.510  18.012  0.00  0.00    +0.000 A 
ATOM      5  C   UNL     1       1.388   9.652  18.602  0.00  0.00    +0.000 A 
ATOM      6  C   UNL     1       1.077   9.625  19.973  0.00  0.00    +0.000 A 
ATOM      7  C   UNL     1       0.431  10.502  20.897  0.00  0.00    +0.000 A 
ATOM      8  N   UNL     1       0.422   9.979  22.132  0.00  0.00    +0.000 NA
ATOM      9  N   UNL     1       1.010   8.784  21.993  0.00  0.00    +0.000 N 
ATOM     10  C   UNL     1       1.389   8.491  20.712  0.00  0.00    +0.000 A 
ATOM     11  C   UNL     1       1.958   7.337  20.150  0.00  0.00    +0.000 A 
ATOM     12  H   UNL     1       1.090   8.196  22.815  0.00  0.00    +0.000 HD
BRANCH   7  13
ATOM     13  C   UNL     1      -0.234  11.725  20.534  0.00  0.00    +0.000 C 
ATOM     14  C   UNL     1       0.389  12.752  19.936  0.00  0.00    +0.000 C 
BRANCH  14  15
ATOM     15  C   UNL     1      -0.133  14.113  19.736  0.00  0.00    +0.000 A 
ATOM     16  C   UNL     1      -1.174  14.520  20.582  0.00  0.00    +0.000 A 
ATOM     17  C   UNL     1      -1.772  15.773  20.443  0.00  0.00    +0.000 A 
ATOM     18  C   UNL     1      -1.325  16.645  19.456  0.00  0.00    +0.000 A 
ATOM     19  C   UNL     1      -0.278  16.266  18.618  0.00  0.00    +0.000 A 
ATOM     20  C   UNL     1       0.321  15.006  18.758  0.00  0.00    +0.000 A 
ENDBRANCH  14  15
ENDBRANCH   7  13
ENDBRANCH   1   3
BRANCH   1  25
ATOM     21  C   UNL     1       6.274   7.062  17.043  0.00  0.00    +0.000 A 
ATOM     22  C   UNL     1       6.592   5.926  16.290  0.00  0.00    +0.000 A 
ATOM     23  C   UNL     1       5.676   4.888  16.134  0.00  0.00    +0.000 A 
ATOM     24  C   UNL     1       4.418   4.990  16.713  0.00  0.00    +0.000 A 
ATOM     25  C   UNL     1       4.077   6.122  17.463  0.00  0.00    +0.000 A 
ATOM     26  C   UNL     1       5.027   7.134  17.673  0.00  0.00    +0.000 A 
BRANCH  21  29
ATOM     27  C   UNL     1       8.147   8.228  18.172  0.00  0.00    +0.000 C 
ATOM     28  O   UNL     1       8.448   7.322  18.944  0.00  0.00    +0.000 OA
ATOM     29  N   UNL     1       7.167   8.145  17.195  0.00  0.00    +0.000 N 
ATOM     30  H   UNL     1       7.188   8.839  16.458  0.00  0.00    +0.000 HD
BRANCH  27  35
ATOM     31  C   UNL     1      10.011  11.236  19.734  0.00  0.00    +0.000 C 
ATOM     32  C   UNL     1       9.133  12.343  19.140  0.00  0.00    +0.000 C 
ATOM     33  C   UNL     1       8.741  12.041  17.693  0.00  0.00    +0.000 C 
ATOM     34  C   UNL     1       8.070  10.676  17.553  0.00  0.00    +0.000 C 
ATOM     35  C   UNL     1       8.906   9.552  18.180  0.00  0.00    +0.000 C 
ATOM     36  C   UNL     1       9.275   9.903  19.633  0.00  0.00    +0.000 C 
BRANCH  31  38
ATOM     37  C   UNL     1      12.266  12.024  19.579  0.00  0.00    +0.000 C 
ATOM     38  O   UNL     1      11.245  11.216  19.006  0.00  0.00    +0.000 OA
ENDBRANCH  31  38
ENDBRANCH  27  35
ENDBRANCH  21  29
ENDBRANCH   1  25
TORSDOF 7
ENDMDL
MODEL 4
REMARK VINA RESULT:      -8.6      3.667      6.077
REMARK  Name = 
REMARK  8 active torsions:
REMARK  status: ('A' for Active; 'I' for Inactive)
REMARK    1  A    between atoms: C_1  and  O_2
REMARK    2  A    between atoms: O_2  and  C_3
REMARK    3  A    between atoms: C_7  and  C_8
REMARK    4  A    between atoms: N_10  and  C_11
REMARK    5  A    between atoms: C_15  and  C_16
REMARK    6  A    between atoms: C_16  and  C_18
REMARK    7  A    between atoms: C_22  and  C_23
REMARK    8  A    between atoms: C_24  and  C_25
REMARK                            x       y       z     vdW  Elec       q    Type
REMARK                         _______ _______ _______ _____ _____    ______ ____
ROOT
ATOM      1  C   UNL     1       3.131   5.357  19.396  0.00  0.00    +0.000 C 
ATOM      2  O   UNL     1       2.655   4.354  19.925  0.00  0.00    +0.000 OA
ENDROOT
BRANCH   1   3
ATOM      3  C   UNL     1       2.427   6.651  19.579  0.00  0.00    +0.000 A 
ATOM      4  C   UNL     1       1.776   6.853  20.801  0.00  0.00    +0.000 A 
ATOM      5  C   UNL     1       1.141   8.065  21.089  0.00  0.00    +0.000 A 
ATOM      6  C   UNL     1       1.162   9.089  20.125  0.00  0.00    +0.000 A 
ATOM      7  C   UNL     1       0.745  10.454  20.066  0.00  0.00    +0.000 A 
ATOM      8  N   UNL     1       0.989  10.980  18.857  0.00  0.00    +0.000 NA
ATOM      9  N   UNL     1       1.581   9.992  18.175  0.00  0.00    +0.000 N 
ATOM     10  C   UNL     1       1.755   8.841  18.892  0.00  0.00    +0.000 A 
ATOM     11  C   UNL     1       2.386   7.629  18.571  0.00  0.00    +0.000 A 
ATOM     12  H   UNL     1       1.878  10.182  17.224  0.00  0.00    +0.000 HD
BRANCH   7  13
ATOM     13  C   UNL     1       0.247  11.205  21.187  0.00  0.00    +0.000 C 
ATOM     14  C   UNL     1      -1.046  11.531  21.337  0.00  0.00    +0.000 C 
BRANCH  14  15
ATOM     15  C   UNL     1      -1.615  12.479  22.309  0.00  0.00    +0.000 A 
ATOM     16  C   UNL     1      -0.842  13.607  22.618  0.00  0.00    +0.000 A 
ATOM     17  C   UNL     1      -1.270  14.541  23.563  0.00  0.00    +0.000 A 
ATOM     18  C   UNL     1      -2.489  14.362  24.208  0.00  0.00    +0.000 A 
ATOM     19  C   UNL     1      -3.280  13.256  23.900  0.00  0.00    +0.000 A 
ATOM     20  C   UNL     1      -2.849  12.319  22.951  0.00  0.00    +0.000 A 
ENDBRANCH  14  15
ENDBRANCH   7  13
ENDBRANCH   1   3
BRANCH   1  25
ATOM     21  C   UNL     1       5.645   4.709  16.609  0.00  0.00    +0.000 A 
ATOM     22  C   UNL     1       6.831   4.969  17.305  0.00  0.00    +0.000 A 
ATOM     23  C   UNL     1       6.807   5.371  18.638  0.00  0.00    +0.000 A 
ATOM     24  C   UNL     1       5.591   5.493  19.298  0.00  0.00    +0.000 A 
ATOM     25  C   UNL     1       4.393   5.230  18.621  0.00  0.00    +0.000 A 
ATOM     26  C   UNL     1       4.419   4.891  17.259  0.00  0.00    +0.000 A 
BRANCH  21  29
ATOM     27  C   UNL     1       6.520   4.701  14.290  0.00  0.00    +0.000 C 
ATOM     28  O   UNL     1       7.499   5.414  14.493  0.00  0.00    +0.000 OA
ATOM     29  N   UNL     1       5.635   4.271  15.266  0.00  0.00    +0.000 N 
ATOM     30  H   UNL     1       5.035   3.488  15.035  0.00  0.00    +0.000 HD
BRANCH  27  35
ATOM     31  C   UNL     1       4.502   2.826  11.574  0.00  0.00    +0.000 C 
ATOM     32  C   UNL     1       5.599   1.839  11.158  0.00  0.00    +0.000 C 
ATOM     33  C   UNL     1       6.975   2.506  11.111  0.00  0.00    +0.000 C 
ATOM     34  C   UNL     1       7.325   3.190  12.432  0.00  0.00    +0.000 C 
ATOM     35  C   UNL     1       6.223   4.151  12.896  0.00  0.00    +0.000 C 
ATOM     36  C   UNL     1       4.861   3.435  12.926  0.00  0.00    +0.000 C 
BRANCH  31  38
ATOM     37  C   UNL     1       3.152   3.832   9.873  0.00  0.00    +0.000 C 
ATOM     38  O   UNL     1       4.402   3.826  10.552  0.00  0.00    +0.000 OA
ENDBRANCH  31  38
ENDBRANCH  27  35
ENDBRANCH  21  29
ENDBRANCH   1  25
TORSDOF 7
ENDMDL
MODEL 5
REMARK VINA RESULT:      -8.6      3.780     11.378
REMARK  Name = 
REMARK  8 active torsions:
REMARK  status: ('A' for Active; 'I' for Inactive)
REMARK    1  A    between atoms: C_1  and  O_2
REMARK    2  A    between atoms: O_2  and  C_3
REMARK    3  A    between atoms: C_7  and  C_8
REMARK    4  A    between atoms: N_10  and  C_11
REMARK    5  A    between atoms: C_15  and  C_16
REMARK    6  A    between atoms: C_16  and  C_18
REMARK    7  A    between atoms: C_22  and  C_23
REMARK    8  A    between atoms: C_24  and  C_25
REMARK                            x       y       z     vdW  Elec       q    Type
REMARK                         _______ _______ _______ _____ _____    ______ ____
ROOT
ATOM      1  C   UNL     1       2.321   7.127  19.205  0.00  0.00    +0.000 C 
ATOM      2  O   UNL     1       1.775   6.395  20.029  0.00  0.00    +0.000 OA
ENDROOT
BRANCH   1   3
ATOM      3  C   UNL     1       3.434   6.571  18.396  0.00  0.00    +0.000 A 
ATOM      4  C   UNL     1       3.218   5.329  17.788  0.00  0.00    +0.000 A 
ATOM      5  C   UNL     1       4.185   4.755  16.956  0.00  0.00    +0.000 A 
ATOM      6  C   UNL     1       5.390   5.447  16.737  0.00  0.00    +0.000 A 
ATOM      7  C   UNL     1       6.540   5.269  15.910  0.00  0.00    +0.000 A 
ATOM      8  N   UNL     1       7.438   6.243  16.118  0.00  0.00    +0.000 NA
ATOM      9  N   UNL     1       6.860   7.043  17.023  0.00  0.00    +0.000 N 
ATOM     10  C   UNL     1       5.609   6.645  17.406  0.00  0.00    +0.000 A 
ATOM     11  C   UNL     1       4.663   7.236  18.259  0.00  0.00    +0.000 A 
ATOM     12  H   UNL     1       7.364   7.873  17.315  0.00  0.00    +0.000 HD
BRANCH   7  13
ATOM     13  C   UNL     1       6.670   4.255  14.898  0.00  0.00    +0.000 C 
ATOM     14  C   UNL     1       6.374   4.464  13.606  0.00  0.00    +0.000 C 
BRANCH  14  15
ATOM     15  C   UNL     1       6.251   3.448  12.548  0.00  0.00    +0.000 A 
ATOM     16  C   UNL     1       4.955   3.151  12.104  0.00  0.00    +0.000 A 
ATOM     17  C   UNL     1       4.727   2.169  11.140  0.00  0.00    +0.000 A 
ATOM     18  C   UNL     1       5.801   1.473  10.595  0.00  0.00    +0.000 A 
ATOM     19  C   UNL     1       7.099   1.768  11.010  0.00  0.00    +0.000 A 
ATOM     20  C   UNL     1       7.327   2.754  11.980  0.00  0.00    +0.000 A 
ENDBRANCH  14  15
ENDBRANCH   7  13
ENDBRANCH   1   3
BRANCH   1  25
ATOM     21  C   UNL     1       0.543  10.450  19.762  0.00  0.00    +0.000 A 
ATOM     22  C   UNL     1       0.924  11.112  18.589  0.00  0.00    +0.000 A 
ATOM     23  C   UNL     1       1.759  10.500  17.658  0.00  0.00    +0.000 A 
ATOM     24  C   UNL     1       2.203   9.203  17.881  0.00  0.00    +0.000 A 
ATOM     25  C   UNL     1       1.828   8.520  19.045  0.00  0.00    +0.000 A 
ATOM     26  C   UNL     1       1.041   9.166  20.011  0.00  0.00    +0.000 A 
BRANCH  21  29
ATOM     27  C   UNL     1       0.017  12.067  21.565  0.00  0.00    +0.000 C 
ATOM     28  O   UNL     1       1.070  12.696  21.518  0.00  0.00    +0.000 OA
ATOM     29  N   UNL     1      -0.326  11.030  20.712  0.00  0.00    +0.000 N 
ATOM     30  H   UNL     1      -1.304  10.769  20.669  0.00  0.00    +0.000 HD
BRANCH  27  35
ATOM     31  C   UNL     1      -3.588  12.767  22.781  0.00  0.00    +0.000 C 
ATOM     32  C   UNL     1      -3.343  14.180  23.324  0.00  0.00    +0.000 C 
ATOM     33  C   UNL     1      -1.998  14.286  24.044  0.00  0.00    +0.000 C 
ATOM     34  C   UNL     1      -0.838  13.830  23.161  0.00  0.00    +0.000 C 
ATOM     35  C   UNL     1      -1.076  12.435  22.566  0.00  0.00    +0.000 C 
ATOM     36  C   UNL     1      -2.439  12.380  21.854  0.00  0.00    +0.000 C 
BRANCH  31  38
ATOM     37  C   UNL     1      -4.700  12.240  24.834  0.00  0.00    +0.000 C 
ATOM     38  O   UNL     1      -3.689  11.879  23.901  0.00  0.00    +0.000 OA
ENDBRANCH  31  38
ENDBRANCH  27  35
ENDBRANCH  21  29
ENDBRANCH   1  25
TORSDOF 7
ENDMDL
MODEL 6
REMARK VINA RESULT:      -8.5      4.580      7.093
REMARK  Name = 
REMARK  8 active torsions:
REMARK  status: ('A' for Active; 'I' for Inactive)
REMARK    1  A    between atoms: C_1  and  O_2
REMARK    2  A    between atoms: O_2  and  C_3
REMARK    3  A    between atoms: C_7  and  C_8
REMARK    4  A    between atoms: N_10  and  C_11
REMARK    5  A    between atoms: C_15  and  C_16
REMARK    6  A    between atoms: C_16  and  C_18
REMARK    7  A    between atoms: C_22  and  C_23
REMARK    8  A    between atoms: C_24  and  C_25
REMARK                            x       y       z     vdW  Elec       q    Type
REMARK                         _______ _______ _______ _____ _____    ______ ____
ROOT
ATOM      1  C   UNL     1       3.809   4.991  19.287  0.00  0.00    +0.000 C 
ATOM      2  O   UNL     1       3.476   4.022  19.965  0.00  0.00    +0.000 OA
ENDROOT
BRANCH   1   3
ATOM      3  C   UNL     1       2.985   6.224  19.365  0.00  0.00    +0.000 A 
ATOM      4  C   UNL     1       2.563   6.783  18.153  0.00  0.00    +0.000 A 
ATOM      5  C   UNL     1       1.732   7.907  18.129  0.00  0.00    +0.000 A 
ATOM      6  C   UNL     1       1.322   8.476  19.348  0.00  0.00    +0.000 A 
ATOM      7  C   UNL     1       0.428   9.516  19.747  0.00  0.00    +0.000 A 
ATOM      8  N   UNL     1       0.431   9.668  21.080  0.00  0.00    +0.000 NA
ATOM      9  N   UNL     1       1.272   8.725  21.522  0.00  0.00    +0.000 N 
ATOM     10  C   UNL     1       1.809   7.945  20.536  0.00  0.00    +0.000 A 
ATOM     11  C   UNL     1       2.658   6.828  20.590  0.00  0.00    +0.000 A 
ATOM     12  H   UNL     1       1.409   8.642  22.524  0.00  0.00    +0.000 HD
BRANCH   7  13
ATOM     13  C   UNL     1      -0.453  10.223  18.857  0.00  0.00    +0.000 C 
ATOM     14  C   UNL     1      -1.691   9.802  18.559  0.00  0.00    +0.000 C 
BRANCH  14  15
ATOM     15  C   UNL     1      -2.573  10.316  17.499  0.00  0.00    +0.000 A 
ATOM     16  C   UNL     1      -2.288   9.910  16.188  0.00  0.00    +0.000 A 
ATOM     17  C   UNL     1      -3.034  10.379  15.106  0.00  0.00    +0.000 A 
ATOM     18  C   UNL     1      -4.088  11.260  15.325  0.00  0.00    +0.000 A 
ATOM     19  C   UNL     1      -4.399  11.660  16.623  0.00  0.00    +0.000 A 
ATOM     20  C   UNL     1      -3.648  11.188  17.709  0.00  0.00    +0.000 A 
ENDBRANCH  14  15
ENDBRANCH   7  13
ENDBRANCH   1   3
BRANCH   1  25
ATOM     21  C   UNL     1       6.174   4.388  16.362  0.00  0.00    +0.000 A 
ATOM     22  C   UNL     1       7.392   4.681  16.988  0.00  0.00    +0.000 A 
ATOM     23  C   UNL     1       7.434   5.091  18.319  0.00  0.00    +0.000 A 
ATOM     24  C   UNL     1       6.255   5.187  19.046  0.00  0.00    +0.000 A 
ATOM     25  C   UNL     1       5.027   4.890  18.441  0.00  0.00    +0.000 A 
ATOM     26  C   UNL     1       4.984   4.543  17.081  0.00  0.00    +0.000 A 
BRANCH  21  29
ATOM     27  C   UNL     1       6.649   4.605  13.939  0.00  0.00    +0.000 C 
ATOM     28  O   UNL     1       7.377   5.591  14.014  0.00  0.00    +0.000 OA
ATOM     29  N   UNL     1       6.099   3.942  15.025  0.00  0.00    +0.000 N 
ATOM     30  H   UNL     1       5.744   3.007  14.865  0.00  0.00    +0.000 HD
BRANCH  27  35
ATOM     31  C   UNL     1       4.582   2.565  11.384  0.00  0.00    +0.000 C 
ATOM     32  C   UNL     1       5.666   1.540  11.026  0.00  0.00    +0.000 C 
ATOM     33  C   UNL     1       7.046   2.189  10.918  0.00  0.00    +0.000 C 
ATOM     34  C   UNL     1       7.419   2.961  12.183  0.00  0.00    +0.000 C 
ATOM     35  C   UNL     1       6.331   3.963  12.591  0.00  0.00    +0.000 C 
ATOM     36  C   UNL     1       4.963   3.263  12.686  0.00  0.00    +0.000 C 
BRANCH  31  38
ATOM     37  C   UNL     1       3.146   3.896  10.008  0.00  0.00    +0.000 C 
ATOM     38  O   UNL     1       4.479   3.491  10.296  0.00  0.00    +0.000 OA
ENDBRANCH  31  38
ENDBRANCH  27  35
ENDBRANCH  21  29
ENDBRANCH   1  25
TORSDOF 7
ENDMDL
MODEL 7
REMARK VINA RESULT:      -8.4      4.855      9.765
REMARK  Name = 
REMARK  8 active torsions:
REMARK  status: ('A' for Active; 'I' for Inactive)
REMARK    1  A    between atoms: C_1  and  O_2
REMARK    2  A    between atoms: O_2  and  C_3
REMARK    3  A    between atoms: C_7  and  C_8
REMARK    4  A    between atoms: N_10  and  C_11
REMARK    5  A    between atoms: C_15  and  C_16
REMARK    6  A    between atoms: C_16  and  C_18
REMARK    7  A    between atoms: C_22  and  C_23
REMARK    8  A    between atoms: C_24  and  C_25
REMARK                            x       y       z     vdW  Elec       q    Type
REMARK                         _______ _______ _______ _____ _____    ______ ____
ROOT
ATOM      1  C   UNL     1       1.378   8.480  20.561  0.00  0.00    +0.000 C 
ATOM      2  O   UNL     1       1.526   8.555  21.780  0.00  0.00    +0.000 OA
ENDROOT
BRANCH   1   3
ATOM      3  C   UNL     1       1.870   7.266  19.865  0.00  0.00    +0.000 A 
ATOM      4  C   UNL     1       2.278   7.418  18.534  0.00  0.00    +0.000 A 
ATOM      5  C   UNL     1       2.816   6.345  17.817  0.00  0.00    +0.000 A 
ATOM      6  C   UNL     1       2.941   5.097  18.454  0.00  0.00    +0.000 A 
ATOM      7  C   UNL     1       3.511   3.829  18.126  0.00  0.00    +0.000 A 
ATOM      8  N   UNL     1       3.325   2.946  19.118  0.00  0.00    +0.000 NA
ATOM      9  N   UNL     1       2.689   3.642  20.069  0.00  0.00    +0.000 N 
ATOM     10  C   UNL     1       2.465   4.952  19.752  0.00  0.00    +0.000 A 
ATOM     11  C   UNL     1       1.907   6.008  20.489  0.00  0.00    +0.000 A 
ATOM     12  H   UNL     1       2.465   3.166  20.936  0.00  0.00    +0.000 HD
BRANCH   7  13
ATOM     13  C   UNL     1       4.291   3.564  16.947  0.00  0.00    +0.000 C 
ATOM     14  C   UNL     1       5.118   4.465  16.394  0.00  0.00    +0.000 C 
BRANCH  14  15
ATOM     15  C   UNL     1       5.773   4.379  15.079  0.00  0.00    +0.000 A 
ATOM     16  C   UNL     1       6.967   5.097  14.920  0.00  0.00    +0.000 A 
ATOM     17  C   UNL     1       7.640   5.120  13.699  0.00  0.00    +0.000 A 
ATOM     18  C   UNL     1       7.131   4.411  12.615  0.00  0.00    +0.000 A 
ATOM     19  C   UNL     1       5.956   3.675  12.760  0.00  0.00    +0.000 A 
ATOM     20  C   UNL     1       5.280   3.654  13.988  0.00  0.00    +0.000 A 
ENDBRANCH  14  15
ENDBRANCH   7  13
ENDBRANCH   1   3
BRANCH   1  25
ATOM     21  C   UNL     1       0.602  11.856  18.976  0.00  0.00    +0.000 A 
ATOM     22  C   UNL     1      -0.715  11.618  18.564  0.00  0.00    +0.000 A 
ATOM     23  C   UNL     1      -1.320  10.382  18.774  0.00  0.00    +0.000 A 
ATOM     24  C   UNL     1      -0.619   9.375  19.424  0.00  0.00    +0.000 A 
ATOM     25  C   UNL     1       0.697   9.595  19.851  0.00  0.00    +0.000 A 
ATOM     26  C   UNL     1       1.325  10.820  19.577  0.00  0.00    +0.000 A 
BRANCH  21  29
ATOM     27  C   UNL     1       1.256  14.117  19.754  0.00  0.00    +0.000 C 
ATOM     28  O   UNL     1       0.841  14.008  20.904  0.00  0.00    +0.000 OA
ATOM     29  N   UNL     1       1.235  13.107  18.805  0.00  0.00    +0.000 N 
ATOM     30  H   UNL     1       1.832  13.220  17.995  0.00  0.00    +0.000 HD
BRANCH  27  35
ATOM     31  C   UNL     1       1.457  17.555  17.993  0.00  0.00    +0.000 C 
ATOM     32  C   UNL     1       2.618  17.225  17.047  0.00  0.00    +0.000 C 
ATOM     33  C   UNL     1       3.691  16.382  17.737  0.00  0.00    +0.000 C 
ATOM     34  C   UNL     1       3.111  15.111  18.357  0.00  0.00    +0.000 C 
ATOM     35  C   UNL     1       1.917  15.407  19.274  0.00  0.00    +0.000 C 
ATOM     36  C   UNL     1       0.868  16.256  18.535  0.00  0.00    +0.000 C 
BRANCH  31  38
ATOM     37  C   UNL     1       1.038  18.630  20.090  0.00  0.00    +0.000 C 
ATOM     38  O   UNL     1       1.970  18.384  19.043  0.00  0.00    +0.000 OA
ENDBRANCH  31  38
ENDBRANCH  27  35
ENDBRANCH  21  29
ENDBRANCH   1  25
TORSDOF 7
ENDMDL
MODEL 8
REMARK VINA RESULT:      -8.4      4.586     11.916
REMARK  Name = 
REMARK  8 active torsions:
REMARK  status: ('A' for Active; 'I' for Inactive)
REMARK    1  A    between atoms: C_1  and  O_2
REMARK    2  A    between atoms: O_2  and  C_3
REMARK    3  A    between atoms: C_7  and  C_8
REMARK    4  A    between atoms: N_10  and  C_11
REMARK    5  A    between atoms: C_15  and  C_16
REMARK    6  A    between atoms: C_16  and  C_18
REMARK    7  A    between atoms: C_22  and  C_23
REMARK    8  A    between atoms: C_24  and  C_25
REMARK                            x       y       z     vdW  Elec       q    Type
REMARK                         _______ _______ _______ _____ _____    ______ ____
ROOT
ATOM      1  C   UNL     1       0.567  10.655  19.851  0.00  0.00    +0.000 C 
ATOM      2  O   UNL     1       1.261  11.455  20.474  0.00  0.00    +0.000 OA
ENDROOT
BRANCH   1   3
ATOM      3  C   UNL     1       1.125   9.308  19.568  0.00  0.00    +0.000 A 
ATOM      4  C   UNL     1       1.446   9.022  18.236  0.00  0.00    +0.000 A 
ATOM      5  C   UNL     1       2.035   7.803  17.883  0.00  0.00    +0.000 A 
ATOM      6  C   UNL     1       2.302   6.860  18.891  0.00  0.00    +0.000 A 
ATOM      7  C   UNL     1       2.962   5.595  18.966  0.00  0.00    +0.000 A 
ATOM      8  N   UNL     1       2.907   5.096  20.210  0.00  0.00    +0.000 NA
ATOM      9  N   UNL     1       2.265   6.034  20.918  0.00  0.00    +0.000 N 
ATOM     10  C   UNL     1       1.911   7.139  20.195  0.00  0.00    +0.000 A 
ATOM     11  C   UNL     1       1.304   8.346  20.575  0.00  0.00    +0.000 A 
ATOM     12  H   UNL     1       2.130   5.871  21.910  0.00  0.00    +0.000 HD
BRANCH   7  13
ATOM     13  C   UNL     1       3.698   4.993  17.887  0.00  0.00    +0.000 C 
ATOM     14  C   UNL     1       4.854   5.487  17.419  0.00  0.00    +0.000 C 
BRANCH  14  15
ATOM     15  C   UNL     1       5.556   5.088  16.188  0.00  0.00    +0.000 A 
ATOM     16  C   UNL     1       6.863   5.567  16.023  0.00  0.00    +0.000 A 
ATOM     17  C   UNL     1       7.596   5.287  14.870  0.00  0.00    +0.000 A 
ATOM     18  C   UNL     1       7.032   4.509  13.864  0.00  0.00    +0.000 A 
ATOM     19  C   UNL     1       5.741   4.007  14.019  0.00  0.00    +0.000 A 
ATOM     20  C   UNL     1       5.005   4.290  15.178  0.00  0.00    +0.000 A 
ENDBRANCH  14  15
ENDBRANCH   7  13
ENDBRANCH   1   3
BRANCH   1  25
ATOM     21  C   UNL     1      -2.794  12.432  19.620  0.00  0.00    +0.000 A 
ATOM     22  C   UNL     1      -3.379  11.683  18.592  0.00  0.00    +0.000 A 
ATOM     23  C   UNL     1      -2.683  10.646  17.974  0.00  0.00    +0.000 A 
ATOM     24  C   UNL     1      -1.400  10.331  18.399  0.00  0.00    +0.000 A 
ATOM     25  C   UNL     1      -0.800  11.063  19.432  0.00  0.00    +0.000 A 
ATOM     26  C   UNL     1      -1.479  12.151  20.004  0.00  0.00    +0.000 A 
BRANCH  21  29
ATOM     27  C   UNL     1      -4.142  13.329  21.497  0.00  0.00    +0.000 C 
ATOM     28  O   UNL     1      -4.106  12.325  22.203  0.00  0.00    +0.000 OA
ATOM     29  N   UNL     1      -3.482  13.470  20.286  0.00  0.00    +0.000 N 
ATOM     30  H   UNL     1      -3.366  14.411  19.929  0.00  0.00    +0.000 HD
BRANCH  27  35
ATOM     31  C   UNL     1      -6.229  15.548  23.881  0.00  0.00    +0.000 C 
ATOM     32  C   UNL     1      -7.394  15.826  22.923  0.00  0.00    +0.000 C 
ATOM     33  C   UNL     1      -6.908  16.063  21.492  0.00  0.00    +0.000 C 
ATOM     34  C   UNL     1      -6.043  14.911  20.983  0.00  0.00    +0.000 C 
ATOM     35  C   UNL     1      -4.894  14.580  21.944  0.00  0.00    +0.000 C 
ATOM     36  C   UNL     1      -5.433  14.351  23.368  0.00  0.00    +0.000 C 
BRANCH  31  38
ATOM     37  C   UNL     1      -4.432  16.698  24.966  0.00  0.00    +0.000 C 
ATOM     38  O   UNL     1      -5.424  16.731  23.947  0.00  0.00    +0.000 OA
ENDBRANCH  31  38
ENDBRANCH  27  35
ENDBRANCH  21  29
ENDBRANCH   1  25
TORSDOF 7
ENDMDL
MODEL 9
REMARK VINA RESULT:      -8.3      4.734      9.503
REMARK  Name = 
REMARK  8 active torsions:
REMARK  status: ('A' for Active; 'I' for Inactive)
REMARK    1  A    between atoms: C_1  and  O_2
REMARK    2  A    between atoms: O_2  and  C_3
REMARK    3  A    between atoms: C_7  and  C_8
REMARK    4  A    between atoms: N_10  and  C_11
REMARK    5  A    between atoms: C_15  and  C_16
REMARK    6  A    between atoms: C_16  and  C_18
REMARK    7  A    between atoms: C_22  and  C_23
REMARK    8  A    between atoms: C_24  and  C_25
REMARK                            x       y       z     vdW  Elec       q    Type
REMARK                         _______ _______ _______ _____ _____    ______ ____
ROOT
ATOM      1  C   UNL     1       1.359   8.560  20.755  0.00  0.00    +0.000 C 
ATOM      2  O   UNL     1       1.517   8.603  21.973  0.00  0.00    +0.000 OA
ENDROOT
BRANCH   1   3
ATOM      3  C   UNL     1       1.806   7.345  20.028  0.00  0.00    +0.000 A 
ATOM      4  C   UNL     1       2.211   7.514  18.699  0.00  0.00    +0.000 A 
ATOM      5  C   UNL     1       2.708   6.439  17.954  0.00  0.00    +0.000 A 
ATOM      6  C   UNL     1       2.795   5.174  18.563  0.00  0.00    +0.000 A 
ATOM      7  C   UNL     1       3.320   3.895  18.203  0.00  0.00    +0.000 A 
ATOM      8  N   UNL     1       3.110   2.997  19.177  0.00  0.00    +0.000 NA
ATOM      9  N   UNL     1       2.503   3.692  20.147  0.00  0.00    +0.000 N 
ATOM     10  C   UNL     1       2.322   5.017  19.860  0.00  0.00    +0.000 A 
ATOM     11  C   UNL     1       1.804   6.074  20.624  0.00  0.00    +0.000 A 
ATOM     12  H   UNL     1       2.269   3.205  21.005  0.00  0.00    +0.000 HD
BRANCH   7  13
ATOM     13  C   UNL     1       4.084   3.631  17.013  0.00  0.00    +0.000 C 
ATOM     14  C   UNL     1       5.061   4.438  16.572  0.00  0.00    +0.000 C 
BRANCH  14  15
ATOM     15  C   UNL     1       5.734   4.383  15.264  0.00  0.00    +0.000 A 
ATOM     16  C   UNL     1       6.912   5.131  15.129  0.00  0.00    +0.000 A 
ATOM     17  C   UNL     1       7.600   5.185  13.916  0.00  0.00    +0.000 A 
ATOM     18  C   UNL     1       7.121   4.477  12.818  0.00  0.00    +0.000 A 
ATOM     19  C   UNL     1       5.963   3.711  12.940  0.00  0.00    +0.000 A 
ATOM     20  C   UNL     1       5.272   3.659  14.159  0.00  0.00    +0.000 A 
ENDBRANCH  14  15
ENDBRANCH   7  13
ENDBRANCH   1   3
BRANCH   1  25
ATOM     21  C   UNL     1       0.680  11.998  19.261  0.00  0.00    +0.000 A 
ATOM     22  C   UNL     1      -0.641  11.808  18.839  0.00  0.00    +0.000 A 
ATOM     23  C   UNL     1      -1.280  10.583  19.013  0.00  0.00    +0.000 A 
ATOM     24  C   UNL     1      -0.609   9.539  19.637  0.00  0.00    +0.000 A 
ATOM     25  C   UNL     1       0.711   9.712  20.074  0.00  0.00    +0.000 A 
ATOM     26  C   UNL     1       1.373  10.927  19.835  0.00  0.00    +0.000 A 
BRANCH  21  29
ATOM     27  C   UNL     1       1.796  14.009  20.186  0.00  0.00    +0.000 C 
ATOM     28  O   UNL     1       1.787  13.661  21.363  0.00  0.00    +0.000 OA
ATOM     29  N   UNL     1       1.347  13.236  19.127  0.00  0.00    +0.000 N 
ATOM     30  H   UNL     1       1.643  13.507  18.197  0.00  0.00    +0.000 HD
BRANCH  27  35
ATOM     31  C   UNL     1       3.302  16.618  17.759  0.00  0.00    +0.000 C 
ATOM     32  C   UNL     1       4.604  16.875  18.527  0.00  0.00    +0.000 C 
ATOM     33  C   UNL     1       4.371  16.920  20.038  0.00  0.00    +0.000 C 
ATOM     34  C   UNL     1       3.673  15.660  20.549  0.00  0.00    +0.000 C 
ATOM     35  C   UNL     1       2.389  15.352  19.767  0.00  0.00    +0.000 C 
ATOM     36  C   UNL     1       2.675  15.318  18.255  0.00  0.00    +0.000 C 
BRANCH  31  38
ATOM     37  C   UNL     1       1.530  17.981  16.905  0.00  0.00    +0.000 C 
ATOM     38  O   UNL     1       2.437  17.739  17.974  0.00  0.00    +0.000 OA
ENDBRANCH  31  38
ENDBRANCH  27  35
ENDBRANCH  21  29
ENDBRANCH   1  25
TORSDOF 7
ENDMDL
