MODEL 1
REMARK VINA RESULT:      -8.7      0.000      0.000
REMARK  Name = 
REMARK  0 active torsions:
REMARK  status: ('A' for Active; 'I' for Inactive)
REMARK                            x       y       z     vdW  Elec       q    Type
REMARK                         _______ _______ _______ _____ _____    ______ ____
ROOT
ATOM      1  C   UNL     1       0.243   8.884  21.156  0.00  0.00    +0.000 C 
ATOM      2  C   UNL     1      -0.257  10.111  21.365  0.00  0.00    +0.000 C 
ATOM      3  C   UNL     1       0.072  11.288  20.558  0.00  0.00    +0.000 C 
ATOM      4  O   UNL     1      -0.355  11.410  19.193  0.00  0.00    +0.000 OA
ATOM      5  C   UNL     1       1.020  11.063  19.398  0.00  0.00    +0.000 C 
ATOM      6  C   UNL     1       1.465   9.642  19.122  0.00  0.00    +0.000 A 
ATOM      7  C   UNL     1       2.216   9.353  17.972  0.00  0.00    +0.000 A 
ATOM      8  C   UNL     1       2.706   8.070  17.726  0.00  0.00    +0.000 A 
ATOM      9  C   UNL     1       2.489   7.065  18.665  0.00  0.00    +0.000 A 
ATOM     10  C   UNL     1       3.011   5.781  18.453  0.00  0.00    +0.000 A 
ATOM     11  C   UNL     1       2.860   4.807  19.431  0.00  0.00    +0.000 A 
ATOM     12  C   UNL     1       3.468   3.625  19.024  0.00  0.00    +0.000 A 
ATOM     13  C   UNL     1       3.463   2.517  19.861  0.00  0.00    +0.000 A 
ATOM     14  C   UNL     1       2.832   2.670  21.111  0.00  0.00    +0.000 A 
ATOM     15  C   UNL     1       2.216   3.878  21.494  0.00  0.00    +0.000 A 
ATOM     16  C   UNL     1       2.223   4.981  20.619  0.00  0.00    +0.000 A 
ATOM     17  C   UNL     1       1.648   6.244  20.833  0.00  0.00    +0.000 A 
ATOM     18  C   UNL     1       1.753   7.296  19.868  0.00  0.00    +0.000 A 
ATOM     19  C   UNL     1       1.184   8.591  20.045  0.00  0.00    +0.000 A 
ATOM     20  C   UNL     1       4.042   3.855  17.653  0.00  0.00    +0.000 C 
ATOM     21  C   UNL     1       3.778   5.139  17.308  0.00  0.00    +0.000 C 
ENDROOT
TORSDOF 0
ENDMDL
MODEL 2
REMARK VINA RESULT:      -8.6      2.276      6.099
REMARK  Name = 
REMARK  0 active torsions:
REMARK  status: ('A' for Active; 'I' for Inactive)
REMARK                            x       y       z     vdW  Elec       q    Type
REMARK                         _______ _______ _______ _____ _____    ______ ____
ROOT
ATOM      1  C   UNL     1       2.228   4.384  21.247  0.00  0.00    +0.000 C 
ATOM      2  C   UNL     1       2.619   3.102  21.207  0.00  0.00    +0.000 C 
ATOM      3  C   UNL     1       3.178   2.443  20.023  0.00  0.00    +0.000 C 
ATOM      4  O   UNL     1       4.469   2.793  19.504  0.00  0.00    +0.000 OA
ATOM      5  C   UNL     1       3.338   3.305  18.788  0.00  0.00    +0.000 C 
ATOM      6  C   UNL     1       2.998   4.775  18.911  0.00  0.00    +0.000 A 
ATOM      7  C   UNL     1       3.273   5.650  17.847  0.00  0.00    +0.000 A 
ATOM      8  C   UNL     1       2.905   6.994  17.897  0.00  0.00    +0.000 A 
ATOM      9  C   UNL     1       2.205   7.471  19.003  0.00  0.00    +0.000 A 
ATOM     10  C   UNL     1       1.791   8.809  19.050  0.00  0.00    +0.000 A 
ATOM     11  C   UNL     1       1.024   9.255  20.118  0.00  0.00    +0.000 A 
ATOM     12  C   UNL     1       0.710  10.598  19.950  0.00  0.00    +0.000 A 
ATOM     13  C   UNL     1      -0.076  11.251  20.891  0.00  0.00    +0.000 A 
ATOM     14  C   UNL     1      -0.527  10.482  21.983  0.00  0.00    +0.000 A 
ATOM     15  C   UNL     1      -0.185   9.123  22.131  0.00  0.00    +0.000 A 
ATOM     16  C   UNL     1       0.626   8.492  21.170  0.00  0.00    +0.000 A 
ATOM     17  C   UNL     1       1.071   7.160  21.171  0.00  0.00    +0.000 A 
ATOM     18  C   UNL     1       1.872   6.629  20.110  0.00  0.00    +0.000 A 
ATOM     19  C   UNL     1       2.345   5.286  20.072  0.00  0.00    +0.000 A 
ATOM     20  C   UNL     1       1.350  11.062  18.670  0.00  0.00    +0.000 C 
ATOM     21  C   UNL     1       1.991   9.999  18.126  0.00  0.00    +0.000 C 
ENDROOT
TORSDOF 0
ENDMDL
MODEL 3
REMARK VINA RESULT:      -8.4      2.056      6.216
REMARK  Name = 
REMARK  0 active torsions:
REMARK  status: ('A' for Active; 'I' for Inactive)
REMARK                            x       y       z     vdW  Elec       q    Type
REMARK                         _______ _______ _______ _____ _____    ______ ____
ROOT
ATOM      1  C   UNL     1       2.444   5.571  20.551  0.00  0.00    +0.000 C 
ATOM      2  C   UNL     1       3.014   4.430  20.135  0.00  0.00    +0.000 C 
ATOM      3  C   UNL     1       3.486   4.191  18.769  0.00  0.00    +0.000 C 
ATOM      4  O   UNL     1       4.620   4.887  18.229  0.00  0.00    +0.000 OA
ATOM      5  C   UNL     1       3.332   5.340  17.794  0.00  0.00    +0.000 C 
ATOM      6  C   UNL     1       2.796   6.650  18.333  0.00  0.00    +0.000 A 
ATOM      7  C   UNL     1       2.777   7.790  17.515  0.00  0.00    +0.000 A 
ATOM      8  C   UNL     1       2.222   8.992  17.955  0.00  0.00    +0.000 A 
ATOM      9  C   UNL     1       1.628   9.050  19.213  0.00  0.00    +0.000 A 
ATOM     10  C   UNL     1       1.028  10.238  19.652  0.00  0.00    +0.000 A 
ATOM     11  C   UNL     1       0.367  10.265  20.873  0.00  0.00    +0.000 A 
ATOM     12  C   UNL     1      -0.167  11.528  21.098  0.00  0.00    +0.000 A 
ATOM     13  C   UNL     1      -0.897  11.779  22.253  0.00  0.00    +0.000 A 
ATOM     14  C   UNL     1      -1.062  10.699  23.145  0.00  0.00    +0.000 A 
ATOM     15  C   UNL     1      -0.501   9.431  22.895  0.00  0.00    +0.000 A 
ATOM     16  C   UNL     1       0.247   9.210  21.723  0.00  0.00    +0.000 A 
ATOM     17  C   UNL     1       0.884   8.023  21.327  0.00  0.00    +0.000 A 
ATOM     18  C   UNL     1       1.592   7.920  20.088  0.00  0.00    +0.000 A 
ATOM     19  C   UNL     1       2.251   6.736  19.649  0.00  0.00    +0.000 A 
ATOM     20  C   UNL     1       0.201  12.396  19.927  0.00  0.00    +0.000 C 
ATOM     21  C   UNL     1       0.909  11.633  19.058  0.00  0.00    +0.000 C 
ENDROOT
TORSDOF 0
ENDMDL
MODEL 4
REMARK VINA RESULT:      -8.2      3.612      6.259
REMARK  Name = 
REMARK  0 active torsions:
REMARK  status: ('A' for Active; 'I' for Inactive)
REMARK                            x       y       z     vdW  Elec       q    Type
REMARK                         _______ _______ _______ _____ _____    ______ ____
ROOT
ATOM      1  C   UNL     1       5.528   3.429  15.116  0.00  0.00    +0.000 C 
ATOM      2  C   UNL     1       6.403   3.537  14.105  0.00  0.00    +0.000 C 
ATOM      3  C   UNL     1       7.017   4.795  13.671  0.00  0.00    +0.000 C 
ATOM      4  O   UNL     1       7.966   5.493  14.489  0.00  0.00    +0.000 OA
ATOM      5  C   UNL     1       6.639   6.033  14.458  0.00  0.00    +0.000 C 
ATOM      6  C   UNL     1       5.745   5.849  15.666  0.00  0.00    +0.000 A 
ATOM      7  C   UNL     1       5.489   6.934  16.520  0.00  0.00    +0.000 A 
ATOM      8  C   UNL     1       4.611   6.819  17.598  0.00  0.00    +0.000 A 
ATOM      9  C   UNL     1       3.935   5.620  17.804  0.00  0.00    +0.000 A 
ATOM     10  C   UNL     1       3.018   5.501  18.858  0.00  0.00    +0.000 A 
ATOM     11  C   UNL     1       2.288   4.330  19.006  0.00  0.00    +0.000 A 
ATOM     12  C   UNL     1       1.430   4.438  20.094  0.00  0.00    +0.000 A 
ATOM     13  C   UNL     1       0.580   3.388  20.417  0.00  0.00    +0.000 A 
ATOM     14  C   UNL     1       0.638   2.249  19.589  0.00  0.00    +0.000 A 
ATOM     15  C   UNL     1       1.525   2.163  18.497  0.00  0.00    +0.000 A 
ATOM     16  C   UNL     1       2.385   3.238  18.203  0.00  0.00    +0.000 A 
ATOM     17  C   UNL     1       3.335   3.313  17.171  0.00  0.00    +0.000 A 
ATOM     18  C   UNL     1       4.131   4.483  16.958  0.00  0.00    +0.000 A 
ATOM     19  C   UNL     1       5.104   4.601  15.925  0.00  0.00    +0.000 A 
ATOM     20  C   UNL     1       1.642   5.793  20.712  0.00  0.00    +0.000 C 
ATOM     21  C   UNL     1       2.584   6.434  19.976  0.00  0.00    +0.000 C 
ENDROOT
TORSDOF 0
ENDMDL
MODEL 5
REMARK VINA RESULT:      -8.1      0.918      2.883
REMARK  Name = 
REMARK  0 active torsions:
REMARK  status: ('A' for Active; 'I' for Inactive)
REMARK                            x       y       z     vdW  Elec       q    Type
REMARK                         _______ _______ _______ _____ _____    ______ ____
ROOT
ATOM      1  C   UNL     1       2.304   9.393  17.955  0.00  0.00    +0.000 C 
ATOM      2  C   UNL     1       1.941  10.681  17.866  0.00  0.00    +0.000 C 
ATOM      3  C   UNL     1       1.040  11.355  18.804  0.00  0.00    +0.000 C 
ATOM      4  O   UNL     1       1.423  11.618  20.162  0.00  0.00    +0.000 OA
ATOM      5  C   UNL     1       0.525  10.519  19.958  0.00  0.00    +0.000 C 
ATOM      6  C   UNL     1       1.054   9.107  20.091  0.00  0.00    +0.000 A 
ATOM      7  C   UNL     1       0.732   8.341  21.224  0.00  0.00    +0.000 A 
ATOM      8  C   UNL     1       1.140   7.013  21.343  0.00  0.00    +0.000 A 
ATOM      9  C   UNL     1       1.837   6.415  20.296  0.00  0.00    +0.000 A 
ATOM     10  C   UNL     1       2.217   5.069  20.383  0.00  0.00    +0.000 A 
ATOM     11  C   UNL     1       2.839   4.459  19.302  0.00  0.00    +0.000 A 
ATOM     12  C   UNL     1       3.107   3.127  19.596  0.00  0.00    +0.000 A 
ATOM     13  C   UNL     1       3.706   2.311  18.645  0.00  0.00    +0.000 A 
ATOM     14  C   UNL     1       4.005   2.903  17.401  0.00  0.00    +0.000 A 
ATOM     15  C   UNL     1       3.731   4.259  17.134  0.00  0.00    +0.000 A 
ATOM     16  C   UNL     1       3.137   5.066  18.123  0.00  0.00    +0.000 A 
ATOM     17  C   UNL     1       2.812   6.429  18.031  0.00  0.00    +0.000 A 
ATOM     18  C   UNL     1       2.177   7.130  19.105  0.00  0.00    +0.000 A 
ATOM     19  C   UNL     1       1.831   8.511  19.054  0.00  0.00    +0.000 A 
ATOM     20  C   UNL     1       2.631   2.863  20.999  0.00  0.00    +0.000 C 
ATOM     21  C   UNL     1       2.095   4.015  21.472  0.00  0.00    +0.000 C 
ENDROOT
TORSDOF 0
ENDMDL
MODEL 6
REMARK VINA RESULT:      -8.0      2.758      6.673
REMARK  Name = 
REMARK  0 active torsions:
REMARK  status: ('A' for Active; 'I' for Inactive)
REMARK                            x       y       z     vdW  Elec       q    Type
REMARK                         _______ _______ _______ _____ _____    ______ ____
ROOT
ATOM      1  C   UNL     1       4.945   6.442  15.783  0.00  0.00    +0.000 C 
ATOM      2  C   UNL     1       5.848   5.714  15.109  0.00  0.00    +0.000 C 
ATOM      3  C   UNL     1       6.531   4.535  15.649  0.00  0.00    +0.000 C 
ATOM      4  O   UNL     1       5.828   3.312  15.913  0.00  0.00    +0.000 OA
ATOM      5  C   UNL     1       6.145   4.121  17.054  0.00  0.00    +0.000 C 
ATOM      6  C   UNL     1       5.034   4.895  17.733  0.00  0.00    +0.000 A 
ATOM      7  C   UNL     1       4.530   4.459  18.969  0.00  0.00    +0.000 A 
ATOM      8  C   UNL     1       3.561   5.189  19.656  0.00  0.00    +0.000 A 
ATOM      9  C   UNL     1       3.119   6.402  19.133  0.00  0.00    +0.000 A 
ATOM     10  C   UNL     1       2.176   7.168  19.833  0.00  0.00    +0.000 A 
ATOM     11  C   UNL     1       1.802   8.412  19.345  0.00  0.00    +0.000 A 
ATOM     12  C   UNL     1       0.881   9.003  20.201  0.00  0.00    +0.000 A 
ATOM     13  C   UNL     1       0.385  10.270  19.923  0.00  0.00    +0.000 A 
ATOM     14  C   UNL     1       0.872  10.899  18.759  0.00  0.00    +0.000 A 
ATOM     15  C   UNL     1       1.800  10.272  17.904  0.00  0.00    +0.000 A 
ATOM     16  C   UNL     1       2.273   8.981  18.204  0.00  0.00    +0.000 A 
ATOM     17  C   UNL     1       3.180   8.211  17.458  0.00  0.00    +0.000 A 
ATOM     18  C   UNL     1       3.608   6.915  17.891  0.00  0.00    +0.000 A 
ATOM     19  C   UNL     1       4.525   6.101  17.166  0.00  0.00    +0.000 A 
ATOM     20  C   UNL     1       0.624   8.042  21.330  0.00  0.00    +0.000 C 
ATOM     21  C   UNL     1       1.397   6.948  21.120  0.00  0.00    +0.000 C 
ENDROOT
TORSDOF 0
ENDMDL
MODEL 7
REMARK VINA RESULT:      -8.0      2.386      6.690
REMARK  Name = 
REMARK  0 active torsions:
REMARK  status: ('A' for Active; 'I' for Inactive)
REMARK                            x       y       z     vdW  Elec       q    Type
REMARK                         _______ _______ _______ _____ _____    ______ ____
ROOT
ATOM      1  C   UNL     1       3.461   4.800  17.240  0.00  0.00    +0.000 C 
ATOM      2  C   UNL     1       3.993   3.617  16.897  0.00  0.00    +0.000 C 
ATOM      3  C   UNL     1       4.160   2.487  17.816  0.00  0.00    +0.000 C 
ATOM      4  O   UNL     1       3.035   1.765  18.337  0.00  0.00    +0.000 OA
ATOM      5  C   UNL     1       3.663   2.693  19.231  0.00  0.00    +0.000 C 
ATOM      6  C   UNL     1       2.960   3.997  19.545  0.00  0.00    +0.000 A 
ATOM      7  C   UNL     1       2.343   4.179  20.793  0.00  0.00    +0.000 A 
ATOM      8  C   UNL     1       1.753   5.394  21.142  0.00  0.00    +0.000 A 
ATOM      9  C   UNL     1       1.819   6.466  20.256  0.00  0.00    +0.000 A 
ATOM     10  C   UNL     1       1.268   7.705  20.609  0.00  0.00    +0.000 A 
ATOM     11  C   UNL     1       1.410   8.790  19.754  0.00  0.00    +0.000 A 
ATOM     12  C   UNL     1       0.811   9.915  20.308  0.00  0.00    +0.000 A 
ATOM     13  C   UNL     1       0.853  11.129  19.635  0.00  0.00    +0.000 A 
ATOM     14  C   UNL     1       1.532  11.144  18.399  0.00  0.00    +0.000 A 
ATOM     15  C   UNL     1       2.123   9.986  17.857  0.00  0.00    +0.000 A 
ATOM     16  C   UNL     1       2.051   8.766  18.555  0.00  0.00    +0.000 A 
ATOM     17  C   UNL     1       2.567   7.522  18.157  0.00  0.00    +0.000 A 
ATOM     18  C   UNL     1       2.453   6.356  18.978  0.00  0.00    +0.000 A 
ATOM     19  C   UNL     1       2.961   5.077  18.612  0.00  0.00    +0.000 A 
ATOM     20  C   UNL     1       0.212   9.511  21.628  0.00  0.00    +0.000 C 
ATOM     21  C   UNL     1       0.486   8.197  21.816  0.00  0.00    +0.000 C 
ENDROOT
TORSDOF 0
ENDMDL
MODEL 8
REMARK VINA RESULT:      -7.9      1.283      3.272
REMARK  Name = 
REMARK  0 active torsions:
REMARK  status: ('A' for Active; 'I' for Inactive)
REMARK                            x       y       z     vdW  Elec       q    Type
REMARK                         _______ _______ _______ _____ _____    ______ ____
ROOT
ATOM      1  C   UNL     1       1.822  10.203  18.365  0.00  0.00    +0.000 C 
ATOM      2  C   UNL     1       1.025  11.228  18.701  0.00  0.00    +0.000 C 
ATOM      3  C   UNL     1       0.002  11.174  19.748  0.00  0.00    +0.000 C 
ATOM      4  O   UNL     1       0.350  11.066  21.137  0.00  0.00    +0.000 OA
ATOM      5  C   UNL     1      -0.116   9.867  20.504  0.00  0.00    +0.000 C 
ATOM      6  C   UNL     1       0.883   8.776  20.178  0.00  0.00    +0.000 A 
ATOM      7  C   UNL     1       0.919   7.605  20.952  0.00  0.00    +0.000 A 
ATOM      8  C   UNL     1       1.774   6.550  20.634  0.00  0.00    +0.000 A 
ATOM      9  C   UNL     1       2.573   6.636  19.497  0.00  0.00    +0.000 A 
ATOM     10  C   UNL     1       3.406   5.567  19.140  0.00  0.00    +0.000 A 
ATOM     11  C   UNL     1       4.137   5.628  17.961  0.00  0.00    +0.000 A 
ATOM     12  C   UNL     1       4.872   4.461  17.795  0.00  0.00    +0.000 A 
ATOM     13  C   UNL     1       5.662   4.291  16.665  0.00  0.00    +0.000 A 
ATOM     14  C   UNL     1       5.659   5.342  15.726  0.00  0.00    +0.000 A 
ATOM     15  C   UNL     1       4.910   6.519  15.925  0.00  0.00    +0.000 A 
ATOM     16  C   UNL     1       4.131   6.670  17.087  0.00  0.00    +0.000 A 
ATOM     17  C   UNL     1       3.342   7.774  17.449  0.00  0.00    +0.000 A 
ATOM     18  C   UNL     1       2.567   7.790  18.652  0.00  0.00    +0.000 A 
ATOM     19  C   UNL     1       1.756   8.889  19.056  0.00  0.00    +0.000 A 
ATOM     20  C   UNL     1       4.605   3.579  18.984  0.00  0.00    +0.000 C 
ATOM     21  C   UNL     1       3.728   4.230  19.787  0.00  0.00    +0.000 C 
ENDROOT
TORSDOF 0
ENDMDL
MODEL 9
REMARK VINA RESULT:      -7.8      0.896      1.277
REMARK  Name = 
REMARK  0 active torsions:
REMARK  status: ('A' for Active; 'I' for Inactive)
REMARK                            x       y       z     vdW  Elec       q    Type
REMARK                         _______ _______ _______ _____ _____    ______ ____
ROOT
ATOM      1  C   UNL     1       0.108   8.553  21.511  0.00  0.00    +0.000 C 
ATOM      2  C   UNL     1      -0.610   9.549  22.051  0.00  0.00    +0.000 C 
ATOM      3  C   UNL     1      -0.584  10.937  21.582  0.00  0.00    +0.000 C 
ATOM      4  O   UNL     1      -1.129  11.313  20.309  0.00  0.00    +0.000 OA
ATOM      5  C   UNL     1       0.300  11.225  20.387  0.00  0.00    +0.000 C 
ATOM      6  C   UNL     1       0.998  10.052  19.732  0.00  0.00    +0.000 A 
ATOM      7  C   UNL     1       1.704  10.236  18.532  0.00  0.00    +0.000 A 
ATOM      8  C   UNL     1       2.420   9.195  17.943  0.00  0.00    +0.000 A 
ATOM      9  C   UNL     1       2.480   7.959  18.581  0.00  0.00    +0.000 A 
ATOM     10  C   UNL     1       3.230   6.915  18.023  0.00  0.00    +0.000 A 
ATOM     11  C   UNL     1       3.351   5.713  18.707  0.00  0.00    +0.000 A 
ATOM     12  C   UNL     1       4.151   4.833  17.986  0.00  0.00    +0.000 A 
ATOM     13  C   UNL     1       4.431   3.572  18.495  0.00  0.00    +0.000 A 
ATOM     14  C   UNL     1       3.878   3.260  19.754  0.00  0.00    +0.000 A 
ATOM     15  C   UNL     1       3.063   4.168  20.458  0.00  0.00    +0.000 A 
ATOM     16  C   UNL     1       2.783   5.434  19.910  0.00  0.00    +0.000 A 
ATOM     17  C   UNL     1       1.985   6.447  20.465  0.00  0.00    +0.000 A 
ATOM     18  C   UNL     1       1.804   7.710  19.817  0.00  0.00    +0.000 A 
ATOM     19  C   UNL     1       1.003   8.763  20.344  0.00  0.00    +0.000 A 
ATOM     20  C   UNL     1       4.564   5.526  16.716  0.00  0.00    +0.000 C 
ATOM     21  C   UNL     1       4.023   6.769  16.734  0.00  0.00    +0.000 C 
ENDROOT
TORSDOF 0
ENDMDL
