MODEL 1
REMARK VINA RESULT:      -8.8      0.000      0.000
REMARK  Name = 
REMARK  8 active torsions:
REMARK  status: ('A' for Active; 'I' for Inactive)
REMARK    1  A    between atoms: C_1  and  C_2
REMARK    2  A    between atoms: C_7  and  C_8
REMARK    3  A    between atoms: C_10  and  C_11
REMARK    4  A    between atoms: N_13  and  C_14
REMARK    5  A    between atoms: N_17  and  C_18
REMARK    6  A    between atoms: C_19  and  C_20
REMARK    7  A    between atoms: C_23  and  N_24
REMARK    8  A    between atoms: C_29  and  N_30
REMARK                            x       y       z     vdW  Elec       q    Type
REMARK                         _______ _______ _______ _____ _____    ______ ____
ROOT
ATOM      1  C   UNL     1       2.986   7.929  17.998  0.00  0.00    +0.000 C 
ATOM      2  O   UNL     1       2.830   8.355  16.851  0.00  0.00    +0.000 OA
ATOM      3  N   UNL     1       3.997   7.057  18.377  0.00  0.00    +0.000 N 
ATOM      4  H   UNL     1       4.048   6.817  19.366  0.00  0.00    +0.000 HD
ENDROOT
BRANCH   3   5
ATOM      5  C   UNL     1       4.940   6.476  17.528  0.00  0.00    +0.000 A 
ATOM      6  C   UNL     1       6.116   6.988  16.938  0.00  0.00    +0.000 A 
ATOM      7  N   UNL     1       6.727   6.094  16.141  0.00  0.00    +0.000 NA
ATOM      8  N   UNL     1       5.937   5.011  16.231  0.00  0.00    +0.000 N 
ATOM      9  C   UNL     1       6.249   3.851  15.410  0.00  0.00    +0.000 C 
ATOM     10  C   UNL     1       4.858   5.178  17.050  0.00  0.00    +0.000 A 
BRANCH  10  11
ATOM     11  C   UNL     1       3.811   4.127  17.216  0.00  0.00    +0.000 C 
ATOM     12  C   UNL     1       2.535   4.788  17.763  0.00  0.00    +0.000 C 
ATOM     13  C   UNL     1       1.332   3.857  17.703  0.00  0.00    +0.000 C 
ATOM     14  C   UNL     1       1.206   2.909  18.903  0.00  0.00    +0.000 C 
ATOM     15  C   UNL     1       2.535   2.357  19.449  0.00  0.00    +0.000 C 
ATOM     16  F   UNL     1       3.066   3.291  20.292  0.00  0.00    +0.000 F 
ATOM     17  C   UNL     1       3.574   2.024  18.384  0.00  0.00    +0.000 C 
ATOM     18  O   UNL     1       4.390   3.149  18.066  0.00  0.00    +0.000 OA
BRANCH  14  19
ATOM     19  N   UNL     1       0.256   1.841  18.544  0.00  0.00    +0.000 NA
ATOM     20  H   UNL     1       0.680   1.185  17.890  0.00  0.00    +0.000 HD
ATOM     21  H   UNL     1      -0.541   2.251  18.055  0.00  0.00    +0.000 HD
ENDBRANCH  14  19
ENDBRANCH  10  11
ENDBRANCH   3   5
BRANCH   1  24
ATOM     22  C   UNL     1       0.638   9.665  20.215  0.00  0.00    +0.000 A 
ATOM     23  N   UNL     1       1.363   9.532  19.110  0.00  0.00    +0.000 NA
ATOM     24  C   UNL     1       2.079   8.308  19.112  0.00  0.00    +0.000 A 
ATOM     25  C   UNL     1       1.862   7.544  20.255  0.00  0.00    +0.000 A 
ATOM     26  S   UNL     1       0.843   8.378  21.333  0.00  0.00    +0.000 S 
BRANCH  22  33
ATOM     27  C   UNL     1      -1.770  10.744  18.530  0.00  0.00    +0.000 C 
ATOM     28  C   UNL     1      -1.329  11.292  19.857  0.00  0.00    +0.000 A 
ATOM     29  C   UNL     1      -2.050  12.386  20.367  0.00  0.00    +0.000 A 
ATOM     30  C   UNL     1      -1.695  12.955  21.581  0.00  0.00    +0.000 A 
ATOM     31  C   UNL     1      -0.633  12.403  22.263  0.00  0.00    +0.000 A 
ATOM     32  N   UNL     1       0.100  11.361  21.808  0.00  0.00    +0.000 NA
ATOM     33  C   UNL     1      -0.233  10.811  20.607  0.00  0.00    +0.000 A 
ENDBRANCH  22  33
BRANCH  25  34
ATOM     34  N   UNL     1       2.312   6.328  20.645  0.00  0.00    +0.000 N 
ATOM     35  H   UNL     1       1.825   5.490  20.348  0.00  0.00    +0.000 HD
ATOM     36  H   UNL     1       2.725   6.263  21.574  0.00  0.00    +0.000 HD
ENDBRANCH  25  34
ENDBRANCH   1  24
TORSDOF 6
ENDMDL
MODEL 2
REMARK VINA RESULT:      -8.5      2.195      4.250
REMARK  Name = 
REMARK  8 active torsions:
REMARK  status: ('A' for Active; 'I' for Inactive)
REMARK    1  A    between atoms: C_1  and  C_2
REMARK    2  A    between atoms: C_7  and  C_8
REMARK    3  A    between atoms: C_10  and  C_11
REMARK    4  A    between atoms: N_13  and  C_14
REMARK    5  A    between atoms: N_17  and  C_18
REMARK    6  A    between atoms: C_19  and  C_20
REMARK    7  A    between atoms: C_23  and  N_24
REMARK    8  A    between atoms: C_29  and  N_30
REMARK                            x       y       z     vdW  Elec       q    Type
REMARK                         _______ _______ _______ _____ _____    ______ ____
ROOT
ATOM      1  C   UNL     1       1.678   7.816  18.996  0.00  0.00    +0.000 C 
ATOM      2  O   UNL     1       1.865   7.432  17.838  0.00  0.00    +0.000 OA
ATOM      3  N   UNL     1       1.866   7.024  20.120  0.00  0.00    +0.000 N 
ATOM      4  H   UNL     1       1.724   7.473  21.024  0.00  0.00    +0.000 HD
ENDROOT
BRANCH   3   5
ATOM      5  C   UNL     1       2.221   5.675  20.124  0.00  0.00    +0.000 A 
ATOM      6  C   UNL     1       1.533   4.522  20.558  0.00  0.00    +0.000 A 
ATOM      7  N   UNL     1       2.260   3.400  20.417  0.00  0.00    +0.000 NA
ATOM      8  N   UNL     1       3.411   3.844  19.886  0.00  0.00    +0.000 N 
ATOM      9  C   UNL     1       4.494   2.895  19.677  0.00  0.00    +0.000 C 
ATOM     10  C   UNL     1       3.444   5.194  19.683  0.00  0.00    +0.000 A 
BRANCH  10  11
ATOM     11  C   UNL     1       4.663   5.898  19.185  0.00  0.00    +0.000 C 
ATOM     12  C   UNL     1       4.634   5.903  17.649  0.00  0.00    +0.000 C 
ATOM     13  C   UNL     1       5.681   6.835  17.055  0.00  0.00    +0.000 C 
ATOM     14  C   UNL     1       7.072   6.205  16.902  0.00  0.00    +0.000 C 
ATOM     15  C   UNL     1       7.493   5.254  18.037  0.00  0.00    +0.000 C 
ATOM     16  F   UNL     1       6.952   4.027  17.783  0.00  0.00    +0.000 F 
ATOM     17  C   UNL     1       7.058   5.692  19.432  0.00  0.00    +0.000 C 
ATOM     18  O   UNL     1       5.760   5.205  19.761  0.00  0.00    +0.000 OA
BRANCH  14  19
ATOM     19  N   UNL     1       8.045   7.291  16.686  0.00  0.00    +0.000 NA
ATOM     20  H   UNL     1       8.197   7.817  17.546  0.00  0.00    +0.000 HD
ATOM     21  H   UNL     1       7.660   7.957  16.014  0.00  0.00    +0.000 HD
ENDBRANCH  14  19
ENDBRANCH  10  11
ENDBRANCH   3   5
BRANCH   1  24
ATOM     22  C   UNL     1      -0.024  10.740  20.407  0.00  0.00    +0.000 A 
ATOM     23  N   UNL     1       0.258   9.445  20.326  0.00  0.00    +0.000 NA
ATOM     24  C   UNL     1       1.212   9.191  19.307  0.00  0.00    +0.000 A 
ATOM     25  C   UNL     1       1.622  10.341  18.637  0.00  0.00    +0.000 A 
ATOM     26  S   UNL     1       0.774  11.694  19.223  0.00  0.00    +0.000 S 
BRANCH  22  33
ATOM     27  C   UNL     1      -0.487   9.955  23.402  0.00  0.00    +0.000 C 
ATOM     28  C   UNL     1      -1.189  11.071  22.683  0.00  0.00    +0.000 A 
ATOM     29  C   UNL     1      -2.139  11.805  23.415  0.00  0.00    +0.000 A 
ATOM     30  C   UNL     1      -2.837  12.842  22.815  0.00  0.00    +0.000 A 
ATOM     31  C   UNL     1      -2.555  13.130  21.498  0.00  0.00    +0.000 A 
ATOM     32  N   UNL     1      -1.661  12.445  20.748  0.00  0.00    +0.000 NA
ATOM     33  C   UNL     1      -0.987  11.412  21.327  0.00  0.00    +0.000 A 
ENDBRANCH  22  33
BRANCH  25  34
ATOM     34  N   UNL     1       2.514  10.552  17.641  0.00  0.00    +0.000 N 
ATOM     35  H   UNL     1       3.112  11.371  17.665  0.00  0.00    +0.000 HD
ATOM     36  H   UNL     1       2.239  10.264  16.704  0.00  0.00    +0.000 HD
ENDBRANCH  25  34
ENDBRANCH   1  24
TORSDOF 6
ENDMDL
MODEL 3
REMARK VINA RESULT:      -8.5      1.004      1.084
REMARK  Name = 
REMARK  8 active torsions:
REMARK  status: ('A' for Active; 'I' for Inactive)
REMARK    1  A    between atoms: C_1  and  C_2
REMARK    2  A    between atoms: C_7  and  C_8
REMARK    3  A    between atoms: C_10  and  C_11
REMARK    4  A    between atoms: N_13  and  C_14
REMARK    5  A    between atoms: N_17  and  C_18
REMARK    6  A    between atoms: C_19  and  C_20
REMARK    7  A    between atoms: C_23  and  N_24
REMARK    8  A    between atoms: C_29  and  N_30
REMARK                            x       y       z     vdW  Elec       q    Type
REMARK                         _______ _______ _______ _____ _____    ______ ____
ROOT
ATOM      1  C   UNL     1       2.593   8.282  18.058  0.00  0.00    +0.000 C 
ATOM      2  O   UNL     1       2.470   8.859  16.975  0.00  0.00    +0.000 OA
ATOM      3  N   UNL     1       3.491   7.250  18.296  0.00  0.00    +0.000 N 
ATOM      4  H   UNL     1       3.530   6.888  19.247  0.00  0.00    +0.000 HD
ENDROOT
BRANCH   3   5
ATOM      5  C   UNL     1       4.334   6.663  17.351  0.00  0.00    +0.000 A 
ATOM      6  C   UNL     1       5.126   7.218  16.323  0.00  0.00    +0.000 A 
ATOM      7  N   UNL     1       5.768   6.282  15.602  0.00  0.00    +0.000 NA
ATOM      8  N   UNL     1       5.387   5.131  16.180  0.00  0.00    +0.000 N 
ATOM      9  C   UNL     1       5.827   3.876  15.592  0.00  0.00    +0.000 C 
ATOM     10  C   UNL     1       4.534   5.297  17.234  0.00  0.00    +0.000 A 
BRANCH  10  11
ATOM     11  C   UNL     1       3.923   4.142  17.956  0.00  0.00    +0.000 C 
ATOM     12  C   UNL     1       2.749   3.607  17.121  0.00  0.00    +0.000 C 
ATOM     13  C   UNL     1       2.242   2.264  17.631  0.00  0.00    +0.000 C 
ATOM     14  C   UNL     1       1.220   2.369  18.771  0.00  0.00    +0.000 C 
ATOM     15  C   UNL     1       1.483   3.491  19.791  0.00  0.00    +0.000 C 
ATOM     16  F   UNL     1       0.974   4.652  19.282  0.00  0.00    +0.000 F 
ATOM     17  C   UNL     1       2.953   3.717  20.128  0.00  0.00    +0.000 C 
ATOM     18  O   UNL     1       3.567   4.642  19.236  0.00  0.00    +0.000 OA
BRANCH  14  19
ATOM     19  N   UNL     1       1.108   1.043  19.407  0.00  0.00    +0.000 NA
ATOM     20  H   UNL     1       0.838   0.337  18.724  0.00  0.00    +0.000 HD
ATOM     21  H   UNL     1       0.357   1.066  20.099  0.00  0.00    +0.000 HD
ENDBRANCH  14  19
ENDBRANCH  10  11
ENDBRANCH   3   5
BRANCH   1  24
ATOM     22  C   UNL     1       0.364   9.942  20.449  0.00  0.00    +0.000 A 
ATOM     23  N   UNL     1       1.001   9.828  19.290  0.00  0.00    +0.000 NA
ATOM     24  C   UNL     1       1.765   8.634  19.240  0.00  0.00    +0.000 A 
ATOM     25  C   UNL     1       1.673   7.872  20.402  0.00  0.00    +0.000 A 
ATOM     26  S   UNL     1       0.712   8.674  21.554  0.00  0.00    +0.000 S 
BRANCH  22  33
ATOM     27  C   UNL     1      -1.889  11.262  18.723  0.00  0.00    +0.000 C 
ATOM     28  C   UNL     1      -1.545  11.644  20.134  0.00  0.00    +0.000 A 
ATOM     29  C   UNL     1      -2.289  12.689  20.712  0.00  0.00    +0.000 A 
ATOM     30  C   UNL     1      -2.022  13.107  22.007  0.00  0.00    +0.000 A 
ATOM     31  C   UNL     1      -1.024  12.455  22.699  0.00  0.00    +0.000 A 
ATOM     32  N   UNL     1      -0.272  11.456  22.183  0.00  0.00    +0.000 NA
ATOM     33  C   UNL     1      -0.518  11.055  20.904  0.00  0.00    +0.000 A 
ENDBRANCH  22  33
BRANCH  25  34
ATOM     34  N   UNL     1       2.204   6.680  20.761  0.00  0.00    +0.000 N 
ATOM     35  H   UNL     1       3.072   6.366  20.340  0.00  0.00    +0.000 HD
ATOM     36  H   UNL     1       1.551   5.928  20.977  0.00  0.00    +0.000 HD
ENDBRANCH  25  34
ENDBRANCH   1  24
TORSDOF 6
ENDMDL
MODEL 4
REMARK VINA RESULT:      -8.3      3.551      9.577
REMARK  Name = 
REMARK  8 active torsions:
REMARK  status: ('A' for Active; 'I' for Inactive)
REMARK    1  A    between atoms: C_1  and  C_2
REMARK    2  A    between atoms: C_7  and  C_8
REMARK    3  A    between atoms: C_10  and  C_11
REMARK    4  A    between atoms: N_13  and  C_14
REMARK    5  A    between atoms: N_17  and  C_18
REMARK    6  A    between atoms: C_19  and  C_20
REMARK    7  A    between atoms: C_23  and  N_24
REMARK    8  A    between atoms: C_29  and  N_30
REMARK                            x       y       z     vdW  Elec       q    Type
REMARK                         _______ _______ _______ _____ _____    ______ ____
ROOT
ATOM      1  C   UNL     1       0.733  10.046  21.344  0.00  0.00    +0.000 C 
ATOM      2  O   UNL     1       1.083   9.782  22.497  0.00  0.00    +0.000 OA
ATOM      3  N   UNL     1      -0.126  11.083  21.007  0.00  0.00    +0.000 N 
ATOM      4  H   UNL     1      -0.300  11.228  20.013  0.00  0.00    +0.000 HD
ENDROOT
BRANCH   3   5
ATOM      5  C   UNL     1      -0.775  11.934  21.902  0.00  0.00    +0.000 A 
ATOM      6  C   UNL     1      -1.864  11.726  22.776  0.00  0.00    +0.000 A 
ATOM      7  N   UNL     1      -2.208  12.839  23.448  0.00  0.00    +0.000 NA
ATOM      8  N   UNL     1      -1.330  13.752  23.002  0.00  0.00    +0.000 N 
ATOM      9  C   UNL     1      -1.465  15.128  23.456  0.00  0.00    +0.000 C 
ATOM     10  C   UNL     1      -0.447  13.268  22.081  0.00  0.00    +0.000 A 
BRANCH  10  11
ATOM     11  C   UNL     1       0.551  14.141  21.395  0.00  0.00    +0.000 C 
ATOM     12  C   UNL     1       0.117  14.328  19.933  0.00  0.00    +0.000 C 
ATOM     13  C   UNL     1       0.911  15.422  19.230  0.00  0.00    +0.000 C 
ATOM     14  C   UNL     1       2.249  14.952  18.642  0.00  0.00    +0.000 C 
ATOM     15  C   UNL     1       3.012  13.917  19.488  0.00  0.00    +0.000 C 
ATOM     16  F   UNL     1       2.501  12.682  19.208  0.00  0.00    +0.000 F 
ATOM     17  C   UNL     1       2.935  14.140  20.994  0.00  0.00    +0.000 C 
ATOM     18  O   UNL     1       1.802  13.494  21.570  0.00  0.00    +0.000 OA
BRANCH  14  19
ATOM     19  N   UNL     1       3.060  16.145  18.342  0.00  0.00    +0.000 NA
ATOM     20  H   UNL     1       2.880  16.885  19.020  0.00  0.00    +0.000 HD
ATOM     21  H   UNL     1       2.779  16.522  17.435  0.00  0.00    +0.000 HD
ENDBRANCH  14  19
ENDBRANCH  10  11
ENDBRANCH   3   5
BRANCH   1  24
ATOM     22  C   UNL     1       2.191   7.493  19.154  0.00  0.00    +0.000 A 
ATOM     23  N   UNL     1       1.844   8.002  20.331  0.00  0.00    +0.000 NA
ATOM     24  C   UNL     1       1.198   9.255  20.176  0.00  0.00    +0.000 A 
ATOM     25  C   UNL     1       1.082   9.655  18.847  0.00  0.00    +0.000 A 
ATOM     26  S   UNL     1       1.834   8.521  17.826  0.00  0.00    +0.000 S 
BRANCH  22  33
ATOM     27  C   UNL     1       1.471   4.733  20.446  0.00  0.00    +0.000 C 
ATOM     28  C   UNL     1       2.576   4.962  19.454  0.00  0.00    +0.000 A 
ATOM     29  C   UNL     1       3.354   3.846  19.096  0.00  0.00    +0.000 A 
ATOM     30  C   UNL     1       4.400   3.980  18.197  0.00  0.00    +0.000 A 
ATOM     31  C   UNL     1       4.633   5.230  17.664  0.00  0.00    +0.000 A 
ATOM     32  N   UNL     1       3.923   6.335  17.987  0.00  0.00    +0.000 NA
ATOM     33  C   UNL     1       2.907   6.212  18.885  0.00  0.00    +0.000 A 
ENDBRANCH  22  33
BRANCH  25  34
ATOM     34  N   UNL     1       0.524  10.741  18.262  0.00  0.00    +0.000 N 
ATOM     35  H   UNL     1      -0.131  10.622  17.497  0.00  0.00    +0.000 HD
ATOM     36  H   UNL     1       1.102  11.577  18.189  0.00  0.00    +0.000 HD
ENDBRANCH  25  34
ENDBRANCH   1  24
TORSDOF 6
ENDMDL
MODEL 5
REMARK VINA RESULT:      -8.3      2.373      3.265
REMARK  Name = 
REMARK  8 active torsions:
REMARK  status: ('A' for Active; 'I' for Inactive)
REMARK    1  A    between atoms: C_1  and  C_2
REMARK    2  A    between atoms: C_7  and  C_8
REMARK    3  A    between atoms: C_10  and  C_11
REMARK    4  A    between atoms: N_13  and  C_14
REMARK    5  A    between atoms: N_17  and  C_18
REMARK    6  A    between atoms: C_19  and  C_20
REMARK    7  A    between atoms: C_23  and  N_24
REMARK    8  A    between atoms: C_29  and  N_30
REMARK                            x       y       z     vdW  Elec       q    Type
REMARK                         _______ _______ _______ _____ _____    ______ ____
ROOT
ATOM      1  C   UNL     1       1.704   9.599  18.128  0.00  0.00    +0.000 C 
ATOM      2  O   UNL     1       2.497  10.260  17.452  0.00  0.00    +0.000 OA
ATOM      3  N   UNL     1       1.858   8.249  18.414  0.00  0.00    +0.000 N 
ATOM      4  H   UNL     1       1.158   7.828  19.024  0.00  0.00    +0.000 HD
ENDROOT
BRANCH   3   5
ATOM      5  C   UNL     1       2.874   7.420  17.937  0.00  0.00    +0.000 A 
ATOM      6  C   UNL     1       3.906   7.642  17.001  0.00  0.00    +0.000 A 
ATOM      7  N   UNL     1       4.662   6.548  16.795  0.00  0.00    +0.000 NA
ATOM      8  N   UNL     1       4.109   5.634  17.609  0.00  0.00    +0.000 N 
ATOM      9  C   UNL     1       4.624   4.274  17.580  0.00  0.00    +0.000 C 
ATOM     10  C   UNL     1       3.041   6.099  18.321  0.00  0.00    +0.000 A 
BRANCH  10  11
ATOM     11  C   UNL     1       2.231   5.219  19.214  0.00  0.00    +0.000 C 
ATOM     12  C   UNL     1       3.090   4.829  20.428  0.00  0.00    +0.000 C 
ATOM     13  C   UNL     1       2.269   4.167  21.527  0.00  0.00    +0.000 C 
ATOM     14  C   UNL     1       2.067   2.657  21.342  0.00  0.00    +0.000 C 
ATOM     15  C   UNL     1       1.859   2.194  19.889  0.00  0.00    +0.000 C 
ATOM     16  F   UNL     1       3.087   2.061  19.308  0.00  0.00    +0.000 F 
ATOM     17  C   UNL     1       1.020   3.135  19.031  0.00  0.00    +0.000 C 
ATOM     18  O   UNL     1       1.818   4.132  18.399  0.00  0.00    +0.000 OA
BRANCH  14  19
ATOM     19  N   UNL     1       0.973   2.230  22.233  0.00  0.00    +0.000 NA
ATOM     20  H   UNL     1       0.145   2.806  22.091  0.00  0.00    +0.000 HD
ATOM     21  H   UNL     1       1.255   2.376  23.203  0.00  0.00    +0.000 HD
ENDBRANCH  14  19
ENDBRANCH  10  11
ENDBRANCH   3   5
BRANCH   1  24
ATOM     22  C   UNL     1      -1.658  10.966  18.648  0.00  0.00    +0.000 A 
ATOM     23  N   UNL     1      -0.695  10.404  17.927  0.00  0.00    +0.000 NA
ATOM     24  C   UNL     1       0.472  10.193  18.707  0.00  0.00    +0.000 A 
ATOM     25  C   UNL     1       0.339  10.622  20.025  0.00  0.00    +0.000 A 
ATOM     26  S   UNL     1      -1.186  11.340  20.257  0.00  0.00    +0.000 S 
BRANCH  22  33
ATOM     27  C   UNL     1      -2.779  10.570  15.752  0.00  0.00    +0.000 C 
ATOM     28  C   UNL     1      -3.537  11.180  16.897  0.00  0.00    +0.000 A 
ATOM     29  C   UNL     1      -4.847  11.619  16.634  0.00  0.00    +0.000 A 
ATOM     30  C   UNL     1      -5.604  12.205  17.637  0.00  0.00    +0.000 A 
ATOM     31  C   UNL     1      -5.036  12.322  18.886  0.00  0.00    +0.000 A 
ATOM     32  N   UNL     1      -3.777  11.928  19.185  0.00  0.00    +0.000 NA
ATOM     33  C   UNL     1      -3.021  11.370  18.198  0.00  0.00    +0.000 A 
ENDBRANCH  22  33
BRANCH  25  34
ATOM     34  N   UNL     1       1.175  10.587  21.089  0.00  0.00    +0.000 N 
ATOM     35  H   UNL     1       0.797  10.494  22.026  0.00  0.00    +0.000 HD
ATOM     36  H   UNL     1       2.018  11.156  21.035  0.00  0.00    +0.000 HD
ENDBRANCH  25  34
ENDBRANCH   1  24
TORSDOF 6
ENDMDL
MODEL 6
REMARK VINA RESULT:      -8.3      3.288      8.963
REMARK  Name = 
REMARK  8 active torsions:
REMARK  status: ('A' for Active; 'I' for Inactive)
REMARK    1  A    between atoms: C_1  and  C_2
REMARK    2  A    between atoms: C_7  and  C_8
REMARK    3  A    between atoms: C_10  and  C_11
REMARK    4  A    between atoms: N_13  and  C_14
REMARK    5  A    between atoms: N_17  and  C_18
REMARK    6  A    between atoms: C_19  and  C_20
REMARK    7  A    between atoms: C_23  and  N_24
REMARK    8  A    between atoms: C_29  and  N_30
REMARK                            x       y       z     vdW  Elec       q    Type
REMARK                         _______ _______ _______ _____ _____    ______ ____
ROOT
ATOM      1  C   UNL     1       0.208   9.656  21.124  0.00  0.00    +0.000 C 
ATOM      2  O   UNL     1      -0.325   9.160  22.121  0.00  0.00    +0.000 OA
ATOM      3  N   UNL     1       0.098  10.991  20.763  0.00  0.00    +0.000 N 
ATOM      4  H   UNL     1       0.626  11.287  19.942  0.00  0.00    +0.000 HD
ENDROOT
BRANCH   3   5
ATOM      5  C   UNL     1      -0.672  11.956  21.413  0.00  0.00    +0.000 A 
ATOM      6  C   UNL     1      -0.638  12.454  22.733  0.00  0.00    +0.000 A 
ATOM      7  N   UNL     1      -1.596  13.368  22.967  0.00  0.00    +0.000 NA
ATOM      8  N   UNL     1      -2.234  13.454  21.787  0.00  0.00    +0.000 N 
ATOM      9  C   UNL     1      -3.413  14.302  21.693  0.00  0.00    +0.000 C 
ATOM     10  C   UNL     1      -1.723  12.638  20.820  0.00  0.00    +0.000 A 
BRANCH  10  11
ATOM     11  C   UNL     1      -2.343  12.517  19.467  0.00  0.00    +0.000 C 
ATOM     12  C   UNL     1      -3.583  11.616  19.574  0.00  0.00    +0.000 C 
ATOM     13  C   UNL     1      -4.438  11.658  18.315  0.00  0.00    +0.000 C 
ATOM     14  C   UNL     1      -3.985  10.691  17.212  0.00  0.00    +0.000 C 
ATOM     15  C   UNL     1      -2.462  10.530  17.062  0.00  0.00    +0.000 C 
ATOM     16  F   UNL     1      -2.041   9.615  17.983  0.00  0.00    +0.000 F 
ATOM     17  C   UNL     1      -1.662  11.814  17.257  0.00  0.00    +0.000 C 
ATOM     18  O   UNL     1      -1.314  12.021  18.624  0.00  0.00    +0.000 OA
BRANCH  14  19
ATOM     19  N   UNL     1      -4.638  11.095  15.954  0.00  0.00    +0.000 NA
ATOM     20  H   UNL     1      -4.427  12.068  15.734  0.00  0.00    +0.000 HD
ATOM     21  H   UNL     1      -5.651  11.047  16.071  0.00  0.00    +0.000 HD
ENDBRANCH  14  19
ENDBRANCH  10  11
ENDBRANCH   3   5
BRANCH   1  24
ATOM     22  C   UNL     1       2.266   7.058  19.557  0.00  0.00    +0.000 A 
ATOM     23  N   UNL     1       1.544   7.578  20.543  0.00  0.00    +0.000 NA
ATOM     24  C   UNL     1       1.029   8.850  20.185  0.00  0.00    +0.000 A 
ATOM     25  C   UNL     1       1.397   9.253  18.904  0.00  0.00    +0.000 A 
ATOM     26  S   UNL     1       2.425   8.095  18.198  0.00  0.00    +0.000 S 
BRANCH  22  33
ATOM     27  C   UNL     1       1.040   4.311  20.425  0.00  0.00    +0.000 C 
ATOM     28  C   UNL     1       2.440   4.512  19.919  0.00  0.00    +0.000 A 
ATOM     29  C   UNL     1       3.263   3.374  19.849  0.00  0.00    +0.000 A 
ATOM     30  C   UNL     1       4.572   3.481  19.404  0.00  0.00    +0.000 A 
ATOM     31  C   UNL     1       5.021   4.728  19.025  0.00  0.00    +0.000 A 
ATOM     32  N   UNL     1       4.274   5.853  19.087  0.00  0.00    +0.000 NA
ATOM     33  C   UNL     1       2.994   5.756  19.542  0.00  0.00    +0.000 A 
ENDBRANCH  22  33
BRANCH  25  34
ATOM     34  N   UNL     1       1.110  10.355  18.172  0.00  0.00    +0.000 N 
ATOM     35  H   UNL     1       1.704  10.611  17.390  0.00  0.00    +0.000 HD
ATOM     36  H   UNL     1       0.708  11.149  18.667  0.00  0.00    +0.000 HD
ENDBRANCH  25  34
ENDBRANCH   1  24
TORSDOF 6
ENDMDL
MODEL 7
REMARK VINA RESULT:      -8.3      0.738      1.230
REMARK  Name = 
REMARK  8 active torsions:
REMARK  status: ('A' for Active; 'I' for Inactive)
REMARK    1  A    between atoms: C_1  and  C_2
REMARK    2  A    between atoms: C_7  and  C_8
REMARK    3  A    between atoms: C_10  and  C_11
REMARK    4  A    between atoms: N_13  and  C_14
REMARK    5  A    between atoms: N_17  and  C_18
REMARK    6  A    between atoms: C_19  and  C_20
REMARK    7  A    between atoms: C_23  and  N_24
REMARK    8  A    between atoms: C_29  and  N_30
REMARK                            x       y       z     vdW  Elec       q    Type
REMARK                         _______ _______ _______ _____ _____    ______ ____
ROOT
ATOM      1  C   UNL     1       2.833   8.029  18.054  0.00  0.00    +0.000 C 
ATOM      2  O   UNL     1       2.728   8.561  16.946  0.00  0.00    +0.000 OA
ATOM      3  N   UNL     1       3.792   7.079  18.376  0.00  0.00    +0.000 N 
ATOM      4  H   UNL     1       3.805   6.751  19.341  0.00  0.00    +0.000 HD
ENDROOT
BRANCH   3   5
ATOM      5  C   UNL     1       4.729   6.529  17.499  0.00  0.00    +0.000 A 
ATOM      6  C   UNL     1       5.851   7.088  16.851  0.00  0.00    +0.000 A 
ATOM      7  N   UNL     1       6.475   6.210  16.047  0.00  0.00    +0.000 NA
ATOM      8  N   UNL     1       5.749   5.089  16.192  0.00  0.00    +0.000 N 
ATOM      9  C   UNL     1       6.087   3.929  15.381  0.00  0.00    +0.000 C 
ATOM     10  C   UNL     1       4.696   5.219  17.051  0.00  0.00    +0.000 A 
BRANCH  10  11
ATOM     11  C   UNL     1       3.714   4.119  17.283  0.00  0.00    +0.000 C 
ATOM     12  C   UNL     1       2.400   4.733  17.790  0.00  0.00    +0.000 C 
ATOM     13  C   UNL     1       1.254   3.729  17.787  0.00  0.00    +0.000 C 
ATOM     14  C   UNL     1       1.183   2.850  19.043  0.00  0.00    +0.000 C 
ATOM     15  C   UNL     1       2.541   2.414  19.620  0.00  0.00    +0.000 C 
ATOM     16  F   UNL     1       3.013   3.427  20.404  0.00  0.00    +0.000 F 
ATOM     17  C   UNL     1       3.601   2.080  18.576  0.00  0.00    +0.000 C 
ATOM     18  O   UNL     1       4.349   3.230  18.190  0.00  0.00    +0.000 OA
BRANCH  14  19
ATOM     19  N   UNL     1       0.300   1.707  18.751  0.00  0.00    +0.000 NA
ATOM     20  H   UNL     1       0.692   0.843  19.122  0.00  0.00    +0.000 HD
ATOM     21  H   UNL     1       0.242   1.577  17.740  0.00  0.00    +0.000 HD
ENDBRANCH  14  19
ENDBRANCH  10  11
ENDBRANCH   3   5
BRANCH   1  24
ATOM     22  C   UNL     1       0.403   9.619  20.292  0.00  0.00    +0.000 A 
ATOM     23  N   UNL     1       1.123   9.529  19.180  0.00  0.00    +0.000 NA
ATOM     24  C   UNL     1       1.916   8.353  19.176  0.00  0.00    +0.000 A 
ATOM     25  C   UNL     1       1.760   7.580  20.324  0.00  0.00    +0.000 A 
ATOM     26  S   UNL     1       0.701   8.351  21.410  0.00  0.00    +0.000 S 
BRANCH  22  33
ATOM     27  C   UNL     1      -0.507  10.213  23.228  0.00  0.00    +0.000 C 
ATOM     28  C   UNL     1      -0.936  10.990  22.016  0.00  0.00    +0.000 A 
ATOM     29  C   UNL     1      -1.830  12.056  22.223  0.00  0.00    +0.000 A 
ATOM     30  C   UNL     1      -2.281  12.811  21.152  0.00  0.00    +0.000 A 
ATOM     31  C   UNL     1      -1.813  12.489  19.896  0.00  0.00    +0.000 A 
ATOM     32  N   UNL     1      -0.965  11.466  19.644  0.00  0.00    +0.000 NA
ATOM     33  C   UNL     1      -0.534  10.709  20.691  0.00  0.00    +0.000 A 
ENDBRANCH  22  33
BRANCH  25  34
ATOM     34  N   UNL     1       2.291   6.397  20.711  0.00  0.00    +0.000 N 
ATOM     35  H   UNL     1       1.968   5.953  21.564  0.00  0.00    +0.000 HD
ATOM     36  H   UNL     1       3.278   6.244  20.511  0.00  0.00    +0.000 HD
ENDBRANCH  25  34
ENDBRANCH   1  24
TORSDOF 6
ENDMDL
MODEL 8
REMARK VINA RESULT:      -8.2      3.614      9.046
REMARK  Name = 
REMARK  8 active torsions:
REMARK  status: ('A' for Active; 'I' for Inactive)
REMARK    1  A    between atoms: C_1  and  C_2
REMARK    2  A    between atoms: C_7  and  C_8
REMARK    3  A    between atoms: C_10  and  C_11
REMARK    4  A    between atoms: N_13  and  C_14
REMARK    5  A    between atoms: N_17  and  C_18
REMARK    6  A    between atoms: C_19  and  C_20
REMARK    7  A    between atoms: C_23  and  N_24
REMARK    8  A    between atoms: C_29  and  N_30
REMARK                            x       y       z     vdW  Elec       q    Type
REMARK                         _______ _______ _______ _____ _____    ______ ____
ROOT
ATOM      1  C   UNL     1       0.874  10.202  20.951  0.00  0.00    +0.000 C 
ATOM      2  O   UNL     1       1.669  10.925  21.558  0.00  0.00    +0.000 OA
ATOM      3  N   UNL     1      -0.500  10.391  20.938  0.00  0.00    +0.000 N 
ATOM      4  H   UNL     1      -1.045   9.752  20.359  0.00  0.00    +0.000 HD
ENDROOT
BRANCH   3   5
ATOM      5  C   UNL     1      -1.201  11.365  21.650  0.00  0.00    +0.000 A 
ATOM      6  C   UNL     1      -1.237  11.682  23.025  0.00  0.00    +0.000 A 
ATOM      7  N   UNL     1      -2.088  12.685  23.303  0.00  0.00    +0.000 NA
ATOM      8  N   UNL     1      -2.587  13.009  22.099  0.00  0.00    +0.000 N 
ATOM      9  C   UNL     1      -3.631  14.020  22.026  0.00  0.00    +0.000 C 
ATOM     10  C   UNL     1      -2.090  12.258  21.073  0.00  0.00    +0.000 A 
BRANCH  10  11
ATOM     11  C   UNL     1      -2.581  12.398  19.670  0.00  0.00    +0.000 C 
ATOM     12  C   UNL     1      -3.923  11.660  19.543  0.00  0.00    +0.000 C 
ATOM     13  C   UNL     1      -4.636  11.979  18.236  0.00  0.00    +0.000 C 
ATOM     14  C   UNL     1      -4.191  11.115  17.048  0.00  0.00    +0.000 C 
ATOM     15  C   UNL     1      -2.690  10.778  17.004  0.00  0.00    +0.000 C 
ATOM     16  F   UNL     1      -2.474   9.703  17.816  0.00  0.00    +0.000 F 
ATOM     17  C   UNL     1      -1.768  11.909  17.447  0.00  0.00    +0.000 C 
ATOM     18  O   UNL     1      -1.538  11.888  18.853  0.00  0.00    +0.000 OA
BRANCH  14  19
ATOM     19  N   UNL     1      -4.662  11.763  15.810  0.00  0.00    +0.000 NA
ATOM     20  H   UNL     1      -4.367  12.738  15.778  0.00  0.00    +0.000 HD
ATOM     21  H   UNL     1      -5.683  11.777  15.807  0.00  0.00    +0.000 HD
ENDBRANCH  14  19
ENDBRANCH  10  11
ENDBRANCH   3   5
BRANCH   1  24
ATOM     22  C   UNL     1       1.904   6.853  19.870  0.00  0.00    +0.000 A 
ATOM     23  N   UNL     1       1.474   7.743  20.757  0.00  0.00    +0.000 NA
ATOM     24  C   UNL     1       1.320   9.024  20.164  0.00  0.00    +0.000 A 
ATOM     25  C   UNL     1       1.654   9.049  18.813  0.00  0.00    +0.000 A 
ATOM     26  S   UNL     1       2.218   7.521  18.319  0.00  0.00    +0.000 S 
BRANCH  22  33
ATOM     27  C   UNL     1       4.653   5.491  19.248  0.00  0.00    +0.000 C 
ATOM     28  C   UNL     1       3.456   4.796  19.829  0.00  0.00    +0.000 A 
ATOM     29  C   UNL     1       3.583   3.421  20.097  0.00  0.00    +0.000 A 
ATOM     30  C   UNL     1       2.517   2.707  20.623  0.00  0.00    +0.000 A 
ATOM     31  C   UNL     1       1.350   3.393  20.882  0.00  0.00    +0.000 A 
ATOM     32  N   UNL     1       1.174   4.710  20.629  0.00  0.00    +0.000 NA
ATOM     33  C   UNL     1       2.212   5.411  20.095  0.00  0.00    +0.000 A 
ENDBRANCH  22  33
BRANCH  25  34
ATOM     34  N   UNL     1       1.628  10.030  17.881  0.00  0.00    +0.000 N 
ATOM     35  H   UNL     1       1.718  11.000  18.165  0.00  0.00    +0.000 HD
ATOM     36  H   UNL     1       1.022   9.888  17.074  0.00  0.00    +0.000 HD
ENDBRANCH  25  34
ENDBRANCH   1  24
TORSDOF 6
ENDMDL
MODEL 9
REMARK VINA RESULT:      -8.2      2.627      4.310
REMARK  Name = 
REMARK  8 active torsions:
REMARK  status: ('A' for Active; 'I' for Inactive)
REMARK    1  A    between atoms: C_1  and  C_2
REMARK    2  A    between atoms: C_7  and  C_8
REMARK    3  A    between atoms: C_10  and  C_11
REMARK    4  A    between atoms: N_13  and  C_14
REMARK    5  A    between atoms: N_17  and  C_18
REMARK    6  A    between atoms: C_19  and  C_20
REMARK    7  A    between atoms: C_23  and  N_24
REMARK    8  A    between atoms: C_29  and  N_30
REMARK                            x       y       z     vdW  Elec       q    Type
REMARK                         _______ _______ _______ _____ _____    ______ ____
ROOT
ATOM      1  C   UNL     1       1.642   7.721  19.479  0.00  0.00    +0.000 C 
ATOM      2  O   UNL     1       1.779   7.482  18.276  0.00  0.00    +0.000 OA
ATOM      3  N   UNL     1       1.873   6.798  20.489  0.00  0.00    +0.000 N 
ATOM      4  H   UNL     1       1.771   7.132  21.447  0.00  0.00    +0.000 HD
ENDROOT
BRANCH   3   5
ATOM      5  C   UNL     1       2.223   5.458  20.312  0.00  0.00    +0.000 A 
ATOM      6  C   UNL     1       1.559   4.260  20.651  0.00  0.00    +0.000 A 
ATOM      7  N   UNL     1       2.272   3.165  20.335  0.00  0.00    +0.000 NA
ATOM      8  N   UNL     1       3.389   3.672  19.788  0.00  0.00    +0.000 N 
ATOM      9  C   UNL     1       4.453   2.758  19.401  0.00  0.00    +0.000 C 
ATOM     10  C   UNL     1       3.414   5.037  19.743  0.00  0.00    +0.000 A 
BRANCH  10  11
ATOM     11  C   UNL     1       4.602   5.799  19.256  0.00  0.00    +0.000 C 
ATOM     12  C   UNL     1       4.544   5.870  17.722  0.00  0.00    +0.000 C 
ATOM     13  C   UNL     1       5.552   6.859  17.151  0.00  0.00    +0.000 C 
ATOM     14  C   UNL     1       6.958   6.279  16.947  0.00  0.00    +0.000 C 
ATOM     15  C   UNL     1       7.428   5.292  18.031  0.00  0.00    +0.000 C 
ATOM     16  F   UNL     1       6.920   4.061  17.732  0.00  0.00    +0.000 F 
ATOM     17  C   UNL     1       7.007   5.655  19.451  0.00  0.00    +0.000 C 
ATOM     18  O   UNL     1       5.730   5.115  19.781  0.00  0.00    +0.000 OA
BRANCH  14  19
ATOM     19  N   UNL     1       7.894   7.402  16.762  0.00  0.00    +0.000 NA
ATOM     20  H   UNL     1       7.475   8.131  16.185  0.00  0.00    +0.000 HD
ATOM     21  H   UNL     1       8.714   7.075  16.249  0.00  0.00    +0.000 HD
ENDBRANCH  14  19
ENDBRANCH  10  11
ENDBRANCH   3   5
BRANCH   1  24
ATOM     22  C   UNL     1       1.164  11.312  20.039  0.00  0.00    +0.000 A 
ATOM     23  N   UNL     1       1.685  10.258  19.422  0.00  0.00    +0.000 NA
ATOM     24  C   UNL     1       1.195   9.047  19.976  0.00  0.00    +0.000 A 
ATOM     25  C   UNL     1       0.299   9.243  21.024  0.00  0.00    +0.000 A 
ATOM     26  S   UNL     1       0.136  10.904  21.352  0.00  0.00    +0.000 S 
BRANCH  22  33
ATOM     27  C   UNL     1      -0.564  13.155  18.191  0.00  0.00    +0.000 C 
ATOM     28  C   UNL     1       0.652  13.594  18.954  0.00  0.00    +0.000 A 
ATOM     29  C   UNL     1       1.048  14.935  18.809  0.00  0.00    +0.000 A 
ATOM     30  C   UNL     1       2.169  15.411  19.472  0.00  0.00    +0.000 A 
ATOM     31  C   UNL     1       2.859  14.533  20.280  0.00  0.00    +0.000 A 
ATOM     32  N   UNL     1       2.527  13.232  20.441  0.00  0.00    +0.000 NA
ATOM     33  C   UNL     1       1.438  12.755  19.776  0.00  0.00    +0.000 A 
ENDBRANCH  22  33
BRANCH  25  34
ATOM     34  N   UNL     1      -0.410   8.386  21.796  0.00  0.00    +0.000 N 
ATOM     35  H   UNL     1      -1.382   8.583  22.008  0.00  0.00    +0.000 HD
ATOM     36  H   UNL     1       0.093   7.916  22.547  0.00  0.00    +0.000 HD
ENDBRANCH  25  34
ENDBRANCH   1  24
TORSDOF 6
ENDMDL
