MODEL 1
REMARK VINA RESULT:      -8.6      0.000      0.000
REMARK  Name = 
REMARK  7 active torsions:
REMARK  status: ('A' for Active; 'I' for Inactive)
REMARK    1  A    between atoms: C_2  and  C_3
REMARK    2  A    between atoms: C_3  and  C_4
REMARK    3  A    between atoms: C_4  and  C_5
REMARK    4  A    between atoms: C_5  and  C_6
REMARK    5  A    between atoms: C_6  and  N_7
REMARK    6  A    between atoms: C_8  and  C_9
REMARK    7  A    between atoms: N_11  and  C_12
REMARK                            x       y       z     vdW  Elec       q    Type
REMARK                         _______ _______ _______ _____ _____    ______ ____
ROOT
ATOM      1  N   UNL     1       0.549   9.633  19.871  0.00  0.00    +0.000 N 
ATOM      2  C   UNL     1       1.240   8.547  20.403  0.00  0.00    +0.000 A 
ATOM      3  C   UNL     1       0.980   8.562  21.765  0.00  0.00    +0.000 A 
ATOM      4  C   UNL     1       0.114   9.640  22.066  0.00  0.00    +0.000 A 
ATOM      5  C   UNL     1      -0.467  10.114  23.258  0.00  0.00    +0.000 A 
ATOM      6  C   UNL     1      -1.295  11.239  23.224  0.00  0.00    +0.000 A 
ATOM      7  C   UNL     1      -1.567  11.875  22.020  0.00  0.00    +0.000 A 
ATOM      8  C   UNL     1      -1.028  11.401  20.822  0.00  0.00    +0.000 A 
ATOM      9  C   UNL     1      -0.169  10.288  20.866  0.00  0.00    +0.000 A 
ENDROOT
BRANCH   2  10
ATOM     10  C   UNL     1       2.026   7.565  19.662  0.00  0.00    +0.000 C 
ATOM     11  O   UNL     1       2.672   7.854  18.661  0.00  0.00    +0.000 OA
ATOM     12  N   UNL     1       1.975   6.277  20.173  0.00  0.00    +0.000 N 
ATOM     13  H   UNL     1       1.491   6.140  21.047  0.00  0.00    +0.000 HD
BRANCH  12  14
ATOM     14  C   UNL     1       2.608   5.102  19.552  0.00  0.00    +0.000 C 
ATOM     15  C   UNL     1       4.151   5.240  19.525  0.00  0.00    +0.000 C 
ATOM     16  C   UNL     1       4.800   4.013  18.863  0.00  0.00    +0.000 C 
ATOM     17  C   UNL     1       4.455   2.757  19.677  0.00  0.00    +0.000 C 
ATOM     18  C   UNL     1       2.930   2.572  19.729  0.00  0.00    +0.000 C 
ATOM     19  C   UNL     1       2.408   2.398  18.294  0.00  0.00    +0.000 C 
ATOM     20  C   UNL     1       2.730   3.651  17.466  0.00  0.00    +0.000 C 
ATOM     21  C   UNL     1       4.252   3.868  17.433  0.00  0.00    +0.000 C 
ATOM     22  C   UNL     1       2.066   4.876  18.117  0.00  0.00    +0.000 C 
ATOM     23  C   UNL     1       2.280   3.817  20.369  0.00  0.00    +0.000 C 
ENDBRANCH  12  14
ENDBRANCH   2  10
BRANCH   1  24
ATOM     24  C   UNL     1       0.597  10.107  18.490  0.00  0.00    +0.000 C 
BRANCH  24  25
ATOM     25  C   UNL     1      -0.530   9.564  17.595  0.00  0.00    +0.000 C 
BRANCH  25  26
ATOM     26  C   UNL     1      -1.694  10.544  17.452  0.00  0.00    +0.000 C 
BRANCH  26  27
ATOM     27  C   UNL     1      -2.934   9.859  16.879  0.00  0.00    +0.000 C 
BRANCH  27  29
ATOM     28  N   UNL     1      -3.008  10.114  14.265  0.00  0.00    +0.000 NA
ATOM     29  C   UNL     1      -2.973  10.008  15.417  0.00  0.00    +0.000 C 
ENDBRANCH  27  29
ENDBRANCH  26  27
ENDBRANCH  25  26
ENDBRANCH  24  25
ENDBRANCH   1  24
TORSDOF 7
ENDMDL
MODEL 2
REMARK VINA RESULT:      -8.5      0.088      1.437
REMARK  Name = 
REMARK  7 active torsions:
REMARK  status: ('A' for Active; 'I' for Inactive)
REMARK    1  A    between atoms: C_2  and  C_3
REMARK    2  A    between atoms: C_3  and  C_4
REMARK    3  A    between atoms: C_4  and  C_5
REMARK    4  A    between atoms: C_5  and  C_6
REMARK    5  A    between atoms: C_6  and  N_7
REMARK    6  A    between atoms: C_8  and  C_9
REMARK    7  A    between atoms: N_11  and  C_12
REMARK                            x       y       z     vdW  Elec       q    Type
REMARK                         _______ _______ _______ _____ _____    ______ ____
ROOT
ATOM      1  N   UNL     1       0.488   9.617  19.883  0.00  0.00    +0.000 N 
ATOM      2  C   UNL     1       1.201   8.553  20.432  0.00  0.00    +0.000 A 
ATOM      3  C   UNL     1       0.948   8.590  21.795  0.00  0.00    +0.000 A 
ATOM      4  C   UNL     1       0.066   9.659  22.080  0.00  0.00    +0.000 A 
ATOM      5  C   UNL     1      -0.517  10.145  23.266  0.00  0.00    +0.000 A 
ATOM      6  C   UNL     1      -1.365  11.255  23.216  0.00  0.00    +0.000 A 
ATOM      7  C   UNL     1      -1.654  11.863  22.001  0.00  0.00    +0.000 A 
ATOM      8  C   UNL     1      -1.113  11.375  20.809  0.00  0.00    +0.000 A 
ATOM      9  C   UNL     1      -0.235  10.278  20.869  0.00  0.00    +0.000 A 
ENDROOT
BRANCH   2  10
ATOM     10  C   UNL     1       2.000   7.571  19.706  0.00  0.00    +0.000 C 
ATOM     11  O   UNL     1       2.641   7.853  18.699  0.00  0.00    +0.000 OA
ATOM     12  N   UNL     1       1.968   6.291  20.237  0.00  0.00    +0.000 N 
ATOM     13  H   UNL     1       1.487   6.161  21.114  0.00  0.00    +0.000 HD
BRANCH  12  14
ATOM     14  C   UNL     1       2.617   5.114  19.634  0.00  0.00    +0.000 C 
ATOM     15  C   UNL     1       2.254   3.816  20.396  0.00  0.00    +0.000 C 
ATOM     16  C   UNL     1       2.948   2.598  19.766  0.00  0.00    +0.000 C 
ATOM     17  C   UNL     1       2.472   2.438  18.314  0.00  0.00    +0.000 C 
ATOM     18  C   UNL     1       2.815   3.703  17.512  0.00  0.00    +0.000 C 
ATOM     19  C   UNL     1       4.340   3.891  17.520  0.00  0.00    +0.000 C 
ATOM     20  C   UNL     1       4.835   4.066  18.964  0.00  0.00    +0.000 C 
ATOM     21  C   UNL     1       4.469   2.821  19.788  0.00  0.00    +0.000 C 
ATOM     22  C   UNL     1       4.157   5.296  19.589  0.00  0.00    +0.000 C 
ATOM     23  C   UNL     1       2.139   4.929  18.163  0.00  0.00    +0.000 C 
ENDBRANCH  12  14
ENDBRANCH   2  10
BRANCH   1  24
ATOM     24  C   UNL     1       0.521  10.064  18.493  0.00  0.00    +0.000 C 
BRANCH  24  25
ATOM     25  C   UNL     1      -0.624   9.516  17.625  0.00  0.00    +0.000 C 
BRANCH  25  26
ATOM     26  C   UNL     1      -1.749  10.530  17.423  0.00  0.00    +0.000 C 
BRANCH  26  27
ATOM     27  C   UNL     1      -2.977   9.883  16.782  0.00  0.00    +0.000 C 
BRANCH  27  29
ATOM     28  N   UNL     1      -2.927  10.224  14.178  0.00  0.00    +0.000 NA
ATOM     29  C   UNL     1      -2.955  10.073  15.325  0.00  0.00    +0.000 C 
ENDBRANCH  27  29
ENDBRANCH  26  27
ENDBRANCH  25  26
ENDBRANCH  24  25
ENDBRANCH   1  24
TORSDOF 7
ENDMDL
MODEL 3
REMARK VINA RESULT:      -8.3      0.365      1.460
REMARK  Name = 
REMARK  7 active torsions:
REMARK  status: ('A' for Active; 'I' for Inactive)
REMARK    1  A    between atoms: C_2  and  C_3
REMARK    2  A    between atoms: C_3  and  C_4
REMARK    3  A    between atoms: C_4  and  C_5
REMARK    4  A    between atoms: C_5  and  C_6
REMARK    5  A    between atoms: C_6  and  N_7
REMARK    6  A    between atoms: C_8  and  C_9
REMARK    7  A    between atoms: N_11  and  C_12
REMARK                            x       y       z     vdW  Elec       q    Type
REMARK                         _______ _______ _______ _____ _____    ______ ____
ROOT
ATOM      1  N   UNL     1       0.651   9.693  19.909  0.00  0.00    +0.000 N 
ATOM      2  C   UNL     1       1.253   8.548  20.428  0.00  0.00    +0.000 A 
ATOM      3  C   UNL     1       0.915   8.519  21.773  0.00  0.00    +0.000 A 
ATOM      4  C   UNL     1       0.091   9.628  22.074  0.00  0.00    +0.000 A 
ATOM      5  C   UNL     1      -0.533  10.081  23.253  0.00  0.00    +0.000 A 
ATOM      6  C   UNL     1      -1.299  11.250  23.225  0.00  0.00    +0.000 A 
ATOM      7  C   UNL     1      -1.466  11.952  22.038  0.00  0.00    +0.000 A 
ATOM      8  C   UNL     1      -0.884  11.500  20.851  0.00  0.00    +0.000 A 
ATOM      9  C   UNL     1      -0.088  10.341  20.891  0.00  0.00    +0.000 A 
ENDROOT
BRANCH   2  10
ATOM     10  C   UNL     1       2.028   7.558  19.687  0.00  0.00    +0.000 C 
ATOM     11  O   UNL     1       2.698   7.845  18.701  0.00  0.00    +0.000 OA
ATOM     12  N   UNL     1       1.939   6.265  20.179  0.00  0.00    +0.000 N 
ATOM     13  H   UNL     1       1.436   6.128  21.044  0.00  0.00    +0.000 HD
BRANCH  12  14
ATOM     14  C   UNL     1       2.556   5.083  19.554  0.00  0.00    +0.000 C 
ATOM     15  C   UNL     1       2.105   4.925  18.080  0.00  0.00    +0.000 C 
ATOM     16  C   UNL     1       2.745   3.680  17.442  0.00  0.00    +0.000 C 
ATOM     17  C   UNL     1       4.272   3.836  17.451  0.00  0.00    +0.000 C 
ATOM     18  C   UNL     1       4.772   3.992  18.896  0.00  0.00    +0.000 C 
ATOM     19  C   UNL     1       4.392   2.730  19.686  0.00  0.00    +0.000 C 
ATOM     20  C   UNL     1       2.865   2.563  19.701  0.00  0.00    +0.000 C 
ATOM     21  C   UNL     1       2.348   2.439  18.259  0.00  0.00    +0.000 C 
ATOM     22  C   UNL     1       2.225   3.798  20.357  0.00  0.00    +0.000 C 
ATOM     23  C   UNL     1       4.107   5.226  19.543  0.00  0.00    +0.000 C 
ENDBRANCH  12  14
ENDBRANCH   2  10
BRANCH   1  24
ATOM     24  C   UNL     1       0.804  10.222  18.556  0.00  0.00    +0.000 C 
BRANCH  24  25
ATOM     25  C   UNL     1      -0.209   9.666  17.541  0.00  0.00    +0.000 C 
BRANCH  25  26
ATOM     26  C   UNL     1      -1.656   9.979  17.920  0.00  0.00    +0.000 C 
BRANCH  26  27
ATOM     27  C   UNL     1      -2.208  11.147  17.102  0.00  0.00    +0.000 C 
BRANCH  27  29
ATOM     28  N   UNL     1      -3.058  10.314  14.761  0.00  0.00    +0.000 NA
ATOM     29  C   UNL     1      -2.678  10.679  15.791  0.00  0.00    +0.000 C 
ENDBRANCH  27  29
ENDBRANCH  26  27
ENDBRANCH  25  26
ENDBRANCH  24  25
ENDBRANCH   1  24
TORSDOF 7
ENDMDL
MODEL 4
REMARK VINA RESULT:      -8.2      0.945      1.748
REMARK  Name = 
REMARK  7 active torsions:
REMARK  status: ('A' for Active; 'I' for Inactive)
REMARK    1  A    between atoms: C_2  and  C_3
REMARK    2  A    between atoms: C_3  and  C_4
REMARK    3  A    between atoms: C_4  and  C_5
REMARK    4  A    between atoms: C_5  and  C_6
REMARK    5  A    between atoms: C_6  and  N_7
REMARK    6  A    between atoms: C_8  and  C_9
REMARK    7  A    between atoms: N_11  and  C_12
REMARK                            x       y       z     vdW  Elec       q    Type
REMARK                         _______ _______ _______ _____ _____    ______ ____
ROOT
ATOM      1  N   UNL     1       0.544   9.627  19.861  0.00  0.00    +0.000 N 
ATOM      2  C   UNL     1       1.238   8.543  20.397  0.00  0.00    +0.000 A 
ATOM      3  C   UNL     1       0.980   8.563  21.759  0.00  0.00    +0.000 A 
ATOM      4  C   UNL     1       0.113   9.641  22.057  0.00  0.00    +0.000 A 
ATOM      5  C   UNL     1      -0.467  10.118  23.248  0.00  0.00    +0.000 A 
ATOM      6  C   UNL     1      -1.298  11.242  23.211  0.00  0.00    +0.000 A 
ATOM      7  C   UNL     1      -1.572  11.874  22.005  0.00  0.00    +0.000 A 
ATOM      8  C   UNL     1      -1.034  11.395  20.808  0.00  0.00    +0.000 A 
ATOM      9  C   UNL     1      -0.173  10.284  20.855  0.00  0.00    +0.000 A 
ENDROOT
BRANCH   2  10
ATOM     10  C   UNL     1       2.024   7.561  19.658  0.00  0.00    +0.000 C 
ATOM     11  O   UNL     1       2.667   7.847  18.654  0.00  0.00    +0.000 OA
ATOM     12  N   UNL     1       1.979   6.275  20.175  0.00  0.00    +0.000 N 
ATOM     13  H   UNL     1       1.498   6.141  21.052  0.00  0.00    +0.000 HD
BRANCH  12  14
ATOM     14  C   UNL     1       2.614   5.098  19.558  0.00  0.00    +0.000 C 
ATOM     15  C   UNL     1       2.259   3.799  20.323  0.00  0.00    +0.000 C 
ATOM     16  C   UNL     1       2.938   2.580  19.678  0.00  0.00    +0.000 C 
ATOM     17  C   UNL     1       2.437   2.426  18.235  0.00  0.00    +0.000 C 
ATOM     18  C   UNL     1       2.771   3.692  17.429  0.00  0.00    +0.000 C 
ATOM     19  C   UNL     1       4.297   3.875  17.413  0.00  0.00    +0.000 C 
ATOM     20  C   UNL     1       4.817   4.045  18.848  0.00  0.00    +0.000 C 
ATOM     21  C   UNL     1       4.460   2.798  19.675  0.00  0.00    +0.000 C 
ATOM     22  C   UNL     1       4.153   5.275  19.488  0.00  0.00    +0.000 C 
ATOM     23  C   UNL     1       2.110   4.918  18.096  0.00  0.00    +0.000 C 
ENDBRANCH  12  14
ENDBRANCH   2  10
BRANCH   1  24
ATOM     24  C   UNL     1       0.590  10.095  18.478  0.00  0.00    +0.000 C 
BRANCH  24  25
ATOM     25  C   UNL     1      -0.531   9.538  17.585  0.00  0.00    +0.000 C 
BRANCH  25  26
ATOM     26  C   UNL     1      -1.699  10.511  17.427  0.00  0.00    +0.000 C 
BRANCH  26  27
ATOM     27  C   UNL     1      -3.043   9.786  17.488  0.00  0.00    +0.000 C 
BRANCH  27  29
ATOM     28  N   UNL     1      -4.966  11.474  18.079  0.00  0.00    +0.000 NA
ATOM     29  C   UNL     1      -4.119  10.728  17.825  0.00  0.00    +0.000 C 
ENDBRANCH  27  29
ENDBRANCH  26  27
ENDBRANCH  25  26
ENDBRANCH  24  25
ENDBRANCH   1  24
TORSDOF 7
ENDMDL
MODEL 5
REMARK VINA RESULT:      -8.2      1.864      2.869
REMARK  Name = 
REMARK  7 active torsions:
REMARK  status: ('A' for Active; 'I' for Inactive)
REMARK    1  A    between atoms: C_2  and  C_3
REMARK    2  A    between atoms: C_3  and  C_4
REMARK    3  A    between atoms: C_4  and  C_5
REMARK    4  A    between atoms: C_5  and  C_6
REMARK    5  A    between atoms: C_6  and  N_7
REMARK    6  A    between atoms: C_8  and  C_9
REMARK    7  A    between atoms: N_11  and  C_12
REMARK                            x       y       z     vdW  Elec       q    Type
REMARK                         _______ _______ _______ _____ _____    ______ ____
ROOT
ATOM      1  N   UNL     1       0.727   9.598  19.777  0.00  0.00    +0.000 N 
ATOM      2  C   UNL     1       1.325   8.459  20.313  0.00  0.00    +0.000 A 
ATOM      3  C   UNL     1       0.983   8.448  21.657  0.00  0.00    +0.000 A 
ATOM      4  C   UNL     1       0.160   9.563  21.942  0.00  0.00    +0.000 A 
ATOM      5  C   UNL     1      -0.466  10.032  23.112  0.00  0.00    +0.000 A 
ATOM      6  C   UNL     1      -1.229  11.203  23.067  0.00  0.00    +0.000 A 
ATOM      7  C   UNL     1      -1.392  11.889  21.871  0.00  0.00    +0.000 A 
ATOM      8  C   UNL     1      -0.806  11.422  20.692  0.00  0.00    +0.000 A 
ATOM      9  C   UNL     1      -0.013  10.261  20.749  0.00  0.00    +0.000 A 
ENDROOT
BRANCH   2  10
ATOM     10  C   UNL     1       2.100   7.458  19.588  0.00  0.00    +0.000 C 
ATOM     11  O   UNL     1       2.824   7.741  18.639  0.00  0.00    +0.000 OA
ATOM     12  N   UNL     1       1.945   6.159  20.048  0.00  0.00    +0.000 N 
ATOM     13  H   UNL     1       1.399   6.023  20.885  0.00  0.00    +0.000 HD
BRANCH  12  14
ATOM     14  C   UNL     1       2.550   4.969  19.426  0.00  0.00    +0.000 C 
ATOM     15  C   UNL     1       4.097   5.042  19.455  0.00  0.00    +0.000 C 
ATOM     16  C   UNL     1       4.717   3.801  18.792  0.00  0.00    +0.000 C 
ATOM     17  C   UNL     1       4.292   2.546  19.568  0.00  0.00    +0.000 C 
ATOM     18  C   UNL     1       2.760   2.425  19.564  0.00  0.00    +0.000 C 
ATOM     19  C   UNL     1       2.281   2.301  18.109  0.00  0.00    +0.000 C 
ATOM     20  C   UNL     1       2.685   3.554  17.318  0.00  0.00    +0.000 C 
ATOM     21  C   UNL     1       4.214   3.706  17.341  0.00  0.00    +0.000 C 
ATOM     22  C   UNL     1       2.049   4.793  17.969  0.00  0.00    +0.000 C 
ATOM     23  C   UNL     1       2.140   3.685  20.206  0.00  0.00    +0.000 C 
ENDBRANCH  12  14
ENDBRANCH   2  10
BRANCH   1  24
ATOM     24  C   UNL     1       0.886  10.110  18.419  0.00  0.00    +0.000 C 
BRANCH  24  25
ATOM     25  C   UNL     1       2.065  11.082  18.242  0.00  0.00    +0.000 C 
BRANCH  25  26
ATOM     26  C   UNL     1       1.637  12.547  18.308  0.00  0.00    +0.000 C 
BRANCH  26  27
ATOM     27  C   UNL     1       2.654  13.394  19.072  0.00  0.00    +0.000 C 
BRANCH  27  29
ATOM     28  N   UNL     1       1.893  13.734  21.562  0.00  0.00    +0.000 NA
ATOM     29  C   UNL     1       2.222  13.585  20.463  0.00  0.00    +0.000 C 
ENDBRANCH  27  29
ENDBRANCH  26  27
ENDBRANCH  25  26
ENDBRANCH  24  25
ENDBRANCH   1  24
TORSDOF 7
ENDMDL
MODEL 6
REMARK VINA RESULT:      -8.1      1.861      3.184
REMARK  Name = 
REMARK  7 active torsions:
REMARK  status: ('A' for Active; 'I' for Inactive)
REMARK    1  A    between atoms: C_2  and  C_3
REMARK    2  A    between atoms: C_3  and  C_4
REMARK    3  A    between atoms: C_4  and  C_5
REMARK    4  A    between atoms: C_5  and  C_6
REMARK    5  A    between atoms: C_6  and  N_7
REMARK    6  A    between atoms: C_8  and  C_9
REMARK    7  A    between atoms: N_11  and  C_12
REMARK                            x       y       z     vdW  Elec       q    Type
REMARK                         _______ _______ _______ _____ _____    ______ ____
ROOT
ATOM      1  N   UNL     1       0.708   9.581  19.804  0.00  0.00    +0.000 N 
ATOM      2  C   UNL     1       1.311   8.445  20.341  0.00  0.00    +0.000 A 
ATOM      3  C   UNL     1       0.977   8.439  21.687  0.00  0.00    +0.000 A 
ATOM      4  C   UNL     1       0.153   9.554  21.971  0.00  0.00    +0.000 A 
ATOM      5  C   UNL     1      -0.469  10.027  23.143  0.00  0.00    +0.000 A 
ATOM      6  C   UNL     1      -1.235  11.195  23.097  0.00  0.00    +0.000 A 
ATOM      7  C   UNL     1      -1.405  11.876  21.899  0.00  0.00    +0.000 A 
ATOM      8  C   UNL     1      -0.825  11.405  20.719  0.00  0.00    +0.000 A 
ATOM      9  C   UNL     1      -0.029  10.246  20.777  0.00  0.00    +0.000 A 
ENDROOT
BRANCH   2  10
ATOM     10  C   UNL     1       2.085   7.443  19.616  0.00  0.00    +0.000 C 
ATOM     11  O   UNL     1       2.813   7.726  18.671  0.00  0.00    +0.000 OA
ATOM     12  N   UNL     1       1.923   6.144  20.072  0.00  0.00    +0.000 N 
ATOM     13  H   UNL     1       1.373   6.008  20.907  0.00  0.00    +0.000 HD
BRANCH  12  14
ATOM     14  C   UNL     1       2.525   4.953  19.449  0.00  0.00    +0.000 C 
ATOM     15  C   UNL     1       2.107   4.820  17.964  0.00  0.00    +0.000 C 
ATOM     16  C   UNL     1       2.732   3.567  17.329  0.00  0.00    +0.000 C 
ATOM     17  C   UNL     1       4.262   3.684  17.376  0.00  0.00    +0.000 C 
ATOM     18  C   UNL     1       4.730   3.814  18.835  0.00  0.00    +0.000 C 
ATOM     19  C   UNL     1       4.299   2.553  19.602  0.00  0.00    +0.000 C 
ATOM     20  C   UNL     1       2.769   2.425  19.578  0.00  0.00    +0.000 C 
ATOM     21  C   UNL     1       2.284   2.328  18.122  0.00  0.00    +0.000 C 
ATOM     22  C   UNL     1       2.144   3.669  20.230  0.00  0.00    +0.000 C 
ATOM     23  C   UNL     1       4.079   5.058  19.478  0.00  0.00    +0.000 C 
ENDBRANCH  12  14
ENDBRANCH   2  10
BRANCH   1  24
ATOM     24  C   UNL     1       0.858  10.087  18.442  0.00  0.00    +0.000 C 
BRANCH  24  25
ATOM     25  C   UNL     1       2.033  11.061  18.255  0.00  0.00    +0.000 C 
BRANCH  25  26
ATOM     26  C   UNL     1       1.609  12.525  18.360  0.00  0.00    +0.000 C 
BRANCH  26  27
ATOM     27  C   UNL     1       2.636  13.352  19.132  0.00  0.00    +0.000 C 
BRANCH  27  29
ATOM     28  N   UNL     1       1.803  13.772  21.587  0.00  0.00    +0.000 NA
ATOM     29  C   UNL     1       2.175  13.590  20.506  0.00  0.00    +0.000 C 
ENDBRANCH  27  29
ENDBRANCH  26  27
ENDBRANCH  25  26
ENDBRANCH  24  25
ENDBRANCH   1  24
TORSDOF 7
ENDMDL
MODEL 7
REMARK VINA RESULT:      -8.1      1.889      3.214
REMARK  Name = 
REMARK  7 active torsions:
REMARK  status: ('A' for Active; 'I' for Inactive)
REMARK    1  A    between atoms: C_2  and  C_3
REMARK    2  A    between atoms: C_3  and  C_4
REMARK    3  A    between atoms: C_4  and  C_5
REMARK    4  A    between atoms: C_5  and  C_6
REMARK    5  A    between atoms: C_6  and  N_7
REMARK    6  A    between atoms: C_8  and  C_9
REMARK    7  A    between atoms: N_11  and  C_12
REMARK                            x       y       z     vdW  Elec       q    Type
REMARK                         _______ _______ _______ _____ _____    ______ ____
ROOT
ATOM      1  N   UNL     1       0.748   9.743  19.807  0.00  0.00    +0.000 N 
ATOM      2  C   UNL     1       1.296   8.574  20.334  0.00  0.00    +0.000 A 
ATOM      3  C   UNL     1       0.916   8.544  21.667  0.00  0.00    +0.000 A 
ATOM      4  C   UNL     1       0.118   9.677  21.954  0.00  0.00    +0.000 A 
ATOM      5  C   UNL     1      -0.528  10.140  23.116  0.00  0.00    +0.000 A 
ATOM      6  C   UNL     1      -1.254  11.334  23.076  0.00  0.00    +0.000 A 
ATOM      7  C   UNL     1      -1.361  12.051  21.892  0.00  0.00    +0.000 A 
ATOM      8  C   UNL     1      -0.756  11.591  20.719  0.00  0.00    +0.000 A 
ATOM      9  C   UNL     1       0.000  10.407  20.773  0.00  0.00    +0.000 A 
ENDROOT
BRANCH   2  10
ATOM     10  C   UNL     1       2.062   7.567  19.608  0.00  0.00    +0.000 C 
ATOM     11  O   UNL     1       2.697   7.823  18.591  0.00  0.00    +0.000 OA
ATOM     12  N   UNL     1       2.007   6.293  20.153  0.00  0.00    +0.000 N 
ATOM     13  H   UNL     1       1.534   6.184  21.037  0.00  0.00    +0.000 HD
BRANCH  12  14
ATOM     14  C   UNL     1       2.621   5.095  19.555  0.00  0.00    +0.000 C 
ATOM     15  C   UNL     1       2.263   3.818  20.354  0.00  0.00    +0.000 C 
ATOM     16  C   UNL     1       2.920   2.577  19.728  0.00  0.00    +0.000 C 
ATOM     17  C   UNL     1       2.397   2.396  18.295  0.00  0.00    +0.000 C 
ATOM     18  C   UNL     1       2.733   3.639  17.457  0.00  0.00    +0.000 C 
ATOM     19  C   UNL     1       4.260   3.805  17.415  0.00  0.00    +0.000 C 
ATOM     20  C   UNL     1       4.802   4.002  18.838  0.00  0.00    +0.000 C 
ATOM     21  C   UNL     1       4.444   2.779  19.698  0.00  0.00    +0.000 C 
ATOM     22  C   UNL     1       4.160   5.254  19.459  0.00  0.00    +0.000 C 
ATOM     23  C   UNL     1       2.094   4.887  18.104  0.00  0.00    +0.000 C 
ENDBRANCH  12  14
ENDBRANCH   2  10
BRANCH   1  24
ATOM     24  C   UNL     1       0.961  10.279  18.465  0.00  0.00    +0.000 C 
BRANCH  24  25
ATOM     25  C   UNL     1       2.111  11.295  18.365  0.00  0.00    +0.000 C 
BRANCH  25  26
ATOM     26  C   UNL     1       1.620  12.721  18.125  0.00  0.00    +0.000 C 
BRANCH  26  27
ATOM     27  C   UNL     1       2.496  13.744  18.848  0.00  0.00    +0.000 C 
BRANCH  27  29
ATOM     28  N   UNL     1       2.399  13.349  21.443  0.00  0.00    +0.000 NA
ATOM     29  C   UNL     1       2.443  13.530  20.301  0.00  0.00    +0.000 C 
ENDBRANCH  27  29
ENDBRANCH  26  27
ENDBRANCH  25  26
ENDBRANCH  24  25
ENDBRANCH   1  24
TORSDOF 7
ENDMDL
MODEL 8
REMARK VINA RESULT:      -7.9      1.926      3.171
REMARK  Name = 
REMARK  7 active torsions:
REMARK  status: ('A' for Active; 'I' for Inactive)
REMARK    1  A    between atoms: C_2  and  C_3
REMARK    2  A    between atoms: C_3  and  C_4
REMARK    3  A    between atoms: C_4  and  C_5
REMARK    4  A    between atoms: C_5  and  C_6
REMARK    5  A    between atoms: C_6  and  N_7
REMARK    6  A    between atoms: C_8  and  C_9
REMARK    7  A    between atoms: N_11  and  C_12
REMARK                            x       y       z     vdW  Elec       q    Type
REMARK                         _______ _______ _______ _____ _____    ______ ____
ROOT
ATOM      1  N   UNL     1       0.714   9.706  19.826  0.00  0.00    +0.000 N 
ATOM      2  C   UNL     1       1.283   8.546  20.350  0.00  0.00    +0.000 A 
ATOM      3  C   UNL     1       0.916   8.515  21.687  0.00  0.00    +0.000 A 
ATOM      4  C   UNL     1       0.106   9.638  21.979  0.00  0.00    +0.000 A 
ATOM      5  C   UNL     1      -0.534  10.096  23.146  0.00  0.00    +0.000 A 
ATOM      6  C   UNL     1      -1.277  11.279  23.110  0.00  0.00    +0.000 A 
ATOM      7  C   UNL     1      -1.406  11.991  21.925  0.00  0.00    +0.000 A 
ATOM      8  C   UNL     1      -0.807  11.536  20.748  0.00  0.00    +0.000 A 
ATOM      9  C   UNL     1      -0.034  10.362  20.797  0.00  0.00    +0.000 A 
ENDROOT
BRANCH   2  10
ATOM     10  C   UNL     1       2.055   7.547  19.620  0.00  0.00    +0.000 C 
ATOM     11  O   UNL     1       2.709   7.818  18.618  0.00  0.00    +0.000 OA
ATOM     12  N   UNL     1       1.981   6.264  20.140  0.00  0.00    +0.000 N 
ATOM     13  H   UNL     1       1.492   6.142  21.014  0.00  0.00    +0.000 HD
BRANCH  12  14
ATOM     14  C   UNL     1       2.598   5.073  19.531  0.00  0.00    +0.000 C 
ATOM     15  C   UNL     1       2.131   4.883  18.066  0.00  0.00    +0.000 C 
ATOM     16  C   UNL     1       2.771   3.630  17.446  0.00  0.00    +0.000 C 
ATOM     17  C   UNL     1       4.297   3.794  17.433  0.00  0.00    +0.000 C 
ATOM     18  C   UNL     1       4.813   3.982  18.869  0.00  0.00    +0.000 C 
ATOM     19  C   UNL     1       4.450   2.734  19.688  0.00  0.00    +0.000 C 
ATOM     20  C   UNL     1       2.925   2.559  19.724  0.00  0.00    +0.000 C 
ATOM     21  C   UNL     1       2.391   2.403  18.291  0.00  0.00    +0.000 C 
ATOM     22  C   UNL     1       2.285   3.803  20.363  0.00  0.00    +0.000 C 
ATOM     23  C   UNL     1       4.148   5.225  19.498  0.00  0.00    +0.000 C 
ENDBRANCH  12  14
ENDBRANCH   2  10
BRANCH   1  24
ATOM     24  C   UNL     1       0.905  10.240  18.480  0.00  0.00    +0.000 C 
BRANCH  24  25
ATOM     25  C   UNL     1       2.095  11.205  18.347  0.00  0.00    +0.000 C 
BRANCH  25  26
ATOM     26  C   UNL     1       1.667  12.672  18.330  0.00  0.00    +0.000 C 
BRANCH  26  27
ATOM     27  C   UNL     1       2.677  13.559  19.057  0.00  0.00    +0.000 C 
BRANCH  27  29
ATOM     28  N   UNL     1       3.560  15.436  17.446  0.00  0.00    +0.000 NA
ATOM     29  C   UNL     1       3.174  14.612  18.161  0.00  0.00    +0.000 C 
ENDBRANCH  27  29
ENDBRANCH  26  27
ENDBRANCH  25  26
ENDBRANCH  24  25
ENDBRANCH   1  24
TORSDOF 7
ENDMDL
MODEL 9
REMARK VINA RESULT:      -7.6      0.874      1.174
REMARK  Name = 
REMARK  7 active torsions:
REMARK  status: ('A' for Active; 'I' for Inactive)
REMARK    1  A    between atoms: C_2  and  C_3
REMARK    2  A    between atoms: C_3  and  C_4
REMARK    3  A    between atoms: C_4  and  C_5
REMARK    4  A    between atoms: C_5  and  C_6
REMARK    5  A    between atoms: C_6  and  N_7
REMARK    6  A    between atoms: C_8  and  C_9
REMARK    7  A    between atoms: N_11  and  C_12
REMARK                            x       y       z     vdW  Elec       q    Type
REMARK                         _______ _______ _______ _____ _____    ______ ____
ROOT
ATOM      1  N   UNL     1       0.499   9.862  19.725  0.00  0.00    +0.000 N 
ATOM      2  C   UNL     1       1.243   8.723  20.029  0.00  0.00    +0.000 A 
ATOM      3  C   UNL     1       1.068   8.508  21.388  0.00  0.00    +0.000 A 
ATOM      4  C   UNL     1       0.202   9.496  21.913  0.00  0.00    +0.000 A 
ATOM      5  C   UNL     1      -0.313   9.750  23.199  0.00  0.00    +0.000 A 
ATOM      6  C   UNL     1      -1.164  10.841  23.400  0.00  0.00    +0.000 A 
ATOM      7  C   UNL     1      -1.523  11.657  22.336  0.00  0.00    +0.000 A 
ATOM      8  C   UNL     1      -1.050  11.402  21.046  0.00  0.00    +0.000 A 
ATOM      9  C   UNL     1      -0.168  10.322  20.855  0.00  0.00    +0.000 A 
ENDROOT
BRANCH   2  10
ATOM     10  C   UNL     1       2.000   7.901  19.092  0.00  0.00    +0.000 C 
ATOM     11  O   UNL     1       2.086   8.166  17.898  0.00  0.00    +0.000 OA
ATOM     12  N   UNL     1       2.607   6.789  19.655  0.00  0.00    +0.000 N 
ATOM     13  H   UNL     1       2.560   6.689  20.658  0.00  0.00    +0.000 HD
BRANCH  12  14
ATOM     14  C   UNL     1       3.347   5.763  18.902  0.00  0.00    +0.000 C 
ATOM     15  C   UNL     1       4.404   6.401  17.968  0.00  0.00    +0.000 C 
ATOM     16  C   UNL     1       5.161   5.322  17.177  0.00  0.00    +0.000 C 
ATOM     17  C   UNL     1       5.899   4.399  18.158  0.00  0.00    +0.000 C 
ATOM     18  C   UNL     1       4.889   3.734  19.107  0.00  0.00    +0.000 C 
ATOM     19  C   UNL     1       3.909   2.896  18.272  0.00  0.00    +0.000 C 
ATOM     20  C   UNL     1       3.150   3.803  17.292  0.00  0.00    +0.000 C 
ATOM     21  C   UNL     1       4.151   4.501  16.357  0.00  0.00    +0.000 C 
ATOM     22  C   UNL     1       2.377   4.872  18.083  0.00  0.00    +0.000 C 
ATOM     23  C   UNL     1       4.112   4.822  19.880  0.00  0.00    +0.000 C 
ENDBRANCH  12  14
ENDBRANCH   2  10
BRANCH   1  24
ATOM     24  C   UNL     1       0.452  10.556  18.441  0.00  0.00    +0.000 C 
BRANCH  24  25
ATOM     25  C   UNL     1      -0.962  10.967  17.996  0.00  0.00    +0.000 C 
BRANCH  25  26
ATOM     26  C   UNL     1      -1.685   9.860  17.231  0.00  0.00    +0.000 C 
BRANCH  26  27
ATOM     27  C   UNL     1      -2.986  10.367  16.609  0.00  0.00    +0.000 C 
BRANCH  27  29
ATOM     28  N   UNL     1      -2.959  10.003  14.008  0.00  0.00    +0.000 NA
ATOM     29  C   UNL     1      -2.976  10.159  15.155  0.00  0.00    +0.000 C 
ENDBRANCH  27  29
ENDBRANCH  26  27
ENDBRANCH  25  26
ENDBRANCH  24  25
ENDBRANCH   1  24
TORSDOF 7
ENDMDL
