MODEL 1
REMARK VINA RESULT:      -7.7      0.000      0.000
REMARK  Name = 
REMARK  2 active torsions:
REMARK  status: ('A' for Active; 'I' for Inactive)
REMARK    1  A    between atoms: C_2  and  C_4
REMARK    2  A    between atoms: C_9  and  C_11
REMARK                            x       y       z     vdW  Elec       q    Type
REMARK                         _______ _______ _______ _____ _____    ______ ____
ROOT
ATOM      1  C   UNL     1       1.632   3.933  20.673  0.00  0.00    +0.000 C 
ATOM      2  C   UNL     1       0.711   3.285  19.624  0.00  0.00    +0.000 C 
ATOM      3  C   UNL     1       1.300   3.288  18.213  0.00  0.00    +0.000 C 
ATOM      4  C   UNL     1       1.793   4.686  17.843  0.00  0.00    +0.000 C 
ATOM      5  N   UNL     1       2.805   5.101  18.812  0.00  0.00    +0.000 N 
ATOM      6  C   UNL     1       4.157   5.357  18.562  0.00  0.00    +0.000 C 
ATOM      7  O   UNL     1       4.909   5.775  19.443  0.00  0.00    +0.000 OA
ATOM      8  C   UNL     1       2.286   5.229  20.180  0.00  0.00    +0.000 C 
ENDROOT
BRANCH   6   9
ATOM      9  C   UNL     1       4.770   5.058  17.241  0.00  0.00    +0.000 A 
ATOM     10  C   UNL     1       4.982   6.109  16.337  0.00  0.00    +0.000 A 
ATOM     11  C   UNL     1       5.554   5.858  15.086  0.00  0.00    +0.000 A 
ATOM     12  C   UNL     1       5.911   4.556  14.735  0.00  0.00    +0.000 A 
ATOM     13 CL   UNL     1       6.554   4.229  13.175  0.00  0.00    +0.000 Cl
ATOM     14  C   UNL     1       5.760   3.516  15.646  0.00  0.00    +0.000 A 
ATOM     15  C   UNL     1       5.234   3.779  16.912  0.00  0.00    +0.000 A 
ENDBRANCH   6   9
BRANCH   1  17
ATOM     16  N   UNL     1       3.651   2.505  20.448  0.00  0.00    +0.000 N 
ATOM     17  C   UNL     1       2.615   2.916  21.233  0.00  0.00    +0.000 C 
ATOM     18  O   UNL     1       2.445   2.382  22.328  0.00  0.00    +0.000 OA
ATOM     19  H   UNL     1       4.314   1.891  20.904  0.00  0.00    +0.000 HD
ATOM     20  H   UNL     1       4.054   3.146  19.774  0.00  0.00    +0.000 HD
ENDBRANCH   1  17
TORSDOF 2
ENDMDL
MODEL 2
REMARK VINA RESULT:      -7.6      0.303      1.178
REMARK  Name = 
REMARK  2 active torsions:
REMARK  status: ('A' for Active; 'I' for Inactive)
REMARK    1  A    between atoms: C_2  and  C_4
REMARK    2  A    between atoms: C_9  and  C_11
REMARK                            x       y       z     vdW  Elec       q    Type
REMARK                         _______ _______ _______ _____ _____    ______ ____
ROOT
ATOM      1  C   UNL     1       1.373   3.754  20.623  0.00  0.00    +0.000 C 
ATOM      2  C   UNL     1       0.566   3.061  19.511  0.00  0.00    +0.000 C 
ATOM      3  C   UNL     1       1.229   3.147  18.135  0.00  0.00    +0.000 C 
ATOM      4  C   UNL     1       1.625   4.588  17.822  0.00  0.00    +0.000 C 
ATOM      5  N   UNL     1       2.546   5.059  18.855  0.00  0.00    +0.000 N 
ATOM      6  C   UNL     1       3.885   5.429  18.687  0.00  0.00    +0.000 C 
ATOM      7  O   UNL     1       4.550   5.884  19.616  0.00  0.00    +0.000 OA
ATOM      8  C   UNL     1       1.945   5.111  20.194  0.00  0.00    +0.000 C 
ENDROOT
BRANCH   6   9
ATOM      9  C   UNL     1       4.591   5.213  17.396  0.00  0.00    +0.000 A 
ATOM     10  C   UNL     1       5.029   3.922  17.070  0.00  0.00    +0.000 A 
ATOM     11  C   UNL     1       5.698   3.687  15.865  0.00  0.00    +0.000 A 
ATOM     12  C   UNL     1       5.935   4.745  14.987  0.00  0.00    +0.000 A 
ATOM     13 CL   UNL     1       6.815   4.479  13.534  0.00  0.00    +0.000 Cl
ATOM     14  C   UNL     1       5.453   6.018  15.273  0.00  0.00    +0.000 A 
ATOM     15  C   UNL     1       4.743   6.237  16.454  0.00  0.00    +0.000 A 
ENDBRANCH   6   9
BRANCH   1  17
ATOM     16  N   UNL     1       3.529   2.529  20.498  0.00  0.00    +0.000 N 
ATOM     17  C   UNL     1       2.404   2.807  21.216  0.00  0.00    +0.000 C 
ATOM     18  O   UNL     1       2.205   2.208  22.273  0.00  0.00    +0.000 OA
ATOM     19  H   UNL     1       4.212   1.958  20.979  0.00  0.00    +0.000 HD
ATOM     20  H   UNL     1       3.918   3.235  19.883  0.00  0.00    +0.000 HD
ENDBRANCH   1  17
TORSDOF 2
ENDMDL
MODEL 3
REMARK VINA RESULT:      -7.0      3.738      4.867
REMARK  Name = 
REMARK  2 active torsions:
REMARK  status: ('A' for Active; 'I' for Inactive)
REMARK    1  A    between atoms: C_2  and  C_4
REMARK    2  A    between atoms: C_9  and  C_11
REMARK                            x       y       z     vdW  Elec       q    Type
REMARK                         _______ _______ _______ _____ _____    ______ ____
ROOT
ATOM      1  C   UNL     1       2.903   2.336  19.461  0.00  0.00    +0.000 C 
ATOM      2  C   UNL     1       1.401   2.232  19.782  0.00  0.00    +0.000 C 
ATOM      3  C   UNL     1       0.688   3.584  19.798  0.00  0.00    +0.000 C 
ATOM      4  C   UNL     1       1.452   4.581  20.668  0.00  0.00    +0.000 C 
ATOM      5  N   UNL     1       2.805   4.732  20.136  0.00  0.00    +0.000 N 
ATOM      6  C   UNL     1       3.375   5.889  19.594  0.00  0.00    +0.000 C 
ATOM      7  O   UNL     1       4.553   5.924  19.242  0.00  0.00    +0.000 OA
ATOM      8  C   UNL     1       3.595   3.495  20.190  0.00  0.00    +0.000 C 
ENDROOT
BRANCH   6   9
ATOM      9  C   UNL     1       2.561   7.107  19.341  0.00  0.00    +0.000 A 
ATOM     10  C   UNL     1       1.898   7.715  20.417  0.00  0.00    +0.000 A 
ATOM     11  C   UNL     1       1.123   8.861  20.210  0.00  0.00    +0.000 A 
ATOM     12  C   UNL     1       1.004   9.396  18.927  0.00  0.00    +0.000 A 
ATOM     13 CL   UNL     1       0.001  10.764  18.653  0.00  0.00    +0.000 Cl
ATOM     14  C   UNL     1       1.705   8.834  17.865  0.00  0.00    +0.000 A 
ATOM     15  C   UNL     1       2.516   7.721  18.084  0.00  0.00    +0.000 A 
ENDBRANCH   6   9
BRANCH   1  17
ATOM     16  N   UNL     1       4.355   2.706  17.482  0.00  0.00    +0.000 N 
ATOM     17  C   UNL     1       3.139   2.319  17.959  0.00  0.00    +0.000 C 
ATOM     18  O   UNL     1       2.236   2.066  17.162  0.00  0.00    +0.000 OA
ATOM     19  H   UNL     1       4.476   2.597  16.483  0.00  0.00    +0.000 HD
ATOM     20  H   UNL     1       5.188   2.537  18.035  0.00  0.00    +0.000 HD
ENDBRANCH   1  17
TORSDOF 2
ENDMDL
MODEL 4
REMARK VINA RESULT:      -7.0      1.602      1.896
REMARK  Name = 
REMARK  2 active torsions:
REMARK  status: ('A' for Active; 'I' for Inactive)
REMARK    1  A    between atoms: C_2  and  C_4
REMARK    2  A    between atoms: C_9  and  C_11
REMARK                            x       y       z     vdW  Elec       q    Type
REMARK                         _______ _______ _______ _____ _____    ______ ____
ROOT
ATOM      1  C   UNL     1       3.169   4.237  20.005  0.00  0.00    +0.000 C 
ATOM      2  C   UNL     1       1.985   4.538  19.069  0.00  0.00    +0.000 C 
ATOM      3  C   UNL     1       2.390   4.684  17.602  0.00  0.00    +0.000 C 
ATOM      4  C   UNL     1       3.564   5.651  17.465  0.00  0.00    +0.000 C 
ATOM      5  N   UNL     1       4.688   5.143  18.250  0.00  0.00    +0.000 N 
ATOM      6  C   UNL     1       5.931   4.722  17.768  0.00  0.00    +0.000 C 
ATOM      7  O   UNL     1       6.837   4.381  18.529  0.00  0.00    +0.000 OA
ATOM      8  C   UNL     1       4.412   5.080  19.691  0.00  0.00    +0.000 C 
ENDROOT
BRANCH   6   9
ATOM      9  C   UNL     1       6.191   4.586  16.311  0.00  0.00    +0.000 A 
ATOM     10  C   UNL     1       7.244   5.313  15.739  0.00  0.00    +0.000 A 
ATOM     11  C   UNL     1       7.512   5.209  14.370  0.00  0.00    +0.000 A 
ATOM     12  C   UNL     1       6.722   4.381  13.571  0.00  0.00    +0.000 A 
ATOM     13 CL   UNL     1       7.002   4.297  11.877  0.00  0.00    +0.000 Cl
ATOM     14  C   UNL     1       5.713   3.611  14.139  0.00  0.00    +0.000 A 
ATOM     15  C   UNL     1       5.482   3.681  15.513  0.00  0.00    +0.000 A 
ENDBRANCH   6   9
BRANCH   1  17
ATOM     16  N   UNL     1       4.727   2.308  20.122  0.00  0.00    +0.000 N 
ATOM     17  C   UNL     1       3.437   2.741  20.076  0.00  0.00    +0.000 C 
ATOM     18  O   UNL     1       2.530   1.914  19.990  0.00  0.00    +0.000 OA
ATOM     19  H   UNL     1       4.839   1.310  20.250  0.00  0.00    +0.000 HD
ATOM     20  H   UNL     1       5.432   2.878  20.576  0.00  0.00    +0.000 HD
ENDBRANCH   1  17
TORSDOF 2
ENDMDL
MODEL 5
REMARK VINA RESULT:      -7.0      2.531      3.196
REMARK  Name = 
REMARK  2 active torsions:
REMARK  status: ('A' for Active; 'I' for Inactive)
REMARK    1  A    between atoms: C_2  and  C_4
REMARK    2  A    between atoms: C_9  and  C_11
REMARK                            x       y       z     vdW  Elec       q    Type
REMARK                         _______ _______ _______ _____ _____    ______ ____
ROOT
ATOM      1  C   UNL     1       1.347   2.725  20.247  0.00  0.00    +0.000 C 
ATOM      2  C   UNL     1       0.688   4.115  20.305  0.00  0.00    +0.000 C 
ATOM      3  C   UNL     1       1.627   5.250  19.895  0.00  0.00    +0.000 C 
ATOM      4  C   UNL     1       2.951   5.148  20.649  0.00  0.00    +0.000 C 
ATOM      5  N   UNL     1       3.565   3.855  20.350  0.00  0.00    +0.000 N 
ATOM      6  C   UNL     1       4.772   3.628  19.681  0.00  0.00    +0.000 C 
ATOM      7  O   UNL     1       5.233   2.494  19.549  0.00  0.00    +0.000 OA
ATOM      8  C   UNL     1       2.771   2.710  20.817  0.00  0.00    +0.000 C 
ENDROOT
BRANCH   6   9
ATOM      9  C   UNL     1       5.512   4.736  19.024  0.00  0.00    +0.000 A 
ATOM     10  C   UNL     1       6.806   5.044  19.468  0.00  0.00    +0.000 A 
ATOM     11  C   UNL     1       7.528   6.084  18.871  0.00  0.00    +0.000 A 
ATOM     12  C   UNL     1       6.954   6.820  17.834  0.00  0.00    +0.000 A 
ATOM     13 CL   UNL     1       7.807   8.141  17.140  0.00  0.00    +0.000 Cl
ATOM     14  C   UNL     1       5.695   6.485  17.348  0.00  0.00    +0.000 A 
ATOM     15  C   UNL     1       4.999   5.416  17.913  0.00  0.00    +0.000 A 
ENDBRANCH   6   9
BRANCH   1  17
ATOM     16  N   UNL     1       2.346   1.609  18.268  0.00  0.00    +0.000 N 
ATOM     17  C   UNL     1       1.231   2.128  18.853  0.00  0.00    +0.000 C 
ATOM     18  O   UNL     1       0.188   2.193  18.203  0.00  0.00    +0.000 OA
ATOM     19  H   UNL     1       2.189   1.156  17.376  0.00  0.00    +0.000 HD
ATOM     20  H   UNL     1       3.063   1.183  18.844  0.00  0.00    +0.000 HD
ENDBRANCH   1  17
TORSDOF 2
ENDMDL
MODEL 6
REMARK VINA RESULT:      -6.8      1.234      1.261
REMARK  Name = 
REMARK  2 active torsions:
REMARK  status: ('A' for Active; 'I' for Inactive)
REMARK    1  A    between atoms: C_2  and  C_4
REMARK    2  A    between atoms: C_9  and  C_11
REMARK                            x       y       z     vdW  Elec       q    Type
REMARK                         _______ _______ _______ _____ _____    ______ ____
ROOT
ATOM      1  C   UNL     1       1.106   3.457  20.451  0.00  0.00    +0.000 C 
ATOM      2  C   UNL     1       1.143   2.127  19.678  0.00  0.00    +0.000 C 
ATOM      3  C   UNL     1       2.094   2.145  18.481  0.00  0.00    +0.000 C 
ATOM      4  C   UNL     1       1.834   3.374  17.611  0.00  0.00    +0.000 C 
ATOM      5  N   UNL     1       2.022   4.575  18.423  0.00  0.00    +0.000 N 
ATOM      6  C   UNL     1       2.992   5.567  18.249  0.00  0.00    +0.000 C 
ATOM      7  O   UNL     1       3.013   6.579  18.949  0.00  0.00    +0.000 OA
ATOM      8  C   UNL     1       1.067   4.685  19.533  0.00  0.00    +0.000 C 
ENDROOT
BRANCH   6   9
ATOM      9  C   UNL     1       4.095   5.407  17.265  0.00  0.00    +0.000 A 
ATOM     10  C   UNL     1       4.510   6.523  16.524  0.00  0.00    +0.000 A 
ATOM     11  C   UNL     1       5.543   6.403  15.588  0.00  0.00    +0.000 A 
ATOM     12  C   UNL     1       6.158   5.167  15.389  0.00  0.00    +0.000 A 
ATOM     13 CL   UNL     1       7.383   4.996  14.195  0.00  0.00    +0.000 Cl
ATOM     14  C   UNL     1       5.793   4.068  16.160  0.00  0.00    +0.000 A 
ATOM     15  C   UNL     1       4.796   4.204  17.126  0.00  0.00    +0.000 A 
ENDBRANCH   6   9
BRANCH   1  17
ATOM     16  N   UNL     1       2.830   4.689  21.744  0.00  0.00    +0.000 N 
ATOM     17  C   UNL     1       2.204   3.504  21.503  0.00  0.00    +0.000 C 
ATOM     18  O   UNL     1       2.609   2.487  22.065  0.00  0.00    +0.000 OA
ATOM     19  H   UNL     1       3.494   4.675  22.508  0.00  0.00    +0.000 HD
ATOM     20  H   UNL     1       2.319   5.558  21.639  0.00  0.00    +0.000 HD
ENDBRANCH   1  17
TORSDOF 2
ENDMDL
MODEL 7
REMARK VINA RESULT:      -6.8      3.347      4.639
REMARK  Name = 
REMARK  2 active torsions:
REMARK  status: ('A' for Active; 'I' for Inactive)
REMARK    1  A    between atoms: C_2  and  C_4
REMARK    2  A    between atoms: C_9  and  C_11
REMARK                            x       y       z     vdW  Elec       q    Type
REMARK                         _______ _______ _______ _____ _____    ______ ____
ROOT
ATOM      1  C   UNL     1       3.135   1.914  19.251  0.00  0.00    +0.000 C 
ATOM      2  C   UNL     1       2.937   2.058  17.731  0.00  0.00    +0.000 C 
ATOM      3  C   UNL     1       2.584   3.481  17.296  0.00  0.00    +0.000 C 
ATOM      4  C   UNL     1       1.433   4.028  18.138  0.00  0.00    +0.000 C 
ATOM      5  N   UNL     1       1.829   4.015  19.544  0.00  0.00    +0.000 N 
ATOM      6  C   UNL     1       1.998   5.122  20.384  0.00  0.00    +0.000 C 
ATOM      7  O   UNL     1       2.263   4.991  21.578  0.00  0.00    +0.000 OA
ATOM      8  C   UNL     1       2.078   2.666  20.069  0.00  0.00    +0.000 C 
ENDROOT
BRANCH   6   9
ATOM      9  C   UNL     1       1.946   6.510  19.854  0.00  0.00    +0.000 A 
ATOM     10  C   UNL     1       1.335   7.508  20.625  0.00  0.00    +0.000 A 
ATOM     11  C   UNL     1       1.269   8.823  20.153  0.00  0.00    +0.000 A 
ATOM     12  C   UNL     1       1.808   9.139  18.905  0.00  0.00    +0.000 A 
ATOM     13 CL   UNL     1       1.672  10.738  18.288  0.00  0.00    +0.000 Cl
ATOM     14  C   UNL     1       2.467   8.169  18.158  0.00  0.00    +0.000 A 
ATOM     15  C   UNL     1       2.574   6.870  18.656  0.00  0.00    +0.000 A 
ENDBRANCH   6   9
BRANCH   1  17
ATOM     16  N   UNL     1       5.293   1.300  20.314  0.00  0.00    +0.000 N 
ATOM     17  C   UNL     1       4.568   2.239  19.643  0.00  0.00    +0.000 C 
ATOM     18  O   UNL     1       5.055   3.354  19.463  0.00  0.00    +0.000 OA
ATOM     19  H   UNL     1       6.262   1.543  20.475  0.00  0.00    +0.000 HD
ATOM     20  H   UNL     1       5.123   0.316  20.140  0.00  0.00    +0.000 HD
ENDBRANCH   1  17
TORSDOF 2
ENDMDL
MODEL 8
REMARK VINA RESULT:      -6.8      1.378      1.704
REMARK  Name = 
REMARK  2 active torsions:
REMARK  status: ('A' for Active; 'I' for Inactive)
REMARK    1  A    between atoms: C_2  and  C_4
REMARK    2  A    between atoms: C_9  and  C_11
REMARK                            x       y       z     vdW  Elec       q    Type
REMARK                         _______ _______ _______ _____ _____    ______ ____
ROOT
ATOM      1  C   UNL     1       2.506   4.416  20.344  0.00  0.00    +0.000 C 
ATOM      2  C   UNL     1       1.388   4.563  19.297  0.00  0.00    +0.000 C 
ATOM      3  C   UNL     1       1.907   4.644  17.861  0.00  0.00    +0.000 C 
ATOM      4  C   UNL     1       3.015   5.690  17.752  0.00  0.00    +0.000 C 
ATOM      5  N   UNL     1       4.101   5.323  18.659  0.00  0.00    +0.000 N 
ATOM      6  C   UNL     1       5.408   4.970  18.311  0.00  0.00    +0.000 C 
ATOM      7  O   UNL     1       6.267   4.750  19.165  0.00  0.00    +0.000 OA
ATOM      8  C   UNL     1       3.707   5.332  20.074  0.00  0.00    +0.000 C 
ENDROOT
BRANCH   6   9
ATOM      9  C   UNL     1       5.802   4.761  16.893  0.00  0.00    +0.000 A 
ATOM     10  C   UNL     1       5.068   3.857  16.111  0.00  0.00    +0.000 A 
ATOM     11  C   UNL     1       5.416   3.637  14.774  0.00  0.00    +0.000 A 
ATOM     12  C   UNL     1       6.500   4.316  14.219  0.00  0.00    +0.000 A 
ATOM     13 CL   UNL     1       6.975   4.004  12.597  0.00  0.00    +0.000 Cl
ATOM     14  C   UNL     1       7.197   5.258  14.968  0.00  0.00    +0.000 A 
ATOM     15  C   UNL     1       6.816   5.511  16.286  0.00  0.00    +0.000 A 
ENDBRANCH   6   9
BRANCH   1  17
ATOM     16  N   UNL     1       2.581   2.361  21.734  0.00  0.00    +0.000 N 
ATOM     17  C   UNL     1       2.874   2.954  20.543  0.00  0.00    +0.000 C 
ATOM     18  O   UNL     1       3.516   2.325  19.703  0.00  0.00    +0.000 OA
ATOM     19  H   UNL     1       2.777   1.368  21.777  0.00  0.00    +0.000 HD
ATOM     20  H   UNL     1       1.764   2.658  22.256  0.00  0.00    +0.000 HD
ENDBRANCH   1  17
TORSDOF 2
ENDMDL
MODEL 9
REMARK VINA RESULT:      -6.8      3.823      5.050
REMARK  Name = 
REMARK  2 active torsions:
REMARK  status: ('A' for Active; 'I' for Inactive)
REMARK    1  A    between atoms: C_2  and  C_4
REMARK    2  A    between atoms: C_9  and  C_11
REMARK                            x       y       z     vdW  Elec       q    Type
REMARK                         _______ _______ _______ _____ _____    ______ ____
ROOT
ATOM      1  C   UNL     1       3.005   2.724  19.306  0.00  0.00    +0.000 C 
ATOM      2  C   UNL     1       1.657   2.584  20.036  0.00  0.00    +0.000 C 
ATOM      3  C   UNL     1       0.924   3.913  20.219  0.00  0.00    +0.000 C 
ATOM      4  C   UNL     1       1.860   4.962  20.817  0.00  0.00    +0.000 C 
ATOM      5  N   UNL     1       3.004   5.137  19.925  0.00  0.00    +0.000 N 
ATOM      6  C   UNL     1       3.354   6.292  19.218  0.00  0.00    +0.000 C 
ATOM      7  O   UNL     1       4.386   6.353  18.550  0.00  0.00    +0.000 OA
ATOM      8  C   UNL     1       3.826   3.928  19.785  0.00  0.00    +0.000 C 
ENDROOT
BRANCH   6   9
ATOM      9  C   UNL     1       2.455   7.475  19.175  0.00  0.00    +0.000 A 
ATOM     10  C   UNL     1       2.200   8.089  17.940  0.00  0.00    +0.000 A 
ATOM     11  C   UNL     1       1.360   9.205  17.868  0.00  0.00    +0.000 A 
ATOM     12  C   UNL     1       0.778   9.712  19.030  0.00  0.00    +0.000 A 
ATOM     13 CL   UNL     1      -0.202  11.122  18.959  0.00  0.00    +0.000 Cl
ATOM     14  C   UNL     1       0.978   9.075  20.250  0.00  0.00    +0.000 A 
ATOM     15  C   UNL     1       1.777   7.933  20.311  0.00  0.00    +0.000 A 
ENDBRANCH   6   9
BRANCH   1  17
ATOM     16  N   UNL     1       3.563   3.485  17.010  0.00  0.00    +0.000 N 
ATOM     17  C   UNL     1       2.813   2.665  17.799  0.00  0.00    +0.000 C 
ATOM     18  O   UNL     1       1.935   1.975  17.282  0.00  0.00    +0.000 OA
ATOM     19  H   UNL     1       3.448   3.342  16.014  0.00  0.00    +0.000 HD
ATOM     20  H   UNL     1       4.500   3.741  17.300  0.00  0.00    +0.000 HD
ENDBRANCH   1  17
TORSDOF 2
ENDMDL
