MODEL 1
REMARK VINA RESULT:      -8.8      0.000      0.000
REMARK  Name = 
REMARK  9 active torsions:
REMARK  status: ('A' for Active; 'I' for Inactive)
REMARK    1  A    between atoms: C_1  and  C_2
REMARK    2  A    between atoms: C_4  and  O_5
REMARK    3  A    between atoms: O_5  and  C_6
REMARK    4  A    between atoms: C_6  and  C_7
REMARK    5  A    between atoms: C_7  and  C_8
REMARK    6  A    between atoms: C_8  and  O_10
REMARK    7  A    between atoms: C_16  and  C_17
REMARK    8  A    between atoms: C_20  and  C_21
REMARK    9  A    between atoms: C_24  and  C_25
REMARK                            x       y       z     vdW  Elec       q    Type
REMARK                         _______ _______ _______ _____ _____    ______ ____
ROOT
ATOM      1  C   UNL     1       2.077   9.334  17.839  0.00  0.00    +0.000 C 
ATOM      2  C   UNL     1       2.212   8.060  18.634  0.00  0.00    +0.000 A 
ATOM      3  C   UNL     1       2.864   6.966  18.028  0.00  0.00    +0.000 A 
ATOM      4  C   UNL     1       3.005   5.786  18.736  0.00  0.00    +0.000 A 
ATOM      5  N   UNL     1       2.531   5.623  19.984  0.00  0.00    +0.000 NA
ATOM      6  C   UNL     1       1.903   6.680  20.545  0.00  0.00    +0.000 A 
ATOM      7  C   UNL     1       1.709   7.932  19.952  0.00  0.00    +0.000 A 
ENDROOT
BRANCH   7   8
ATOM      8  C   UNL     1       1.007   8.997  20.696  0.00  0.00    +0.000 A 
ATOM      9  C   UNL     1       1.192   9.234  22.065  0.00  0.00    +0.000 A 
ATOM     10  N   UNL     1       0.522  10.185  22.776  0.00  0.00    +0.000 NA
ATOM     11  C   UNL     1      -0.356  10.926  22.053  0.00  0.00    +0.000 A 
ATOM     12  C   UNL     1      -0.545  10.713  20.697  0.00  0.00    +0.000 A 
ATOM     13  N   UNL     1       0.119   9.752  20.002  0.00  0.00    +0.000 NA
BRANCH  11  14
ATOM     14  C   UNL     1      -1.087  11.952  22.781  0.00  0.00    +0.000 A 
ATOM     15  N   UNL     1      -0.627  13.124  23.190  0.00  0.00    +0.000 NA
ATOM     16  C   UNL     1      -1.673  13.746  23.821  0.00  0.00    +0.000 A 
ATOM     17  C   UNL     1      -2.794  12.951  23.803  0.00  0.00    +0.000 A 
ATOM     18  N   UNL     1      -2.405  11.815  23.143  0.00  0.00    +0.000 N 
ATOM     19  H   UNL     1      -2.967  10.995  22.935  0.00  0.00    +0.000 HD
BRANCH  17  20
ATOM     20  C   UNL     1      -4.150  13.151  24.330  0.00  0.00    +0.000 C 
ATOM     21  F   UNL     1      -4.374  14.432  24.711  0.00  0.00    +0.000 F 
ATOM     22  F   UNL     1      -5.090  12.836  23.406  0.00  0.00    +0.000 F 
ATOM     23  F   UNL     1      -4.383  12.364  25.409  0.00  0.00    +0.000 F 
ENDBRANCH  17  20
ENDBRANCH  11  14
ENDBRANCH   7   8
BRANCH   4  24
ATOM     24  O   UNL     1       3.662   4.733  18.119  0.00  0.00    +0.000 OA
BRANCH  24  25
ATOM     25  C   UNL     1       5.084   4.838  18.297  0.00  0.00    +0.000 C 
BRANCH  25  26
ATOM     26  C   UNL     1       5.836   4.860  16.960  0.00  0.00    +0.000 C 
ATOM     27  C   UNL     1       5.503   3.747  15.903  0.00  0.00    +0.000 C 
ATOM     28  C   UNL     1       5.609   4.838  14.818  0.00  0.00    +0.000 C 
ATOM     29  C   UNL     1       5.256   5.868  15.907  0.00  0.00    +0.000 C 
BRANCH  26  30
ATOM     30  C   UNL     1       7.375   5.065  17.285  0.00  0.00    +0.000 C 
ATOM     31  O   UNL     1       8.204   4.176  17.456  0.00  0.00    +0.000 OA
BRANCH  30  32
ATOM     32  O   UNL     1       7.764   6.370  17.334  0.00  0.00    +0.000 OA
ATOM     33  H   UNL     1       7.771   6.751  18.233  0.00  0.00    +0.000 HD
ENDBRANCH  30  32
ENDBRANCH  26  30
ENDBRANCH  25  26
ENDBRANCH  24  25
ENDBRANCH   4  24
TORSDOF 8
ENDMDL
MODEL 2
REMARK VINA RESULT:      -8.6      0.954      1.617
REMARK  Name = 
REMARK  9 active torsions:
REMARK  status: ('A' for Active; 'I' for Inactive)
REMARK    1  A    between atoms: C_1  and  C_2
REMARK    2  A    between atoms: C_4  and  O_5
REMARK    3  A    between atoms: O_5  and  C_6
REMARK    4  A    between atoms: C_6  and  C_7
REMARK    5  A    between atoms: C_7  and  C_8
REMARK    6  A    between atoms: C_8  and  O_10
REMARK    7  A    between atoms: C_16  and  C_17
REMARK    8  A    between atoms: C_20  and  C_21
REMARK    9  A    between atoms: C_24  and  C_25
REMARK                            x       y       z     vdW  Elec       q    Type
REMARK                         _______ _______ _______ _____ _____    ______ ____
ROOT
ATOM      1  C   UNL     1       1.925   9.655  17.763  0.00  0.00    +0.000 C 
ATOM      2  C   UNL     1       2.165   8.386  18.541  0.00  0.00    +0.000 A 
ATOM      3  C   UNL     1       2.897   7.355  17.920  0.00  0.00    +0.000 A 
ATOM      4  C   UNL     1       3.136   6.181  18.612  0.00  0.00    +0.000 A 
ATOM      5  N   UNL     1       2.683   5.967  19.861  0.00  0.00    +0.000 NA
ATOM      6  C   UNL     1       1.977   6.965  20.438  0.00  0.00    +0.000 A 
ATOM      7  C   UNL     1       1.682   8.204  19.860  0.00  0.00    +0.000 A 
ENDROOT
BRANCH   7   8
ATOM      8  C   UNL     1       0.902   9.202  20.621  0.00  0.00    +0.000 A 
ATOM      9  C   UNL     1       1.119   9.482  21.976  0.00  0.00    +0.000 A 
ATOM     10  N   UNL     1       0.382  10.369  22.704  0.00  0.00    +0.000 NA
ATOM     11  C   UNL     1      -0.600  10.999  22.011  0.00  0.00    +0.000 A 
ATOM     12  C   UNL     1      -0.824  10.742  20.668  0.00  0.00    +0.000 A 
ATOM     13  N   UNL     1      -0.091   9.845  19.957  0.00  0.00    +0.000 NA
BRANCH  11  14
ATOM     14  C   UNL     1      -1.405  11.954  22.757  0.00  0.00    +0.000 A 
ATOM     15  N   UNL     1      -1.005  13.105  23.275  0.00  0.00    +0.000 NA
ATOM     16  C   UNL     1      -2.107  13.656  23.876  0.00  0.00    +0.000 A 
ATOM     17  C   UNL     1      -3.202  12.840  23.728  0.00  0.00    +0.000 A 
ATOM     18  N   UNL     1      -2.740  11.762  23.019  0.00  0.00    +0.000 N 
ATOM     19  H   UNL     1      -3.264  10.946  22.718  0.00  0.00    +0.000 HD
BRANCH  17  20
ATOM     20  C   UNL     1      -4.595  12.971  24.175  0.00  0.00    +0.000 C 
ATOM     21  F   UNL     1      -4.870  12.192  25.249  0.00  0.00    +0.000 F 
ATOM     22  F   UNL     1      -4.885  14.250  24.520  0.00  0.00    +0.000 F 
ATOM     23  F   UNL     1      -5.464  12.625  23.194  0.00  0.00    +0.000 F 
ENDBRANCH  17  20
ENDBRANCH  11  14
ENDBRANCH   7   8
BRANCH   4  24
ATOM     24  O   UNL     1       3.870   5.191  17.979  0.00  0.00    +0.000 OA
BRANCH  24  25
ATOM     25  C   UNL     1       5.145   5.007  18.616  0.00  0.00    +0.000 C 
BRANCH  25  26
ATOM     26  C   UNL     1       6.295   5.601  17.795  0.00  0.00    +0.000 C 
ATOM     27  C   UNL     1       6.189   7.102  17.346  0.00  0.00    +0.000 C 
ATOM     28  C   UNL     1       7.694   7.234  17.656  0.00  0.00    +0.000 C 
ATOM     29  C   UNL     1       7.529   6.066  18.646  0.00  0.00    +0.000 C 
BRANCH  26  30
ATOM     30  C   UNL     1       6.646   4.560  16.649  0.00  0.00    +0.000 C 
ATOM     31  O   UNL     1       7.539   4.676  15.815  0.00  0.00    +0.000 OA
BRANCH  30  32
ATOM     32  O   UNL     1       5.874   3.437  16.662  0.00  0.00    +0.000 OA
ATOM     33  H   UNL     1       5.541   3.173  15.783  0.00  0.00    +0.000 HD
ENDBRANCH  30  32
ENDBRANCH  26  30
ENDBRANCH  25  26
ENDBRANCH  24  25
ENDBRANCH   4  24
TORSDOF 8
ENDMDL
MODEL 3
REMARK VINA RESULT:      -8.4      0.987      1.571
REMARK  Name = 
REMARK  9 active torsions:
REMARK  status: ('A' for Active; 'I' for Inactive)
REMARK    1  A    between atoms: C_1  and  C_2
REMARK    2  A    between atoms: C_4  and  O_5
REMARK    3  A    between atoms: O_5  and  C_6
REMARK    4  A    between atoms: C_6  and  C_7
REMARK    5  A    between atoms: C_7  and  C_8
REMARK    6  A    between atoms: C_8  and  O_10
REMARK    7  A    between atoms: C_16  and  C_17
REMARK    8  A    between atoms: C_20  and  C_21
REMARK    9  A    between atoms: C_24  and  C_25
REMARK                            x       y       z     vdW  Elec       q    Type
REMARK                         _______ _______ _______ _____ _____    ______ ____
ROOT
ATOM      1  C   UNL     1       2.104   9.244  17.672  0.00  0.00    +0.000 C 
ATOM      2  C   UNL     1       2.290   8.012  18.521  0.00  0.00    +0.000 A 
ATOM      3  C   UNL     1       2.972   6.915  17.958  0.00  0.00    +0.000 A 
ATOM      4  C   UNL     1       3.160   5.772  18.716  0.00  0.00    +0.000 A 
ATOM      5  N   UNL     1       2.703   5.650  19.975  0.00  0.00    +0.000 NA
ATOM      6  C   UNL     1       2.045   6.710  20.496  0.00  0.00    +0.000 A 
ATOM      7  C   UNL     1       1.803   7.927  19.849  0.00  0.00    +0.000 A 
ENDROOT
BRANCH   7   8
ATOM      8  C   UNL     1       1.072   9.000  20.552  0.00  0.00    +0.000 A 
ATOM      9  C   UNL     1       1.201   9.251  21.925  0.00  0.00    +0.000 A 
ATOM     10  N   UNL     1       0.503  10.209  22.598  0.00  0.00    +0.000 NA
ATOM     11  C   UNL     1      -0.343  10.944  21.832  0.00  0.00    +0.000 A 
ATOM     12  C   UNL     1      -0.477  10.717  20.472  0.00  0.00    +0.000 A 
ATOM     13  N   UNL     1       0.215   9.748  19.814  0.00  0.00    +0.000 NA
BRANCH  11  14
ATOM     14  C   UNL     1      -1.102  11.978  22.518  0.00  0.00    +0.000 A 
ATOM     15  N   UNL     1      -0.793  13.261  22.623  0.00  0.00    +0.000 NA
ATOM     16  C   UNL     1      -1.803  13.838  23.349  0.00  0.00    +0.000 A 
ATOM     17  C   UNL     1      -2.748  12.904  23.697  0.00  0.00    +0.000 A 
ATOM     18  N   UNL     1      -2.289  11.728  23.165  0.00  0.00    +0.000 N 
ATOM     19  H   UNL     1      -2.723  10.811  23.218  0.00  0.00    +0.000 HD
BRANCH  17  20
ATOM     20  C   UNL     1      -4.001  13.009  24.456  0.00  0.00    +0.000 C 
ATOM     21  F   UNL     1      -5.015  13.515  23.714  0.00  0.00    +0.000 F 
ATOM     22  F   UNL     1      -4.403  11.798  24.915  0.00  0.00    +0.000 F 
ATOM     23  F   UNL     1      -3.857  13.810  25.541  0.00  0.00    +0.000 F 
ENDBRANCH  17  20
ENDBRANCH  11  14
ENDBRANCH   7   8
BRANCH   4  24
ATOM     24  O   UNL     1       3.847   4.716  18.140  0.00  0.00    +0.000 OA
BRANCH  24  25
ATOM     25  C   UNL     1       4.466   5.115  16.906  0.00  0.00    +0.000 C 
BRANCH  25  26
ATOM     26  C   UNL     1       5.986   5.258  17.039  0.00  0.00    +0.000 C 
ATOM     27  C   UNL     1       6.565   6.652  17.472  0.00  0.00    +0.000 C 
ATOM     28  C   UNL     1       7.583   5.886  18.342  0.00  0.00    +0.000 C 
ATOM     29  C   UNL     1       6.572   4.727  18.395  0.00  0.00    +0.000 C 
BRANCH  26  30
ATOM     30  C   UNL     1       6.639   4.611  15.746  0.00  0.00    +0.000 C 
ATOM     31  O   UNL     1       7.453   5.147  15.000  0.00  0.00    +0.000 OA
BRANCH  30  32
ATOM     32  O   UNL     1       6.250   3.326  15.510  0.00  0.00    +0.000 OA
ATOM     33  H   UNL     1       5.487   3.037  16.044  0.00  0.00    +0.000 HD
ENDBRANCH  30  32
ENDBRANCH  26  30
ENDBRANCH  25  26
ENDBRANCH  24  25
ENDBRANCH   4  24
TORSDOF 8
ENDMDL
MODEL 4
REMARK VINA RESULT:      -8.3      0.796      1.393
REMARK  Name = 
REMARK  9 active torsions:
REMARK  status: ('A' for Active; 'I' for Inactive)
REMARK    1  A    between atoms: C_1  and  C_2
REMARK    2  A    between atoms: C_4  and  O_5
REMARK    3  A    between atoms: O_5  and  C_6
REMARK    4  A    between atoms: C_6  and  C_7
REMARK    5  A    between atoms: C_7  and  C_8
REMARK    6  A    between atoms: C_8  and  O_10
REMARK    7  A    between atoms: C_16  and  C_17
REMARK    8  A    between atoms: C_20  and  C_21
REMARK    9  A    between atoms: C_24  and  C_25
REMARK                            x       y       z     vdW  Elec       q    Type
REMARK                         _______ _______ _______ _____ _____    ______ ____
ROOT
ATOM      1  C   UNL     1       2.037   9.306  17.901  0.00  0.00    +0.000 C 
ATOM      2  C   UNL     1       2.225   8.062  18.733  0.00  0.00    +0.000 A 
ATOM      3  C   UNL     1       2.996   7.013  18.194  0.00  0.00    +0.000 A 
ATOM      4  C   UNL     1       3.187   5.862  18.937  0.00  0.00    +0.000 A 
ATOM      5  N   UNL     1       2.654   5.687  20.159  0.00  0.00    +0.000 NA
ATOM      6  C   UNL     1       1.912   6.701  20.657  0.00  0.00    +0.000 A 
ATOM      7  C   UNL     1       1.656   7.921  20.023  0.00  0.00    +0.000 A 
ENDROOT
BRANCH   7   8
ATOM      8  C   UNL     1       0.829   8.941  20.699  0.00  0.00    +0.000 A 
ATOM      9  C   UNL     1       0.072   9.901  20.013  0.00  0.00    +0.000 A 
ATOM     10  N   UNL     1      -0.663  10.875  20.620  0.00  0.00    +0.000 NA
ATOM     11  C   UNL     1      -0.632  10.852  21.976  0.00  0.00    +0.000 A 
ATOM     12  C   UNL     1       0.102   9.905  22.673  0.00  0.00    +0.000 A 
ATOM     13  N   UNL     1       0.843   8.947  22.055  0.00  0.00    +0.000 NA
BRANCH  11  14
ATOM     14  C   UNL     1      -1.409  11.877  22.657  0.00  0.00    +0.000 A 
ATOM     15  N   UNL     1      -1.022  13.108  22.954  0.00  0.00    +0.000 NA
ATOM     16  C   UNL     1      -2.086  13.701  23.584  0.00  0.00    +0.000 A 
ATOM     17  C   UNL     1      -3.144  12.828  23.678  0.00  0.00    +0.000 A 
ATOM     18  N   UNL     1      -2.698  11.675  23.088  0.00  0.00    +0.000 N 
ATOM     19  H   UNL     1      -3.204  10.802  22.969  0.00  0.00    +0.000 HD
BRANCH  17  20
ATOM     20  C   UNL     1      -4.489  12.971  24.249  0.00  0.00    +0.000 C 
ATOM     21  F   UNL     1      -5.458  12.532  23.410  0.00  0.00    +0.000 F 
ATOM     22  F   UNL     1      -4.611  12.274  25.405  0.00  0.00    +0.000 F 
ATOM     23  F   UNL     1      -4.767  14.266  24.542  0.00  0.00    +0.000 F 
ENDBRANCH  17  20
ENDBRANCH  11  14
ENDBRANCH   7   8
BRANCH   4  24
ATOM     24  O   UNL     1       3.961   4.853  18.385  0.00  0.00    +0.000 OA
BRANCH  24  25
ATOM     25  C   UNL     1       4.001   4.959  16.953  0.00  0.00    +0.000 C 
BRANCH  25  26
ATOM     26  C   UNL     1       5.420   4.790  16.398  0.00  0.00    +0.000 C 
ATOM     27  C   UNL     1       5.757   3.477  15.606  0.00  0.00    +0.000 C 
ATOM     28  C   UNL     1       6.575   4.351  14.633  0.00  0.00    +0.000 C 
ATOM     29  C   UNL     1       5.679   5.534  15.040  0.00  0.00    +0.000 C 
BRANCH  26  30
ATOM     30  C   UNL     1       6.432   5.176  17.559  0.00  0.00    +0.000 C 
ATOM     31  O   UNL     1       6.865   6.298  17.798  0.00  0.00    +0.000 OA
BRANCH  30  32
ATOM     32  O   UNL     1       6.792   4.128  18.353  0.00  0.00    +0.000 OA
ATOM     33  H   UNL     1       6.214   3.347  18.268  0.00  0.00    +0.000 HD
ENDBRANCH  30  32
ENDBRANCH  26  30
ENDBRANCH  25  26
ENDBRANCH  24  25
ENDBRANCH   4  24
TORSDOF 8
ENDMDL
MODEL 5
REMARK VINA RESULT:      -8.1      1.125      1.544
REMARK  Name = 
REMARK  9 active torsions:
REMARK  status: ('A' for Active; 'I' for Inactive)
REMARK    1  A    between atoms: C_1  and  C_2
REMARK    2  A    between atoms: C_4  and  O_5
REMARK    3  A    between atoms: O_5  and  C_6
REMARK    4  A    between atoms: C_6  and  C_7
REMARK    5  A    between atoms: C_7  and  C_8
REMARK    6  A    between atoms: C_8  and  O_10
REMARK    7  A    between atoms: C_16  and  C_17
REMARK    8  A    between atoms: C_20  and  C_21
REMARK    9  A    between atoms: C_24  and  C_25
REMARK                            x       y       z     vdW  Elec       q    Type
REMARK                         _______ _______ _______ _____ _____    ______ ____
ROOT
ATOM      1  C   UNL     1       2.090   9.371  17.868  0.00  0.00    +0.000 C 
ATOM      2  C   UNL     1       2.060   8.176  18.788  0.00  0.00    +0.000 A 
ATOM      3  C   UNL     1       2.702   6.996  18.363  0.00  0.00    +0.000 A 
ATOM      4  C   UNL     1       2.694   5.886  19.190  0.00  0.00    +0.000 A 
ATOM      5  N   UNL     1       2.081   5.873  20.387  0.00  0.00    +0.000 NA
ATOM      6  C   UNL     1       1.465   7.012  20.774  0.00  0.00    +0.000 A 
ATOM      7  C   UNL     1       1.413   8.207  20.048  0.00  0.00    +0.000 A 
ENDROOT
BRANCH   7   8
ATOM      8  C   UNL     1       0.705   9.376  20.607  0.00  0.00    +0.000 A 
ATOM      9  C   UNL     1       0.875   9.827  21.922  0.00  0.00    +0.000 A 
ATOM     10  N   UNL     1       0.199  10.878  22.467  0.00  0.00    +0.000 NA
ATOM     11  C   UNL     1      -0.670  11.495  21.627  0.00  0.00    +0.000 A 
ATOM     12  C   UNL     1      -0.846  11.070  20.320  0.00  0.00    +0.000 A 
ATOM     13  N   UNL     1      -0.175  10.011  19.792  0.00  0.00    +0.000 NA
BRANCH  11  14
ATOM     14  C   UNL     1      -1.408  12.622  22.175  0.00  0.00    +0.000 A 
ATOM     15  N   UNL     1      -1.514  13.836  21.658  0.00  0.00    +0.000 NA
ATOM     16  C   UNL     1      -2.307  14.550  22.519  0.00  0.00    +0.000 A 
ATOM     17  C   UNL     1      -2.697  13.770  23.581  0.00  0.00    +0.000 A 
ATOM     18  N   UNL     1      -2.116  12.551  23.351  0.00  0.00    +0.000 N 
ATOM     19  H   UNL     1      -2.178  11.715  23.924  0.00  0.00    +0.000 HD
BRANCH  17  20
ATOM     20  C   UNL     1      -3.537  14.053  24.753  0.00  0.00    +0.000 C 
ATOM     21  F   UNL     1      -4.113  12.936  25.258  0.00  0.00    +0.000 F 
ATOM     22  F   UNL     1      -2.817  14.621  25.751  0.00  0.00    +0.000 F 
ATOM     23  F   UNL     1      -4.535  14.918  24.449  0.00  0.00    +0.000 F 
ENDBRANCH  17  20
ENDBRANCH  11  14
ENDBRANCH   7   8
BRANCH   4  24
ATOM     24  O   UNL     1       3.345   4.744  18.750  0.00  0.00    +0.000 OA
BRANCH  24  25
ATOM     25  C   UNL     1       3.706   4.857  17.364  0.00  0.00    +0.000 C 
BRANCH  25  26
ATOM     26  C   UNL     1       5.220   4.750  17.148  0.00  0.00    +0.000 C 
ATOM     27  C   UNL     1       5.737   3.941  15.905  0.00  0.00    +0.000 C 
ATOM     28  C   UNL     1       6.815   5.029  15.727  0.00  0.00    +0.000 C 
ATOM     29  C   UNL     1       5.867   6.000  16.454  0.00  0.00    +0.000 C 
BRANCH  26  30
ATOM     30  C   UNL     1       5.872   4.364  18.543  0.00  0.00    +0.000 C 
ATOM     31  O   UNL     1       6.618   5.072  19.213  0.00  0.00    +0.000 OA
BRANCH  30  32
ATOM     32  O   UNL     1       5.506   3.137  19.008  0.00  0.00    +0.000 OA
ATOM     33  H   UNL     1       4.611   2.858  18.736  0.00  0.00    +0.000 HD
ENDBRANCH  30  32
ENDBRANCH  26  30
ENDBRANCH  25  26
ENDBRANCH  24  25
ENDBRANCH   4  24
TORSDOF 8
ENDMDL
MODEL 6
REMARK VINA RESULT:      -8.1      1.287      1.748
REMARK  Name = 
REMARK  9 active torsions:
REMARK  status: ('A' for Active; 'I' for Inactive)
REMARK    1  A    between atoms: C_1  and  C_2
REMARK    2  A    between atoms: C_4  and  O_5
REMARK    3  A    between atoms: O_5  and  C_6
REMARK    4  A    between atoms: C_6  and  C_7
REMARK    5  A    between atoms: C_7  and  C_8
REMARK    6  A    between atoms: C_8  and  O_10
REMARK    7  A    between atoms: C_16  and  C_17
REMARK    8  A    between atoms: C_20  and  C_21
REMARK    9  A    between atoms: C_24  and  C_25
REMARK                            x       y       z     vdW  Elec       q    Type
REMARK                         _______ _______ _______ _____ _____    ______ ____
ROOT
ATOM      1  C   UNL     1       1.644   9.991  17.968  0.00  0.00    +0.000 C 
ATOM      2  C   UNL     1       1.839   8.701  18.723  0.00  0.00    +0.000 A 
ATOM      3  C   UNL     1       2.543   7.659  18.086  0.00  0.00    +0.000 A 
ATOM      4  C   UNL     1       2.739   6.465  18.758  0.00  0.00    +0.000 A 
ATOM      5  N   UNL     1       2.271   6.242  19.998  0.00  0.00    +0.000 NA
ATOM      6  C   UNL     1       1.592   7.249  20.590  0.00  0.00    +0.000 A 
ATOM      7  C   UNL     1       1.340   8.509  20.035  0.00  0.00    +0.000 A 
ENDROOT
BRANCH   7   8
ATOM      8  C   UNL     1       0.586   9.515  20.809  0.00  0.00    +0.000 A 
ATOM      9  C   UNL     1       0.667   9.637  22.203  0.00  0.00    +0.000 A 
ATOM     10  N   UNL     1      -0.053  10.532  22.938  0.00  0.00    +0.000 NA
ATOM     11  C   UNL     1      -0.870  11.339  22.215  0.00  0.00    +0.000 A 
ATOM     12  C   UNL     1      -0.956  11.240  20.835  0.00  0.00    +0.000 A 
ATOM     13  N   UNL     1      -0.243  10.334  20.115  0.00  0.00    +0.000 NA
BRANCH  11  14
ATOM     14  C   UNL     1      -1.651  12.308  22.967  0.00  0.00    +0.000 A 
ATOM     15  N   UNL     1      -2.924  12.210  23.318  0.00  0.00    +0.000 NA
ATOM     16  C   UNL     1      -3.216  13.354  24.015  0.00  0.00    +0.000 A 
ATOM     17  C   UNL     1      -2.113  14.170  24.098  0.00  0.00    +0.000 A 
ATOM     18  N   UNL     1      -1.129  13.494  23.426  0.00  0.00    +0.000 N 
ATOM     19  H   UNL     1      -0.168  13.785  23.275  0.00  0.00    +0.000 HD
BRANCH  17  20
ATOM     20  C   UNL     1      -1.903  15.480  24.727  0.00  0.00    +0.000 C 
ATOM     21  F   UNL     1      -3.045  16.204  24.810  0.00  0.00    +0.000 F 
ATOM     22  F   UNL     1      -1.416  15.351  25.986  0.00  0.00    +0.000 F 
ATOM     23  F   UNL     1      -1.005  16.223  24.035  0.00  0.00    +0.000 F 
ENDBRANCH  17  20
ENDBRANCH  11  14
ENDBRANCH   7   8
BRANCH   4  24
ATOM     24  O   UNL     1       3.447   5.465  18.110  0.00  0.00    +0.000 OA
BRANCH  24  25
ATOM     25  C   UNL     1       4.861   5.613  18.322  0.00  0.00    +0.000 C 
BRANCH  25  26
ATOM     26  C   UNL     1       5.676   5.234  17.080  0.00  0.00    +0.000 C 
ATOM     27  C   UNL     1       5.235   3.968  16.261  0.00  0.00    +0.000 C 
ATOM     28  C   UNL     1       5.561   4.764  14.981  0.00  0.00    +0.000 C 
ATOM     29  C   UNL     1       5.310   6.049  15.790  0.00  0.00    +0.000 C 
BRANCH  26  30
ATOM     30  C   UNL     1       7.210   5.297  17.482  0.00  0.00    +0.000 C 
ATOM     31  O   UNL     1       7.866   4.387  17.980  0.00  0.00    +0.000 OA
BRANCH  30  32
ATOM     32  O   UNL     1       7.812   6.485  17.193  0.00  0.00    +0.000 OA
ATOM     33  H   UNL     1       7.935   7.068  17.966  0.00  0.00    +0.000 HD
ENDBRANCH  30  32
ENDBRANCH  26  30
ENDBRANCH  25  26
ENDBRANCH  24  25
ENDBRANCH   4  24
TORSDOF 8
ENDMDL
MODEL 7
REMARK VINA RESULT:      -8.0      1.126      1.533
REMARK  Name = 
REMARK  9 active torsions:
REMARK  status: ('A' for Active; 'I' for Inactive)
REMARK    1  A    between atoms: C_1  and  C_2
REMARK    2  A    between atoms: C_4  and  O_5
REMARK    3  A    between atoms: O_5  and  C_6
REMARK    4  A    between atoms: C_6  and  C_7
REMARK    5  A    between atoms: C_7  and  C_8
REMARK    6  A    between atoms: C_8  and  O_10
REMARK    7  A    between atoms: C_16  and  C_17
REMARK    8  A    between atoms: C_20  and  C_21
REMARK    9  A    between atoms: C_24  and  C_25
REMARK                            x       y       z     vdW  Elec       q    Type
REMARK                         _______ _______ _______ _____ _____    ______ ____
ROOT
ATOM      1  C   UNL     1       2.149   9.484  17.593  0.00  0.00    +0.000 C 
ATOM      2  C   UNL     1       2.271   8.263  18.470  0.00  0.00    +0.000 A 
ATOM      3  C   UNL     1       3.020   7.172  17.988  0.00  0.00    +0.000 A 
ATOM      4  C   UNL     1       3.150   6.040  18.774  0.00  0.00    +0.000 A 
ATOM      5  N   UNL     1       2.576   5.923  19.984  0.00  0.00    +0.000 NA
ATOM      6  C   UNL     1       1.856   6.977  20.427  0.00  0.00    +0.000 A 
ATOM      7  C   UNL     1       1.660   8.184  19.746  0.00  0.00    +0.000 A 
ENDROOT
BRANCH   7   8
ATOM      8  C   UNL     1       0.849   9.253  20.364  0.00  0.00    +0.000 A 
ATOM      9  C   UNL     1       0.968   9.635  21.706  0.00  0.00    +0.000 A 
ATOM     10  N   UNL     1       0.199  10.590  22.303  0.00  0.00    +0.000 NA
ATOM     11  C   UNL     1      -0.711  11.181  21.489  0.00  0.00    +0.000 A 
ATOM     12  C   UNL     1      -0.837  10.824  20.156  0.00  0.00    +0.000 A 
ATOM     13  N   UNL     1      -0.074   9.860  19.576  0.00  0.00    +0.000 NA
BRANCH  11  14
ATOM     14  C   UNL     1      -1.547  12.207  22.094  0.00  0.00    +0.000 A 
ATOM     15  N   UNL     1      -1.636  13.479  21.737  0.00  0.00    +0.000 NA
ATOM     16  C   UNL     1      -2.549  14.050  22.586  0.00  0.00    +0.000 A 
ATOM     17  C   UNL     1      -3.031  13.123  23.478  0.00  0.00    +0.000 A 
ATOM     18  N   UNL     1      -2.384  11.959  23.155  0.00  0.00    +0.000 N 
ATOM     19  H   UNL     1      -2.482  11.051  23.598  0.00  0.00    +0.000 HD
BRANCH  17  20
ATOM     20  C   UNL     1      -4.009  13.223  24.568  0.00  0.00    +0.000 C 
ATOM     21  F   UNL     1      -3.522  13.889  25.643  0.00  0.00    +0.000 F 
ATOM     22  F   UNL     1      -5.131  13.871  24.168  0.00  0.00    +0.000 F 
ATOM     23  F   UNL     1      -4.398  11.997  24.998  0.00  0.00    +0.000 F 
ENDBRANCH  17  20
ENDBRANCH  11  14
ENDBRANCH   7   8
BRANCH   4  24
ATOM     24  O   UNL     1       3.905   4.989  18.278  0.00  0.00    +0.000 OA
BRANCH  24  25
ATOM     25  C   UNL     1       4.481   5.322  17.004  0.00  0.00    +0.000 C 
BRANCH  25  26
ATOM     26  C   UNL     1       6.005   5.473  17.079  0.00  0.00    +0.000 C 
ATOM     27  C   UNL     1       6.597   6.900  17.363  0.00  0.00    +0.000 C 
ATOM     28  C   UNL     1       7.640   6.216  18.270  0.00  0.00    +0.000 C 
ATOM     29  C   UNL     1       6.630   5.069  18.460  0.00  0.00    +0.000 C 
BRANCH  26  30
ATOM     30  C   UNL     1       6.619   4.706  15.833  0.00  0.00    +0.000 C 
ATOM     31  O   UNL     1       6.337   3.568  15.472  0.00  0.00    +0.000 OA
BRANCH  30  32
ATOM     32  O   UNL     1       7.512   5.442  15.112  0.00  0.00    +0.000 OA
ATOM     33  H   UNL     1       7.290   6.390  15.050  0.00  0.00    +0.000 HD
ENDBRANCH  30  32
ENDBRANCH  26  30
ENDBRANCH  25  26
ENDBRANCH  24  25
ENDBRANCH   4  24
TORSDOF 8
ENDMDL
MODEL 8
REMARK VINA RESULT:      -8.0      6.528     11.462
REMARK  Name = 
REMARK  9 active torsions:
REMARK  status: ('A' for Active; 'I' for Inactive)
REMARK    1  A    between atoms: C_1  and  C_2
REMARK    2  A    between atoms: C_4  and  O_5
REMARK    3  A    between atoms: O_5  and  C_6
REMARK    4  A    between atoms: C_6  and  C_7
REMARK    5  A    between atoms: C_7  and  C_8
REMARK    6  A    between atoms: C_8  and  O_10
REMARK    7  A    between atoms: C_16  and  C_17
REMARK    8  A    between atoms: C_20  and  C_21
REMARK    9  A    between atoms: C_24  and  C_25
REMARK                            x       y       z     vdW  Elec       q    Type
REMARK                         _______ _______ _______ _____ _____    ______ ____
ROOT
ATOM      1  C   UNL     1      -0.372  10.238  18.787  0.00  0.00    +0.000 C 
ATOM      2  C   UNL     1      -0.123  10.165  20.273  0.00  0.00    +0.000 A 
ATOM      3  C   UNL     1      -0.770  11.103  21.101  0.00  0.00    +0.000 A 
ATOM      4  C   UNL     1      -0.562  11.057  22.468  0.00  0.00    +0.000 A 
ATOM      5  N   UNL     1       0.251  10.158  23.051  0.00  0.00    +0.000 NA
ATOM      6  C   UNL     1       0.868   9.271  22.240  0.00  0.00    +0.000 A 
ATOM      7  C   UNL     1       0.732   9.194  20.850  0.00  0.00    +0.000 A 
ENDROOT
BRANCH   7   8
ATOM      8  C   UNL     1       1.470   8.160  20.096  0.00  0.00    +0.000 A 
ATOM      9  C   UNL     1       1.707   6.869  20.585  0.00  0.00    +0.000 A 
ATOM     10  N   UNL     1       2.421   5.916  19.920  0.00  0.00    +0.000 NA
ATOM     11  C   UNL     1       2.893   6.299  18.707  0.00  0.00    +0.000 A 
ATOM     12  C   UNL     1       2.660   7.568  18.202  0.00  0.00    +0.000 A 
ATOM     13  N   UNL     1       1.958   8.514  18.881  0.00  0.00    +0.000 NA
BRANCH  11  14
ATOM     14  C   UNL     1       3.657   5.305  17.969  0.00  0.00    +0.000 A 
ATOM     15  N   UNL     1       3.554   3.988  18.059  0.00  0.00    +0.000 NA
ATOM     16  C   UNL     1       4.466   3.473  17.175  0.00  0.00    +0.000 A 
ATOM     17  C   UNL     1       5.142   4.480  16.530  0.00  0.00    +0.000 A 
ATOM     18  N   UNL     1       4.620   5.637  17.047  0.00  0.00    +0.000 N 
ATOM     19  H   UNL     1       4.873   6.592  16.811  0.00  0.00    +0.000 HD
BRANCH  17  20
ATOM     20  C   UNL     1       6.197   4.461  15.508  0.00  0.00    +0.000 C 
ATOM     21  F   UNL     1       7.440   4.481  16.046  0.00  0.00    +0.000 F 
ATOM     22  F   UNL     1       6.112   3.353  14.732  0.00  0.00    +0.000 F 
ATOM     23  F   UNL     1       6.101   5.528  14.677  0.00  0.00    +0.000 F 
ENDBRANCH  17  20
ENDBRANCH  11  14
ENDBRANCH   7   8
BRANCH   4  24
ATOM     24  O   UNL     1      -1.223  11.984  23.258  0.00  0.00    +0.000 OA
BRANCH  24  25
ATOM     25  C   UNL     1      -2.355  12.538  22.566  0.00  0.00    +0.000 C 
BRANCH  25  26
ATOM     26  C   UNL     1      -3.200  13.444  23.468  0.00  0.00    +0.000 C 
ATOM     27  C   UNL     1      -2.462  14.304  24.556  0.00  0.00    +0.000 C 
ATOM     28  C   UNL     1      -3.435  15.452  24.214  0.00  0.00    +0.000 C 
ATOM     29  C   UNL     1      -3.595  14.818  22.820  0.00  0.00    +0.000 C 
BRANCH  26  30
ATOM     30  C   UNL     1      -4.431  12.586  23.984  0.00  0.00    +0.000 C 
ATOM     31  O   UNL     1      -4.534  12.059  25.087  0.00  0.00    +0.000 OA
BRANCH  30  32
ATOM     32  O   UNL     1      -5.454  12.487  23.089  0.00  0.00    +0.000 OA
ATOM     33  H   UNL     1      -5.719  13.338  22.691  0.00  0.00    +0.000 HD
ENDBRANCH  30  32
ENDBRANCH  26  30
ENDBRANCH  25  26
ENDBRANCH  24  25
ENDBRANCH   4  24
TORSDOF 8
ENDMDL
MODEL 9
REMARK VINA RESULT:      -8.0      6.615     11.229
REMARK  Name = 
REMARK  9 active torsions:
REMARK  status: ('A' for Active; 'I' for Inactive)
REMARK    1  A    between atoms: C_1  and  C_2
REMARK    2  A    between atoms: C_4  and  O_5
REMARK    3  A    between atoms: O_5  and  C_6
REMARK    4  A    between atoms: C_6  and  C_7
REMARK    5  A    between atoms: C_7  and  C_8
REMARK    6  A    between atoms: C_8  and  O_10
REMARK    7  A    between atoms: C_16  and  C_17
REMARK    8  A    between atoms: C_20  and  C_21
REMARK    9  A    between atoms: C_24  and  C_25
REMARK                            x       y       z     vdW  Elec       q    Type
REMARK                         _______ _______ _______ _____ _____    ______ ____
ROOT
ATOM      1  C   UNL     1      -1.609  10.033  17.674  0.00  0.00    +0.000 C 
ATOM      2  C   UNL     1      -1.094  10.896  18.799  0.00  0.00    +0.000 A 
ATOM      3  C   UNL     1      -1.910  11.952  19.251  0.00  0.00    +0.000 A 
ATOM      4  C   UNL     1      -1.464  12.758  20.284  0.00  0.00    +0.000 A 
ATOM      5  N   UNL     1      -0.268  12.590  20.875  0.00  0.00    +0.000 NA
ATOM      6  C   UNL     1       0.504  11.576  20.423  0.00  0.00    +0.000 A 
ATOM      7  C   UNL     1       0.168  10.679  19.403  0.00  0.00    +0.000 A 
ENDROOT
BRANCH   7   8
ATOM      8  C   UNL     1       1.117   9.612  19.022  0.00  0.00    +0.000 A 
ATOM      9  C   UNL     1       1.812   9.596  17.806  0.00  0.00    +0.000 A 
ATOM     10  N   UNL     1       2.659   8.599  17.420  0.00  0.00    +0.000 NA
ATOM     11  C   UNL     1       2.807   7.595  18.320  0.00  0.00    +0.000 A 
ATOM     12  C   UNL     1       2.136   7.599  19.532  0.00  0.00    +0.000 A 
ATOM     13  N   UNL     1       1.283   8.592  19.900  0.00  0.00    +0.000 NA
BRANCH  11  14
ATOM     14  C   UNL     1       3.706   6.516  17.941  0.00  0.00    +0.000 A 
ATOM     15  N   UNL     1       3.512   5.217  18.110  0.00  0.00    +0.000 NA
ATOM     16  C   UNL     1       4.621   4.596  17.595  0.00  0.00    +0.000 A 
ATOM     17  C   UNL     1       5.511   5.519  17.102  0.00  0.00    +0.000 A 
ATOM     18  N   UNL     1       4.918   6.733  17.331  0.00  0.00    +0.000 N 
ATOM     19  H   UNL     1       5.279   7.654  17.102  0.00  0.00    +0.000 HD
BRANCH  17  20
ATOM     20  C   UNL     1       6.822   5.374  16.456  0.00  0.00    +0.000 C 
ATOM     21  F   UNL     1       6.730   5.298  15.107  0.00  0.00    +0.000 F 
ATOM     22  F   UNL     1       7.635   6.419  16.747  0.00  0.00    +0.000 F 
ATOM     23  F   UNL     1       7.460   4.254  16.878  0.00  0.00    +0.000 F 
ENDBRANCH  17  20
ENDBRANCH  11  14
ENDBRANCH   7   8
BRANCH   4  24
ATOM     24  O   UNL     1      -2.295  13.779  20.716  0.00  0.00    +0.000 OA
BRANCH  24  25
ATOM     25  C   UNL     1      -3.500  13.254  21.296  0.00  0.00    +0.000 C 
BRANCH  25  26
ATOM     26  C   UNL     1      -3.519  13.398  22.823  0.00  0.00    +0.000 C 
ATOM     27  C   UNL     1      -4.906  13.331  23.557  0.00  0.00    +0.000 C 
ATOM     28  C   UNL     1      -4.208  12.510  24.661  0.00  0.00    +0.000 C 
ATOM     29  C   UNL     1      -3.177  12.080  23.602  0.00  0.00    +0.000 C 
BRANCH  26  30
ATOM     30  C   UNL     1      -2.599  14.636  23.194  0.00  0.00    +0.000 C 
ATOM     31  O   UNL     1      -2.968  15.800  23.322  0.00  0.00    +0.000 OA
BRANCH  30  32
ATOM     32  O   UNL     1      -1.294  14.313  23.415  0.00  0.00    +0.000 OA
ATOM     33  H   UNL     1      -0.759  15.043  23.781  0.00  0.00    +0.000 HD
ENDBRANCH  30  32
ENDBRANCH  26  30
ENDBRANCH  25  26
ENDBRANCH  24  25
ENDBRANCH   4  24
TORSDOF 8
ENDMDL
