MODEL 1
REMARK VINA RESULT:      -7.2      0.000      0.000
REMARK  Name = 
REMARK  4 active torsions:
REMARK  status: ('A' for Active; 'I' for Inactive)
REMARK    1  A    between atoms: C_1  and  S_2
REMARK    2  A    between atoms: S_2  and  C_5
REMARK    3  A    between atoms: C_5  and  C_6
REMARK    4  A    between atoms: C_11  and  C_12
REMARK                            x       y       z     vdW  Elec       q    Type
REMARK                         _______ _______ _______ _____ _____    ______ ____
ROOT
ATOM      1  C   UNL     1       4.813   4.062  18.835  0.00  0.00    +0.000 C 
ATOM      2  O   UNL     1       5.073   2.926  19.238  0.00  0.00    +0.000 OA
ATOM      3  N   UNL     1       3.768   4.807  19.334  0.00  0.00    +0.000 N 
ATOM      4  C   UNL     1       2.818   4.332  20.321  0.00  0.00    +0.000 C 
ATOM      5  C   UNL     1       1.972   5.550  20.631  0.00  0.00    +0.000 C 
ATOM      6  C   UNL     1       2.497   6.509  19.595  0.00  0.00    +0.000 C 
ATOM      7  N   UNL     1       3.508   6.073  18.904  0.00  0.00    +0.000 NA
ENDROOT
BRANCH   6   8
ATOM      8  C   UNL     1       1.931   7.863  19.411  0.00  0.00    +0.000 A 
ATOM      9  C   UNL     1       2.048   8.544  18.198  0.00  0.00    +0.000 A 
ATOM     10  C   UNL     1       1.488   9.814  18.056  0.00  0.00    +0.000 A 
ATOM     11  C   UNL     1       0.811  10.408  19.124  0.00  0.00    +0.000 A 
ATOM     12  C   UNL     1       0.690   9.730  20.336  0.00  0.00    +0.000 A 
ATOM     13  C   UNL     1       1.250   8.460  20.480  0.00  0.00    +0.000 A 
ENDBRANCH   6   8
BRANCH   1  14
ATOM     14  C   UNL     1       5.642   4.708  17.768  0.00  0.00    +0.000 C 
BRANCH  14  16
ATOM     15  C   UNL     1       7.495   6.820  17.734  0.00  0.00    +0.000 C 
ATOM     16  S   UNL     1       7.187   5.226  18.456  0.00  0.00    +0.000 S 
ATOM     17  O   UNL     1       8.204   4.329  17.932  0.00  0.00    +0.000 OA
ATOM     18  O   UNL     1       7.053   5.406  19.889  0.00  0.00    +0.000 OA
ENDBRANCH  14  16
ENDBRANCH   1  14
TORSDOF 3
ENDMDL
MODEL 2
REMARK VINA RESULT:      -7.2      0.110      1.143
REMARK  Name = 
REMARK  4 active torsions:
REMARK  status: ('A' for Active; 'I' for Inactive)
REMARK    1  A    between atoms: C_1  and  S_2
REMARK    2  A    between atoms: S_2  and  C_5
REMARK    3  A    between atoms: C_5  and  C_6
REMARK    4  A    between atoms: C_11  and  C_12
REMARK                            x       y       z     vdW  Elec       q    Type
REMARK                         _______ _______ _______ _____ _____    ______ ____
ROOT
ATOM      1  C   UNL     1       4.820   4.063  18.815  0.00  0.00    +0.000 C 
ATOM      2  O   UNL     1       5.077   2.928  19.222  0.00  0.00    +0.000 OA
ATOM      3  N   UNL     1       3.767   4.807  19.299  0.00  0.00    +0.000 N 
ATOM      4  C   UNL     1       2.804   4.330  20.273  0.00  0.00    +0.000 C 
ATOM      5  C   UNL     1       1.952   5.547  20.571  0.00  0.00    +0.000 C 
ATOM      6  C   UNL     1       2.491   6.507  19.542  0.00  0.00    +0.000 C 
ATOM      7  N   UNL     1       3.511   6.072  18.866  0.00  0.00    +0.000 NA
ENDROOT
BRANCH   6   8
ATOM      8  C   UNL     1       1.925   7.860  19.350  0.00  0.00    +0.000 A 
ATOM      9  C   UNL     1       1.327   8.556  20.403  0.00  0.00    +0.000 A 
ATOM     10  C   UNL     1       0.818   9.838  20.189  0.00  0.00    +0.000 A 
ATOM     11  C   UNL     1       0.904  10.427  18.926  0.00  0.00    +0.000 A 
ATOM     12  C   UNL     1       1.502   9.737  17.873  0.00  0.00    +0.000 A 
ATOM     13  C   UNL     1       2.011   8.455  18.085  0.00  0.00    +0.000 A 
ENDBRANCH   6   8
BRANCH   1  14
ATOM     14  C   UNL     1       5.663   4.711  17.759  0.00  0.00    +0.000 C 
BRANCH  14  16
ATOM     15  C   UNL     1       7.483   6.850  17.821  0.00  0.00    +0.000 C 
ATOM     16  S   UNL     1       7.203   5.219  18.467  0.00  0.00    +0.000 S 
ATOM     17  O   UNL     1       8.232   4.364  17.896  0.00  0.00    +0.000 OA
ATOM     18  O   UNL     1       7.073   5.328  19.907  0.00  0.00    +0.000 OA
ENDBRANCH  14  16
ENDBRANCH   1  14
TORSDOF 3
ENDMDL
MODEL 3
REMARK VINA RESULT:      -6.8      3.772      6.845
REMARK  Name = 
REMARK  4 active torsions:
REMARK  status: ('A' for Active; 'I' for Inactive)
REMARK    1  A    between atoms: C_1  and  S_2
REMARK    2  A    between atoms: S_2  and  C_5
REMARK    3  A    between atoms: C_5  and  C_6
REMARK    4  A    between atoms: C_11  and  C_12
REMARK                            x       y       z     vdW  Elec       q    Type
REMARK                         _______ _______ _______ _____ _____    ______ ____
ROOT
ATOM      1  C   UNL     1       4.216   5.381  18.605  0.00  0.00    +0.000 C 
ATOM      2  O   UNL     1       4.318   5.432  19.833  0.00  0.00    +0.000 OA
ATOM      3  N   UNL     1       5.290   5.129  17.780  0.00  0.00    +0.000 N 
ATOM      4  C   UNL     1       6.657   4.971  18.236  0.00  0.00    +0.000 C 
ATOM      5  C   UNL     1       7.417   4.579  16.986  0.00  0.00    +0.000 C 
ATOM      6  C   UNL     1       6.336   4.756  15.951  0.00  0.00    +0.000 C 
ATOM      7  N   UNL     1       5.162   5.042  16.427  0.00  0.00    +0.000 NA
ENDROOT
BRANCH   6   8
ATOM      8  C   UNL     1       6.587   4.572  14.505  0.00  0.00    +0.000 A 
ATOM      9  C   UNL     1       7.576   5.299  13.838  0.00  0.00    +0.000 A 
ATOM     10  C   UNL     1       7.797   5.088  12.477  0.00  0.00    +0.000 A 
ATOM     11  C   UNL     1       7.030   4.153  11.777  0.00  0.00    +0.000 A 
ATOM     12  C   UNL     1       6.043   3.424  12.439  0.00  0.00    +0.000 A 
ATOM     13  C   UNL     1       5.821   3.634  13.801  0.00  0.00    +0.000 A 
ENDBRANCH   6   8
BRANCH   1  14
ATOM     14  C   UNL     1       2.892   5.582  17.933  0.00  0.00    +0.000 C 
BRANCH  14  16
ATOM     15  C   UNL     1       2.901   2.783  18.181  0.00  0.00    +0.000 C 
ATOM     16  S   UNL     1       1.839   4.205  18.285  0.00  0.00    +0.000 S 
ATOM     17  O   UNL     1       0.896   4.102  17.183  0.00  0.00    +0.000 OA
ATOM     18  O   UNL     1       1.349   4.294  19.648  0.00  0.00    +0.000 OA
ENDBRANCH  14  16
ENDBRANCH   1  14
TORSDOF 3
ENDMDL
MODEL 4
REMARK VINA RESULT:      -6.7      1.016      1.806
REMARK  Name = 
REMARK  4 active torsions:
REMARK  status: ('A' for Active; 'I' for Inactive)
REMARK    1  A    between atoms: C_1  and  S_2
REMARK    2  A    between atoms: S_2  and  C_5
REMARK    3  A    between atoms: C_5  and  C_6
REMARK    4  A    between atoms: C_11  and  C_12
REMARK                            x       y       z     vdW  Elec       q    Type
REMARK                         _______ _______ _______ _____ _____    ______ ____
ROOT
ATOM      1  C   UNL     1       5.419   4.725  19.054  0.00  0.00    +0.000 C 
ATOM      2  O   UNL     1       5.738   3.549  19.244  0.00  0.00    +0.000 OA
ATOM      3  N   UNL     1       4.157   5.207  19.321  0.00  0.00    +0.000 N 
ATOM      4  C   UNL     1       3.047   4.393  19.779  0.00  0.00    +0.000 C 
ATOM      5  C   UNL     1       1.947   5.397  20.054  0.00  0.00    +0.000 C 
ATOM      6  C   UNL     1       2.590   6.650  19.520  0.00  0.00    +0.000 C 
ATOM      7  N   UNL     1       3.825   6.515  19.139  0.00  0.00    +0.000 NA
ENDROOT
BRANCH   6   8
ATOM      8  C   UNL     1       1.879   7.947  19.475  0.00  0.00    +0.000 A 
ATOM      9  C   UNL     1       1.238   8.466  20.602  0.00  0.00    +0.000 A 
ATOM     10  C   UNL     1       0.591   9.700  20.528  0.00  0.00    +0.000 A 
ATOM     11  C   UNL     1       0.582  10.418  19.330  0.00  0.00    +0.000 A 
ATOM     12  C   UNL     1       1.224   9.905  18.204  0.00  0.00    +0.000 A 
ATOM     13  C   UNL     1       1.871   8.671  18.276  0.00  0.00    +0.000 A 
ENDBRANCH   6   8
BRANCH   1  14
ATOM     14  C   UNL     1       6.411   5.715  18.523  0.00  0.00    +0.000 C 
BRANCH  14  16
ATOM     15  C   UNL     1       5.704   4.239  16.239  0.00  0.00    +0.000 C 
ATOM     16  S   UNL     1       7.049   5.136  16.977  0.00  0.00    +0.000 S 
ATOM     17  O   UNL     1       8.081   4.159  17.287  0.00  0.00    +0.000 OA
ATOM     18  O   UNL     1       7.357   6.262  16.117  0.00  0.00    +0.000 OA
ENDBRANCH  14  16
ENDBRANCH   1  14
TORSDOF 3
ENDMDL
MODEL 5
REMARK VINA RESULT:      -6.7      1.139      1.488
REMARK  Name = 
REMARK  4 active torsions:
REMARK  status: ('A' for Active; 'I' for Inactive)
REMARK    1  A    between atoms: C_1  and  S_2
REMARK    2  A    between atoms: S_2  and  C_5
REMARK    3  A    between atoms: C_5  and  C_6
REMARK    4  A    between atoms: C_11  and  C_12
REMARK                            x       y       z     vdW  Elec       q    Type
REMARK                         _______ _______ _______ _____ _____    ______ ____
ROOT
ATOM      1  C   UNL     1       5.127   4.271  19.238  0.00  0.00    +0.000 C 
ATOM      2  O   UNL     1       5.353   3.102  19.561  0.00  0.00    +0.000 OA
ATOM      3  N   UNL     1       3.940   4.906  19.528  0.00  0.00    +0.000 N 
ATOM      4  C   UNL     1       2.804   4.272  20.169  0.00  0.00    +0.000 C 
ATOM      5  C   UNL     1       1.825   5.408  20.386  0.00  0.00    +0.000 C 
ATOM      6  C   UNL     1       2.531   6.512  19.643  0.00  0.00    +0.000 C 
ATOM      7  N   UNL     1       3.712   6.207  19.197  0.00  0.00    +0.000 NA
ENDROOT
BRANCH   6   8
ATOM      8  C   UNL     1       1.939   7.858  19.477  0.00  0.00    +0.000 A 
ATOM      9  C   UNL     1       2.003   8.537  18.258  0.00  0.00    +0.000 A 
ATOM     10  C   UNL     1       1.419   9.798  18.133  0.00  0.00    +0.000 A 
ATOM     11  C   UNL     1       0.772  10.385  19.223  0.00  0.00    +0.000 A 
ATOM     12  C   UNL     1       0.704   9.709  20.440  0.00  0.00    +0.000 A 
ATOM     13  C   UNL     1       1.288   8.448  20.568  0.00  0.00    +0.000 A 
ENDBRANCH   6   8
BRANCH   1  14
ATOM     14  C   UNL     1       6.155   5.080  18.509  0.00  0.00    +0.000 C 
BRANCH  14  16
ATOM     15  C   UNL     1       5.409   6.169  16.029  0.00  0.00    +0.000 C 
ATOM     16  S   UNL     1       6.082   4.706  16.782  0.00  0.00    +0.000 S 
ATOM     17  O   UNL     1       5.085   3.660  16.619  0.00  0.00    +0.000 OA
ATOM     18  O   UNL     1       7.422   4.514  16.261  0.00  0.00    +0.000 OA
ENDBRANCH  14  16
ENDBRANCH   1  14
TORSDOF 3
ENDMDL
MODEL 6
REMARK VINA RESULT:      -6.7      1.134      1.889
REMARK  Name = 
REMARK  4 active torsions:
REMARK  status: ('A' for Active; 'I' for Inactive)
REMARK    1  A    between atoms: C_1  and  S_2
REMARK    2  A    between atoms: S_2  and  C_5
REMARK    3  A    between atoms: C_5  and  C_6
REMARK    4  A    between atoms: C_11  and  C_12
REMARK                            x       y       z     vdW  Elec       q    Type
REMARK                         _______ _______ _______ _____ _____    ______ ____
ROOT
ATOM      1  C   UNL     1       5.168   4.325  19.199  0.00  0.00    +0.000 C 
ATOM      2  O   UNL     1       5.423   3.162  19.523  0.00  0.00    +0.000 OA
ATOM      3  N   UNL     1       3.977   4.940  19.514  0.00  0.00    +0.000 N 
ATOM      4  C   UNL     1       2.868   4.290  20.184  0.00  0.00    +0.000 C 
ATOM      5  C   UNL     1       1.874   5.408  20.417  0.00  0.00    +0.000 C 
ATOM      6  C   UNL     1       2.542   6.521  19.652  0.00  0.00    +0.000 C 
ATOM      7  N   UNL     1       3.718   6.235  19.180  0.00  0.00    +0.000 NA
ENDROOT
BRANCH   6   8
ATOM      8  C   UNL     1       1.922   7.855  19.492  0.00  0.00    +0.000 A 
ATOM      9  C   UNL     1       1.253   8.479  20.547  0.00  0.00    +0.000 A 
ATOM     10  C   UNL     1       0.694   9.745  20.365  0.00  0.00    +0.000 A 
ATOM     11  C   UNL     1       0.799  10.389  19.129  0.00  0.00    +0.000 A 
ATOM     12  C   UNL     1       1.467   9.769  18.075  0.00  0.00    +0.000 A 
ATOM     13  C   UNL     1       2.027   8.504  18.255  0.00  0.00    +0.000 A 
ENDBRANCH   6   8
BRANCH   1  14
ATOM     14  C   UNL     1       6.164   5.149  18.442  0.00  0.00    +0.000 C 
BRANCH  14  16
ATOM     15  C   UNL     1       5.378   6.178  15.949  0.00  0.00    +0.000 C 
ATOM     16  S   UNL     1       6.079   4.740  16.723  0.00  0.00    +0.000 S 
ATOM     17  O   UNL     1       5.097   3.676  16.590  0.00  0.00    +0.000 OA
ATOM     18  O   UNL     1       7.417   4.558  16.192  0.00  0.00    +0.000 OA
ENDBRANCH  14  16
ENDBRANCH   1  14
TORSDOF 3
ENDMDL
MODEL 7
REMARK VINA RESULT:      -6.7      3.729      6.843
REMARK  Name = 
REMARK  4 active torsions:
REMARK  status: ('A' for Active; 'I' for Inactive)
REMARK    1  A    between atoms: C_1  and  S_2
REMARK    2  A    between atoms: S_2  and  C_5
REMARK    3  A    between atoms: C_5  and  C_6
REMARK    4  A    between atoms: C_11  and  C_12
REMARK                            x       y       z     vdW  Elec       q    Type
REMARK                         _______ _______ _______ _____ _____    ______ ____
ROOT
ATOM      1  C   UNL     1       4.385   3.713  18.702  0.00  0.00    +0.000 C 
ATOM      2  O   UNL     1       4.499   3.816  19.926  0.00  0.00    +0.000 OA
ATOM      3  N   UNL     1       5.371   4.108  17.826  0.00  0.00    +0.000 N 
ATOM      4  C   UNL     1       6.611   4.750  18.221  0.00  0.00    +0.000 C 
ATOM      5  C   UNL     1       7.397   4.852  16.930  0.00  0.00    +0.000 C 
ATOM      6  C   UNL     1       6.356   4.385  15.947  0.00  0.00    +0.000 C 
ATOM      7  N   UNL     1       5.249   3.960  16.478  0.00  0.00    +0.000 NA
ENDROOT
BRANCH   6   8
ATOM      8  C   UNL     1       6.596   4.371  14.487  0.00  0.00    +0.000 A 
ATOM      9  C   UNL     1       7.562   5.191  13.899  0.00  0.00    +0.000 A 
ATOM     10  C   UNL     1       7.773   5.139  12.521  0.00  0.00    +0.000 A 
ATOM     11  C   UNL     1       7.020   4.271  11.726  0.00  0.00    +0.000 A 
ATOM     12  C   UNL     1       6.056   3.450  12.310  0.00  0.00    +0.000 A 
ATOM     13  C   UNL     1       5.844   3.500  13.688  0.00  0.00    +0.000 A 
ENDBRANCH   6   8
BRANCH   1  14
ATOM     14  C   UNL     1       3.147   3.130  18.091  0.00  0.00    +0.000 C 
BRANCH  14  16
ATOM     15  C   UNL     1       2.593   5.883  18.178  0.00  0.00    +0.000 C 
ATOM     16  S   UNL     1       1.816   4.286  18.244  0.00  0.00    +0.000 S 
ATOM     17  O   UNL     1       1.282   4.139  19.588  0.00  0.00    +0.000 OA
ATOM     18  O   UNL     1       0.932   4.175  17.100  0.00  0.00    +0.000 OA
ENDBRANCH  14  16
ENDBRANCH   1  14
TORSDOF 3
ENDMDL
MODEL 8
REMARK VINA RESULT:      -6.6      1.021      1.375
REMARK  Name = 
REMARK  4 active torsions:
REMARK  status: ('A' for Active; 'I' for Inactive)
REMARK    1  A    between atoms: C_1  and  S_2
REMARK    2  A    between atoms: S_2  and  C_5
REMARK    3  A    between atoms: C_5  and  C_6
REMARK    4  A    between atoms: C_11  and  C_12
REMARK                            x       y       z     vdW  Elec       q    Type
REMARK                         _______ _______ _______ _____ _____    ______ ____
ROOT
ATOM      1  C   UNL     1       5.318   4.500  19.169  0.00  0.00    +0.000 C 
ATOM      2  O   UNL     1       5.573   3.303  19.323  0.00  0.00    +0.000 OA
ATOM      3  N   UNL     1       4.063   5.027  19.379  0.00  0.00    +0.000 N 
ATOM      4  C   UNL     1       2.893   4.245  19.729  0.00  0.00    +0.000 C 
ATOM      5  C   UNL     1       1.821   5.285  19.982  0.00  0.00    +0.000 C 
ATOM      6  C   UNL     1       2.550   6.530  19.547  0.00  0.00    +0.000 C 
ATOM      7  N   UNL     1       3.799   6.355  19.237  0.00  0.00    +0.000 NA
ENDROOT
BRANCH   6   8
ATOM      8  C   UNL     1       1.900   7.858  19.519  0.00  0.00    +0.000 A 
ATOM      9  C   UNL     1       1.860   8.626  18.354  0.00  0.00    +0.000 A 
ATOM     10  C   UNL     1       1.224   9.868  18.360  0.00  0.00    +0.000 A 
ATOM     11  C   UNL     1       0.628  10.347  19.529  0.00  0.00    +0.000 A 
ATOM     12  C   UNL     1       0.663   9.582  20.693  0.00  0.00    +0.000 A 
ATOM     13  C   UNL     1       1.299   8.340  20.689  0.00  0.00    +0.000 A 
ENDBRANCH   6   8
BRANCH   1  14
ATOM     14  C   UNL     1       6.383   5.465  18.746  0.00  0.00    +0.000 C 
BRANCH  14  16
ATOM     15  C   UNL     1       5.495   4.194  16.404  0.00  0.00    +0.000 C 
ATOM     16  S   UNL     1       6.849   5.131  17.072  0.00  0.00    +0.000 S 
ATOM     17  O   UNL     1       7.991   4.234  17.123  0.00  0.00    +0.000 OA
ATOM     18  O   UNL     1       6.939   6.373  16.328  0.00  0.00    +0.000 OA
ENDBRANCH  14  16
ENDBRANCH   1  14
TORSDOF 3
ENDMDL
MODEL 9
REMARK VINA RESULT:      -6.6      1.426      1.941
REMARK  Name = 
REMARK  4 active torsions:
REMARK  status: ('A' for Active; 'I' for Inactive)
REMARK    1  A    between atoms: C_1  and  S_2
REMARK    2  A    between atoms: S_2  and  C_5
REMARK    3  A    between atoms: C_5  and  C_6
REMARK    4  A    between atoms: C_11  and  C_12
REMARK                            x       y       z     vdW  Elec       q    Type
REMARK                         _______ _______ _______ _____ _____    ______ ____
ROOT
ATOM      1  C   UNL     1       5.207   4.384  16.761  0.00  0.00    +0.000 C 
ATOM      2  O   UNL     1       5.374   3.238  16.336  0.00  0.00    +0.000 OA
ATOM      3  N   UNL     1       3.998   4.828  17.248  0.00  0.00    +0.000 N 
ATOM      4  C   UNL     1       2.777   4.045  17.251  0.00  0.00    +0.000 C 
ATOM      5  C   UNL     1       1.788   4.912  18.003  0.00  0.00    +0.000 C 
ATOM      6  C   UNL     1       2.602   6.171  18.157  0.00  0.00    +0.000 C 
ATOM      7  N   UNL     1       3.831   6.084  17.745  0.00  0.00    +0.000 NA
ENDROOT
BRANCH   6   8
ATOM      8  C   UNL     1       2.052   7.398  18.773  0.00  0.00    +0.000 A 
ATOM      9  C   UNL     1       1.778   7.468  20.140  0.00  0.00    +0.000 A 
ATOM     10  C   UNL     1       1.275   8.647  20.690  0.00  0.00    +0.000 A 
ATOM     11  C   UNL     1       1.044   9.759  19.878  0.00  0.00    +0.000 A 
ATOM     12  C   UNL     1       1.318   9.695  18.513  0.00  0.00    +0.000 A 
ATOM     13  C   UNL     1       1.821   8.516  17.961  0.00  0.00    +0.000 A 
ENDBRANCH   6   8
BRANCH   1  14
ATOM     14  C   UNL     1       6.335   5.369  16.783  0.00  0.00    +0.000 C 
BRANCH  14  16
ATOM     15  C   UNL     1       8.074   6.652  18.579  0.00  0.00    +0.000 C 
ATOM     16  S   UNL     1       7.347   5.074  18.204  0.00  0.00    +0.000 S 
ATOM     17  O   UNL     1       8.433   4.207  17.776  0.00  0.00    +0.000 OA
ATOM     18  O   UNL     1       6.517   4.688  19.329  0.00  0.00    +0.000 OA
ENDBRANCH  14  16
ENDBRANCH   1  14
TORSDOF 3
ENDMDL
