MODEL 1
REMARK VINA RESULT:      -7.1      0.000      0.000
REMARK  Name = 
REMARK  9 active torsions:
REMARK  status: ('A' for Active; 'I' for Inactive)
REMARK    1  A    between atoms: C_2  and  C_4
REMARK    2  A    between atoms: C_4  and  C_5
REMARK    3  A    between atoms: C_4  and  N_11
REMARK    4  A    between atoms: C_5  and  C_6
REMARK    5  A    between atoms: C_6  and  C_7
REMARK    6  A    between atoms: N_11  and  C_12
REMARK    7  A    between atoms: N_11  and  S_18
REMARK    8  A    between atoms: C_12  and  C_13
REMARK    9  A    between atoms: S_18  and  C_21
REMARK                            x       y       z     vdW  Elec       q    Type
REMARK                         _______ _______ _______ _____ _____    ______ ____
ROOT
ATOM      1  N   UNL     1       4.534   5.638  17.076  0.00  0.00    +0.000 NA
ENDROOT
BRANCH   1   2
ATOM      2  S   UNL     1       5.492   6.446  15.854  0.00  0.00    +0.000 S 
ATOM      3  O   UNL     1       4.607   7.353  15.140  0.00  0.00    +0.000 OA
ATOM      4  O   UNL     1       6.693   6.917  16.496  0.00  0.00    +0.000 OA
BRANCH   2   5
ATOM      5  C   UNL     1       5.946   5.203  14.654  0.00  0.00    +0.000 A 
ATOM      6  C   UNL     1       4.963   4.342  14.142  0.00  0.00    +0.000 A 
ATOM      7  C   UNL     1       5.277   3.471  13.092  0.00  0.00    +0.000 A 
ATOM      8  C   UNL     1       6.568   3.450  12.564  0.00  0.00    +0.000 A 
ATOM      9 CL   UNL     1       6.952   2.375  11.278  0.00  0.00    +0.000 Cl
ATOM     10  C   UNL     1       7.539   4.321  13.050  0.00  0.00    +0.000 A 
ATOM     11  C   UNL     1       7.217   5.227  14.062  0.00  0.00    +0.000 A 
ENDBRANCH   2   5
ENDBRANCH   1   2
BRANCH   1  12
ATOM     12  C   UNL     1       5.058   4.295  17.576  0.00  0.00    +0.000 C 
BRANCH  12  14
ATOM     13  N   UNL     1       7.505   4.310  17.994  0.00  0.00    +0.000 N 
ATOM     14  C   UNL     1       6.254   4.363  18.544  0.00  0.00    +0.000 C 
ATOM     15  O   UNL     1       6.131   4.565  19.747  0.00  0.00    +0.000 OA
ATOM     16  H   UNL     1       8.295   4.364  18.621  0.00  0.00    +0.000 HD
ATOM     17  H   UNL     1       7.653   4.059  17.024  0.00  0.00    +0.000 HD
ENDBRANCH  12  14
BRANCH  12  18
ATOM     18  C   UNL     1       4.038   3.367  18.245  0.00  0.00    +0.000 C 
BRANCH  18  19
ATOM     19  C   UNL     1       2.772   3.067  17.444  0.00  0.00    +0.000 C 
BRANCH  19  20
ATOM     20  C   UNL     1       1.517   3.588  18.125  0.00  0.00    +0.000 C 
ATOM     21  F   UNL     1       0.611   2.617  18.356  0.00  0.00    +0.000 F 
ATOM     22  F   UNL     1       1.821   4.157  19.312  0.00  0.00    +0.000 F 
ATOM     23  F   UNL     1       0.924   4.531  17.363  0.00  0.00    +0.000 F 
ENDBRANCH  19  20
ENDBRANCH  18  19
ENDBRANCH  12  18
ENDBRANCH   1  12
BRANCH   1  24
ATOM     24  C   UNL     1       4.196   6.610  18.216  0.00  0.00    +0.000 C 
BRANCH  24  25
ATOM     25  C   UNL     1       2.751   7.154  18.271  0.00  0.00    +0.000 C 
ATOM     26  C   UNL     1       2.291   7.349  19.723  0.00  0.00    +0.000 C 
ATOM     27  C   UNL     1       1.250   8.461  19.697  0.00  0.00    +0.000 C 
ATOM     28  C   UNL     1       1.525   9.287  18.456  0.00  0.00    +0.000 C 
ATOM     29  C   UNL     1       2.566   8.535  17.649  0.00  0.00    +0.000 C 
ENDBRANCH  24  25
ENDBRANCH   1  24
TORSDOF 9
ENDMDL
MODEL 2
REMARK VINA RESULT:      -7.1      3.836      6.256
REMARK  Name = 
REMARK  9 active torsions:
REMARK  status: ('A' for Active; 'I' for Inactive)
REMARK    1  A    between atoms: C_2  and  C_4
REMARK    2  A    between atoms: C_4  and  C_5
REMARK    3  A    between atoms: C_4  and  N_11
REMARK    4  A    between atoms: C_5  and  C_6
REMARK    5  A    between atoms: C_6  and  C_7
REMARK    6  A    between atoms: N_11  and  C_12
REMARK    7  A    between atoms: N_11  and  S_18
REMARK    8  A    between atoms: C_12  and  C_13
REMARK    9  A    between atoms: S_18  and  C_21
REMARK                            x       y       z     vdW  Elec       q    Type
REMARK                         _______ _______ _______ _____ _____    ______ ____
ROOT
ATOM      1  N   UNL     1       4.533   4.829  16.952  0.00  0.00    +0.000 NA
ENDROOT
BRANCH   1   2
ATOM      2  S   UNL     1       4.801   5.760  18.411  0.00  0.00    +0.000 S 
ATOM      3  O   UNL     1       4.699   4.841  19.534  0.00  0.00    +0.000 OA
ATOM      4  O   UNL     1       5.979   6.559  18.196  0.00  0.00    +0.000 OA
BRANCH   2   5
ATOM      5  C   UNL     1       3.400   6.857  18.584  0.00  0.00    +0.000 A 
ATOM      6  C   UNL     1       2.668   6.861  19.780  0.00  0.00    +0.000 A 
ATOM      7  C   UNL     1       1.669   7.821  19.982  0.00  0.00    +0.000 A 
ATOM      8  C   UNL     1       1.395   8.764  18.992  0.00  0.00    +0.000 A 
ATOM      9 CL   UNL     1       0.164   9.938  19.241  0.00  0.00    +0.000 Cl
ATOM     10  C   UNL     1       2.138   8.780  17.814  0.00  0.00    +0.000 A 
ATOM     11  C   UNL     1       3.169   7.858  17.629  0.00  0.00    +0.000 A 
ENDBRANCH   2   5
ENDBRANCH   1   2
BRANCH   1  12
ATOM     12  C   UNL     1       5.509   5.066  15.804  0.00  0.00    +0.000 C 
BRANCH  12  14
ATOM     13  N   UNL     1       7.669   6.275  15.982  0.00  0.00    +0.000 N 
ATOM     14  C   UNL     1       6.999   5.102  16.190  0.00  0.00    +0.000 C 
ATOM     15  O   UNL     1       7.565   4.176  16.760  0.00  0.00    +0.000 OA
ATOM     16  H   UNL     1       8.645   6.310  16.242  0.00  0.00    +0.000 HD
ATOM     17  H   UNL     1       7.270   7.031  15.439  0.00  0.00    +0.000 HD
ENDBRANCH  12  14
BRANCH  12  18
ATOM     18  C   UNL     1       5.413   4.104  14.614  0.00  0.00    +0.000 C 
BRANCH  18  19
ATOM     19  C   UNL     1       6.623   4.064  13.681  0.00  0.00    +0.000 C 
BRANCH  19  20
ATOM     20  C   UNL     1       6.258   3.608  12.278  0.00  0.00    +0.000 C 
ATOM     21  F   UNL     1       6.543   2.308  12.064  0.00  0.00    +0.000 F 
ATOM     22  F   UNL     1       4.938   3.783  12.049  0.00  0.00    +0.000 F 
ATOM     23  F   UNL     1       6.929   4.332  11.357  0.00  0.00    +0.000 F 
ENDBRANCH  19  20
ENDBRANCH  18  19
ENDBRANCH  12  18
ENDBRANCH   1  12
BRANCH   1  24
ATOM     24  C   UNL     1       4.361   3.343  17.294  0.00  0.00    +0.000 C 
BRANCH  24  25
ATOM     25  C   UNL     1       2.915   2.819  17.452  0.00  0.00    +0.000 C 
ATOM     26  C   UNL     1       2.775   1.964  18.719  0.00  0.00    +0.000 C 
ATOM     27  C   UNL     1       1.321   2.084  19.158  0.00  0.00    +0.000 C 
ATOM     28  C   UNL     1       0.798   3.387  18.584  0.00  0.00    +0.000 C 
ATOM     29  C   UNL     1       1.861   3.908  17.636  0.00  0.00    +0.000 C 
ENDBRANCH  24  25
ENDBRANCH   1  24
TORSDOF 9
ENDMDL
MODEL 3
REMARK VINA RESULT:      -6.9      2.054      2.880
REMARK  Name = 
REMARK  9 active torsions:
REMARK  status: ('A' for Active; 'I' for Inactive)
REMARK    1  A    between atoms: C_2  and  C_4
REMARK    2  A    between atoms: C_4  and  C_5
REMARK    3  A    between atoms: C_4  and  N_11
REMARK    4  A    between atoms: C_5  and  C_6
REMARK    5  A    between atoms: C_6  and  C_7
REMARK    6  A    between atoms: N_11  and  C_12
REMARK    7  A    between atoms: N_11  and  S_18
REMARK    8  A    between atoms: C_12  and  C_13
REMARK    9  A    between atoms: S_18  and  C_21
REMARK                            x       y       z     vdW  Elec       q    Type
REMARK                         _______ _______ _______ _____ _____    ______ ____
ROOT
ATOM      1  N   UNL     1       3.632   5.981  17.679  0.00  0.00    +0.000 NA
ENDROOT
BRANCH   1   2
ATOM      2  S   UNL     1       5.295   5.433  17.711  0.00  0.00    +0.000 S 
ATOM      3  O   UNL     1       6.118   6.572  18.088  0.00  0.00    +0.000 OA
ATOM      4  O   UNL     1       5.324   4.203  18.460  0.00  0.00    +0.000 OA
BRANCH   2   5
ATOM      5  C   UNL     1       5.749   5.073  16.021  0.00  0.00    +0.000 A 
ATOM      6  C   UNL     1       7.064   5.310  15.592  0.00  0.00    +0.000 A 
ATOM      7  C   UNL     1       7.469   4.890  14.320  0.00  0.00    +0.000 A 
ATOM      8  C   UNL     1       6.563   4.247  13.475  0.00  0.00    +0.000 A 
ATOM      9 CL   UNL     1       7.061   3.737  11.910  0.00  0.00    +0.000 Cl
ATOM     10  C   UNL     1       5.266   3.986  13.907  0.00  0.00    +0.000 A 
ATOM     11  C   UNL     1       4.872   4.357  15.194  0.00  0.00    +0.000 A 
ENDBRANCH   2   5
ENDBRANCH   1   2
BRANCH   1  12
ATOM     12  C   UNL     1       2.621   5.137  18.449  0.00  0.00    +0.000 C 
BRANCH  12  14
ATOM     13  N   UNL     1       2.777   2.815  17.589  0.00  0.00    +0.000 N 
ATOM     14  C   UNL     1       2.018   3.948  17.680  0.00  0.00    +0.000 C 
ATOM     15  O   UNL     1       0.870   3.942  17.248  0.00  0.00    +0.000 OA
ATOM     16  H   UNL     1       2.385   2.025  17.095  0.00  0.00    +0.000 HD
ATOM     17  H   UNL     1       3.755   2.802  17.852  0.00  0.00    +0.000 HD
ENDBRANCH  12  14
BRANCH  12  18
ATOM     18  C   UNL     1       3.090   4.564  19.793  0.00  0.00    +0.000 C 
BRANCH  18  19
ATOM     19  C   UNL     1       2.026   4.448  20.883  0.00  0.00    +0.000 C 
BRANCH  19  20
ATOM     20  C   UNL     1       1.482   3.035  21.013  0.00  0.00    +0.000 C 
ATOM     21  F   UNL     1       1.100   2.740  22.273  0.00  0.00    +0.000 F 
ATOM     22  F   UNL     1       0.412   2.860  20.208  0.00  0.00    +0.000 F 
ATOM     23  F   UNL     1       2.418   2.134  20.647  0.00  0.00    +0.000 F 
ENDBRANCH  19  20
ENDBRANCH  18  19
ENDBRANCH  12  18
ENDBRANCH   1  12
BRANCH   1  24
ATOM     24  C   UNL     1       3.557   7.473  18.030  0.00  0.00    +0.000 C 
BRANCH  24  25
ATOM     25  C   UNL     1       2.155   8.062  18.306  0.00  0.00    +0.000 C 
ATOM     26  C   UNL     1       1.890   8.168  19.815  0.00  0.00    +0.000 C 
ATOM     27  C   UNL     1       0.904   9.313  19.997  0.00  0.00    +0.000 C 
ATOM     28  C   UNL     1       1.055  10.216  18.789  0.00  0.00    +0.000 C 
ATOM     29  C   UNL     1       1.953   9.489  17.807  0.00  0.00    +0.000 C 
ENDBRANCH  24  25
ENDBRANCH   1  24
TORSDOF 9
ENDMDL
MODEL 4
REMARK VINA RESULT:      -6.9      3.388      4.233
REMARK  Name = 
REMARK  9 active torsions:
REMARK  status: ('A' for Active; 'I' for Inactive)
REMARK    1  A    between atoms: C_2  and  C_4
REMARK    2  A    between atoms: C_4  and  C_5
REMARK    3  A    between atoms: C_4  and  N_11
REMARK    4  A    between atoms: C_5  and  C_6
REMARK    5  A    between atoms: C_6  and  C_7
REMARK    6  A    between atoms: N_11  and  C_12
REMARK    7  A    between atoms: N_11  and  S_18
REMARK    8  A    between atoms: C_12  and  C_13
REMARK    9  A    between atoms: S_18  and  C_21
REMARK                            x       y       z     vdW  Elec       q    Type
REMARK                         _______ _______ _______ _____ _____    ______ ____
ROOT
ATOM      1  N   UNL     1       4.150   5.031  17.773  0.00  0.00    +0.000 NA
ENDROOT
BRANCH   1   2
ATOM      2  S   UNL     1       5.828   4.541  17.675  0.00  0.00    +0.000 S 
ATOM      3  O   UNL     1       6.138   3.813  18.896  0.00  0.00    +0.000 OA
ATOM      4  O   UNL     1       6.025   3.950  16.376  0.00  0.00    +0.000 OA
BRANCH   2   5
ATOM      5  C   UNL     1       6.804   6.035  17.768  0.00  0.00    +0.000 A 
ATOM      6  C   UNL     1       6.473   7.130  16.956  0.00  0.00    +0.000 A 
ATOM      7  C   UNL     1       7.132   8.352  17.131  0.00  0.00    +0.000 A 
ATOM      8  C   UNL     1       8.126   8.478  18.103  0.00  0.00    +0.000 A 
ATOM      9 CL   UNL     1       8.938   9.979  18.312  0.00  0.00    +0.000 Cl
ATOM     10  C   UNL     1       8.439   7.401  18.928  0.00  0.00    +0.000 A 
ATOM     11  C   UNL     1       7.748   6.196  18.792  0.00  0.00    +0.000 A 
ENDBRANCH   2   5
ENDBRANCH   1   2
BRANCH   1  12
ATOM     12  C   UNL     1       3.190   4.046  18.434  0.00  0.00    +0.000 C 
BRANCH  12  14
ATOM     13  N   UNL     1       4.113   1.823  17.829  0.00  0.00    +0.000 N 
ATOM     14  C   UNL     1       3.051   2.679  17.740  0.00  0.00    +0.000 C 
ATOM     15  O   UNL     1       2.011   2.298  17.214  0.00  0.00    +0.000 OA
ATOM     16  H   UNL     1       4.026   0.920  17.386  0.00  0.00    +0.000 HD
ATOM     17  H   UNL     1       5.016   2.124  18.176  0.00  0.00    +0.000 HD
ENDBRANCH  12  14
BRANCH  12  18
ATOM     18  C   UNL     1       3.443   3.733  19.914  0.00  0.00    +0.000 C 
BRANCH  18  19
ATOM     19  C   UNL     1       2.568   2.642  20.531  0.00  0.00    +0.000 C 
BRANCH  19  20
ATOM     20  C   UNL     1       1.180   3.146  20.888  0.00  0.00    +0.000 C 
ATOM     21  F   UNL     1       1.133   4.487  21.022  0.00  0.00    +0.000 F 
ATOM     22  F   UNL     1       0.287   2.796  19.936  0.00  0.00    +0.000 F 
ATOM     23  F   UNL     1       0.766   2.602  22.051  0.00  0.00    +0.000 F 
ENDBRANCH  19  20
ENDBRANCH  18  19
ENDBRANCH  12  18
ENDBRANCH   1  12
BRANCH   1  24
ATOM     24  C   UNL     1       4.043   6.449  18.349  0.00  0.00    +0.000 C 
BRANCH  24  25
ATOM     25  C   UNL     1       2.631   7.074  18.423  0.00  0.00    +0.000 C 
ATOM     26  C   UNL     1       2.255   7.415  19.872  0.00  0.00    +0.000 C 
ATOM     27  C   UNL     1       1.272   8.576  19.797  0.00  0.00    +0.000 C 
ATOM     28  C   UNL     1       1.525   9.278  18.478  0.00  0.00    +0.000 C 
ATOM     29  C   UNL     1       2.486   8.406  17.693  0.00  0.00    +0.000 C 
ENDBRANCH  24  25
ENDBRANCH   1  24
TORSDOF 9
ENDMDL
MODEL 5
REMARK VINA RESULT:      -6.8      3.871      6.331
REMARK  Name = 
REMARK  9 active torsions:
REMARK  status: ('A' for Active; 'I' for Inactive)
REMARK    1  A    between atoms: C_2  and  C_4
REMARK    2  A    between atoms: C_4  and  C_5
REMARK    3  A    between atoms: C_4  and  N_11
REMARK    4  A    between atoms: C_5  and  C_6
REMARK    5  A    between atoms: C_6  and  C_7
REMARK    6  A    between atoms: N_11  and  C_12
REMARK    7  A    between atoms: N_11  and  S_18
REMARK    8  A    between atoms: C_12  and  C_13
REMARK    9  A    between atoms: S_18  and  C_21
REMARK                            x       y       z     vdW  Elec       q    Type
REMARK                         _______ _______ _______ _____ _____    ______ ____
ROOT
ATOM      1  N   UNL     1       4.654   5.189  16.572  0.00  0.00    +0.000 NA
ENDROOT
BRANCH   1   2
ATOM      2  S   UNL     1       5.088   6.334  17.824  0.00  0.00    +0.000 S 
ATOM      3  O   UNL     1       5.468   5.566  19.000  0.00  0.00    +0.000 OA
ATOM      4  O   UNL     1       5.983   7.294  17.231  0.00  0.00    +0.000 OA
BRANCH   2   5
ATOM      5  C   UNL     1       3.584   7.179  18.290  0.00  0.00    +0.000 A 
ATOM      6  C   UNL     1       2.984   6.894  19.526  0.00  0.00    +0.000 A 
ATOM      7  C   UNL     1       1.897   7.658  19.966  0.00  0.00    +0.000 A 
ATOM      8  C   UNL     1       1.404   8.694  19.172  0.00  0.00    +0.000 A 
ATOM      9 CL   UNL     1       0.064   9.627  19.712  0.00  0.00    +0.000 Cl
ATOM     10  C   UNL     1       2.013   8.997  17.957  0.00  0.00    +0.000 A 
ATOM     11  C   UNL     1       3.129   8.272  17.538  0.00  0.00    +0.000 A 
ENDBRANCH   2   5
ENDBRANCH   1   2
BRANCH   1  12
ATOM     12  C   UNL     1       5.487   5.227  15.295  0.00  0.00    +0.000 C 
BRANCH  12  14
ATOM     13  N   UNL     1       7.833   5.552  14.554  0.00  0.00    +0.000 N 
ATOM     14  C   UNL     1       6.997   4.985  15.475  0.00  0.00    +0.000 C 
ATOM     15  O   UNL     1       7.472   4.409  16.448  0.00  0.00    +0.000 OA
ATOM     16  H   UNL     1       8.827   5.407  14.671  0.00  0.00    +0.000 HD
ATOM     17  H   UNL     1       7.486   5.960  13.695  0.00  0.00    +0.000 HD
ENDBRANCH  12  14
BRANCH  12  18
ATOM     18  C   UNL     1       5.051   4.287  14.164  0.00  0.00    +0.000 C 
BRANCH  18  19
ATOM     19  C   UNL     1       6.138   3.384  13.582  0.00  0.00    +0.000 C 
BRANCH  19  20
ATOM     20  C   UNL     1       6.086   3.320  12.065  0.00  0.00    +0.000 C 
ATOM     21  F   UNL     1       4.868   3.626  11.574  0.00  0.00    +0.000 F 
ATOM     22  F   UNL     1       6.976   4.179  11.522  0.00  0.00    +0.000 F 
ATOM     23  F   UNL     1       6.403   2.081  11.634  0.00  0.00    +0.000 F 
ENDBRANCH  19  20
ENDBRANCH  18  19
ENDBRANCH  12  18
ENDBRANCH   1  12
BRANCH   1  24
ATOM     24  C   UNL     1       4.528   3.778  17.163  0.00  0.00    +0.000 C 
BRANCH  24  25
ATOM     25  C   UNL     1       3.428   3.556  18.226  0.00  0.00    +0.000 C 
ATOM     26  C   UNL     1       2.038   3.873  17.655  0.00  0.00    +0.000 C 
ATOM     27  C   UNL     1       1.049   3.017  18.436  0.00  0.00    +0.000 C 
ATOM     28  C   UNL     1       1.828   1.836  18.981  0.00  0.00    +0.000 C 
ATOM     29  C   UNL     1       3.295   2.116  18.713  0.00  0.00    +0.000 C 
ENDBRANCH  24  25
ENDBRANCH   1  24
TORSDOF 9
ENDMDL
MODEL 6
REMARK VINA RESULT:      -6.8      3.797      6.261
REMARK  Name = 
REMARK  9 active torsions:
REMARK  status: ('A' for Active; 'I' for Inactive)
REMARK    1  A    between atoms: C_2  and  C_4
REMARK    2  A    between atoms: C_4  and  C_5
REMARK    3  A    between atoms: C_4  and  N_11
REMARK    4  A    between atoms: C_5  and  C_6
REMARK    5  A    between atoms: C_6  and  C_7
REMARK    6  A    between atoms: N_11  and  C_12
REMARK    7  A    between atoms: N_11  and  S_18
REMARK    8  A    between atoms: C_12  and  C_13
REMARK    9  A    between atoms: S_18  and  C_21
REMARK                            x       y       z     vdW  Elec       q    Type
REMARK                         _______ _______ _______ _____ _____    ______ ____
ROOT
ATOM      1  N   UNL     1       4.627   4.935  16.776  0.00  0.00    +0.000 NA
ENDROOT
BRANCH   1   2
ATOM      2  S   UNL     1       5.072   5.789  18.238  0.00  0.00    +0.000 S 
ATOM      3  O   UNL     1       5.001   4.835  19.335  0.00  0.00    +0.000 OA
ATOM      4  O   UNL     1       6.279   6.521  17.955  0.00  0.00    +0.000 OA
BRANCH   2   5
ATOM      5  C   UNL     1       3.764   6.964  18.563  0.00  0.00    +0.000 A 
ATOM      6  C   UNL     1       3.399   7.885  17.570  0.00  0.00    +0.000 A 
ATOM      7  C   UNL     1       2.278   8.703  17.757  0.00  0.00    +0.000 A 
ATOM      8  C   UNL     1       1.534   8.611  18.933  0.00  0.00    +0.000 A 
ATOM      9 CL   UNL     1       0.161   9.621  19.162  0.00  0.00    +0.000 Cl
ATOM     10  C   UNL     1       1.877   7.679  19.909  0.00  0.00    +0.000 A 
ATOM     11  C   UNL     1       2.963   6.826  19.705  0.00  0.00    +0.000 A 
ENDBRANCH   2   5
ENDBRANCH   1   2
BRANCH   1  12
ATOM     12  C   UNL     1       5.459   5.234  15.533  0.00  0.00    +0.000 C 
BRANCH  12  14
ATOM     13  N   UNL     1       7.409   4.208  16.676  0.00  0.00    +0.000 N 
ATOM     14  C   UNL     1       6.980   5.048  15.686  0.00  0.00    +0.000 C 
ATOM     15  O   UNL     1       7.795   5.528  14.906  0.00  0.00    +0.000 OA
ATOM     16  H   UNL     1       8.405   4.072  16.776  0.00  0.00    +0.000 HD
ATOM     17  H   UNL     1       6.783   3.861  17.392  0.00  0.00    +0.000 HD
ENDBRANCH  12  14
BRANCH  12  18
ATOM     18  C   UNL     1       5.078   4.477  14.255  0.00  0.00    +0.000 C 
BRANCH  18  19
ATOM     19  C   UNL     1       6.101   3.466  13.739  0.00  0.00    +0.000 C 
BRANCH  19  20
ATOM     20  C   UNL     1       6.145   3.409  12.221  0.00  0.00    +0.000 C 
ATOM     21  F   UNL     1       4.950   3.677  11.657  0.00  0.00    +0.000 F 
ATOM     22  F   UNL     1       7.037   4.300  11.737  0.00  0.00    +0.000 F 
ATOM     23  F   UNL     1       6.529   2.184  11.806  0.00  0.00    +0.000 F 
ENDBRANCH  19  20
ENDBRANCH  18  19
ENDBRANCH  12  18
ENDBRANCH   1  12
BRANCH   1  24
ATOM     24  C   UNL     1       4.492   3.432  17.058  0.00  0.00    +0.000 C 
BRANCH  24  25
ATOM     25  C   UNL     1       3.063   2.881  17.267  0.00  0.00    +0.000 C 
ATOM     26  C   UNL     1       3.002   1.962  18.495  0.00  0.00    +0.000 C 
ATOM     27  C   UNL     1       1.572   2.039  19.016  0.00  0.00    +0.000 C 
ATOM     28  C   UNL     1       1.004   3.361  18.538  0.00  0.00    +0.000 C 
ATOM     29  C   UNL     1       2.008   3.943  17.562  0.00  0.00    +0.000 C 
ENDBRANCH  24  25
ENDBRANCH   1  24
TORSDOF 9
ENDMDL
MODEL 7
REMARK VINA RESULT:      -6.7      4.201      7.028
REMARK  Name = 
REMARK  9 active torsions:
REMARK  status: ('A' for Active; 'I' for Inactive)
REMARK    1  A    between atoms: C_2  and  C_4
REMARK    2  A    between atoms: C_4  and  C_5
REMARK    3  A    between atoms: C_4  and  N_11
REMARK    4  A    between atoms: C_5  and  C_6
REMARK    5  A    between atoms: C_6  and  C_7
REMARK    6  A    between atoms: N_11  and  C_12
REMARK    7  A    between atoms: N_11  and  S_18
REMARK    8  A    between atoms: C_12  and  C_13
REMARK    9  A    between atoms: S_18  and  C_21
REMARK                            x       y       z     vdW  Elec       q    Type
REMARK                         _______ _______ _______ _____ _____    ______ ____
ROOT
ATOM      1  N   UNL     1       4.731   4.865  16.718  0.00  0.00    +0.000 NA
ENDROOT
BRANCH   1   2
ATOM      2  S   UNL     1       3.452   4.023  17.567  0.00  0.00    +0.000 S 
ATOM      3  O   UNL     1       2.441   3.667  16.584  0.00  0.00    +0.000 OA
ATOM      4  O   UNL     1       4.077   3.026  18.398  0.00  0.00    +0.000 OA
BRANCH   2   5
ATOM      5  C   UNL     1       2.663   5.226  18.627  0.00  0.00    +0.000 A 
ATOM      6  C   UNL     1       2.194   4.833  19.890  0.00  0.00    +0.000 A 
ATOM      7  C   UNL     1       1.715   5.797  20.786  0.00  0.00    +0.000 A 
ATOM      8  C   UNL     1       1.693   7.142  20.419  0.00  0.00    +0.000 A 
ATOM      9 CL   UNL     1       1.098   8.323  21.519  0.00  0.00    +0.000 Cl
ATOM     10  C   UNL     1       2.182   7.539  19.178  0.00  0.00    +0.000 A 
ATOM     11  C   UNL     1       2.708   6.588  18.301  0.00  0.00    +0.000 A 
ENDBRANCH   2   5
ENDBRANCH   1   2
BRANCH   1  12
ATOM     12  C   UNL     1       5.693   5.683  17.573  0.00  0.00    +0.000 C 
BRANCH  12  14
ATOM     13  N   UNL     1       7.810   4.392  17.672  0.00  0.00    +0.000 N 
ATOM     14  C   UNL     1       6.736   4.874  18.366  0.00  0.00    +0.000 C 
ATOM     15  O   UNL     1       6.695   4.741  19.584  0.00  0.00    +0.000 OA
ATOM     16  H   UNL     1       8.505   3.869  18.186  0.00  0.00    +0.000 HD
ATOM     17  H   UNL     1       7.842   4.403  16.659  0.00  0.00    +0.000 HD
ENDBRANCH  12  14
BRANCH  12  18
ATOM     18  C   UNL     1       6.484   6.783  16.853  0.00  0.00    +0.000 C 
BRANCH  18  19
ATOM     19  C   UNL     1       6.620   8.111  17.596  0.00  0.00    +0.000 C 
BRANCH  19  20
ATOM     20  C   UNL     1       8.067   8.457  17.906  0.00  0.00    +0.000 C 
ATOM     21  F   UNL     1       8.844   8.470  16.804  0.00  0.00    +0.000 F 
ATOM     22  F   UNL     1       8.152   9.674  18.485  0.00  0.00    +0.000 F 
ATOM     23  F   UNL     1       8.591   7.560  18.768  0.00  0.00    +0.000 F 
ENDBRANCH  19  20
ENDBRANCH  18  19
ENDBRANCH  12  18
ENDBRANCH   1  12
BRANCH   1  24
ATOM     24  C   UNL     1       5.451   3.909  15.757  0.00  0.00    +0.000 C 
BRANCH  24  25
ATOM     25  C   UNL     1       5.677   4.403  14.309  0.00  0.00    +0.000 C 
ATOM     26  C   UNL     1       7.137   4.826  14.094  0.00  0.00    +0.000 C 
ATOM     27  C   UNL     1       7.427   4.623  12.613  0.00  0.00    +0.000 C 
ATOM     28  C   UNL     1       6.444   3.581  12.114  0.00  0.00    +0.000 C 
ATOM     29  C   UNL     1       5.447   3.347  13.233  0.00  0.00    +0.000 C 
ENDBRANCH  24  25
ENDBRANCH   1  24
TORSDOF 9
ENDMDL
MODEL 8
REMARK VINA RESULT:      -6.7      4.456      7.192
REMARK  Name = 
REMARK  9 active torsions:
REMARK  status: ('A' for Active; 'I' for Inactive)
REMARK    1  A    between atoms: C_2  and  C_4
REMARK    2  A    between atoms: C_4  and  C_5
REMARK    3  A    between atoms: C_4  and  N_11
REMARK    4  A    between atoms: C_5  and  C_6
REMARK    5  A    between atoms: C_6  and  C_7
REMARK    6  A    between atoms: N_11  and  C_12
REMARK    7  A    between atoms: N_11  and  S_18
REMARK    8  A    between atoms: C_12  and  C_13
REMARK    9  A    between atoms: S_18  and  C_21
REMARK                            x       y       z     vdW  Elec       q    Type
REMARK                         _______ _______ _______ _____ _____    ______ ____
ROOT
ATOM      1  N   UNL     1       5.745   5.681  17.192  0.00  0.00    +0.000 NA
ENDROOT
BRANCH   1   2
ATOM      2  S   UNL     1       4.304   5.047  17.958  0.00  0.00    +0.000 S 
ATOM      3  O   UNL     1       3.486   4.449  16.915  0.00  0.00    +0.000 OA
ATOM      4  O   UNL     1       4.730   4.290  19.107  0.00  0.00    +0.000 OA
BRANCH   2   5
ATOM      5  C   UNL     1       3.365   6.456  18.530  0.00  0.00    +0.000 A 
ATOM      6  C   UNL     1       3.143   7.537  17.664  0.00  0.00    +0.000 A 
ATOM      7  C   UNL     1       2.282   8.573  18.048  0.00  0.00    +0.000 A 
ATOM      8  C   UNL     1       1.657   8.536  19.294  0.00  0.00    +0.000 A 
ATOM      9 CL   UNL     1       0.605   9.812  19.766  0.00  0.00    +0.000 Cl
ATOM     10  C   UNL     1       1.853   7.452  20.145  0.00  0.00    +0.000 A 
ATOM     11  C   UNL     1       2.670   6.392  19.746  0.00  0.00    +0.000 A 
ENDBRANCH   2   5
ENDBRANCH   1   2
BRANCH   1  12
ATOM     12  C   UNL     1       6.789   6.304  18.113  0.00  0.00    +0.000 C 
BRANCH  12  14
ATOM     13  N   UNL     1       8.031   5.426  20.074  0.00  0.00    +0.000 N 
ATOM     14  C   UNL     1       7.805   5.325  18.729  0.00  0.00    +0.000 C 
ATOM     15  O   UNL     1       8.325   4.413  18.096  0.00  0.00    +0.000 OA
ATOM     16  H   UNL     1       8.688   4.780  20.489  0.00  0.00    +0.000 HD
ATOM     17  H   UNL     1       7.693   6.211  20.616  0.00  0.00    +0.000 HD
ENDBRANCH  12  14
BRANCH  12  18
ATOM     18  C   UNL     1       7.623   7.450  17.527  0.00  0.00    +0.000 C 
BRANCH  18  19
ATOM     19  C   UNL     1       8.559   8.167  18.499  0.00  0.00    +0.000 C 
BRANCH  19  20
ATOM     20  C   UNL     1       8.578   9.671  18.281  0.00  0.00    +0.000 C 
ATOM     21  F   UNL     1       7.465  10.120  17.666  0.00  0.00    +0.000 F 
ATOM     22  F   UNL     1       8.687  10.321  19.460  0.00  0.00    +0.000 F 
ATOM     23  F   UNL     1       9.637  10.025  17.524  0.00  0.00    +0.000 F 
ENDBRANCH  19  20
ENDBRANCH  18  19
ENDBRANCH  12  18
ENDBRANCH   1  12
BRANCH   1  24
ATOM     24  C   UNL     1       6.338   4.640  16.232  0.00  0.00    +0.000 C 
BRANCH  24  25
ATOM     25  C   UNL     1       6.143   4.886  14.718  0.00  0.00    +0.000 C 
ATOM     26  C   UNL     1       7.488   5.137  14.023  0.00  0.00    +0.000 C 
ATOM     27  C   UNL     1       7.315   4.685  12.579  0.00  0.00    +0.000 C 
ATOM     28  C   UNL     1       6.185   3.673  12.571  0.00  0.00    +0.000 C 
ATOM     29  C   UNL     1       5.558   3.704  13.952  0.00  0.00    +0.000 C 
ENDBRANCH  24  25
ENDBRANCH   1  24
TORSDOF 9
ENDMDL
MODEL 9
REMARK VINA RESULT:      -6.6      4.309      7.133
REMARK  Name = 
REMARK  9 active torsions:
REMARK  status: ('A' for Active; 'I' for Inactive)
REMARK    1  A    between atoms: C_2  and  C_4
REMARK    2  A    between atoms: C_4  and  C_5
REMARK    3  A    between atoms: C_4  and  N_11
REMARK    4  A    between atoms: C_5  and  C_6
REMARK    5  A    between atoms: C_6  and  C_7
REMARK    6  A    between atoms: N_11  and  C_12
REMARK    7  A    between atoms: N_11  and  S_18
REMARK    8  A    between atoms: C_12  and  C_13
REMARK    9  A    between atoms: S_18  and  C_21
REMARK                            x       y       z     vdW  Elec       q    Type
REMARK                         _______ _______ _______ _____ _____    ______ ____
ROOT
ATOM      1  N   UNL     1       5.033   5.006  16.912  0.00  0.00    +0.000 NA
ENDROOT
BRANCH   1   2
ATOM      2  S   UNL     1       3.858   4.161  17.897  0.00  0.00    +0.000 S 
ATOM      3  O   UNL     1       2.805   3.694  17.008  0.00  0.00    +0.000 OA
ATOM      4  O   UNL     1       4.586   3.253  18.744  0.00  0.00    +0.000 OA
BRANCH   2   5
ATOM      5  C   UNL     1       3.077   5.391  18.931  0.00  0.00    +0.000 A 
ATOM      6  C   UNL     1       2.966   6.712  18.472  0.00  0.00    +0.000 A 
ATOM      7  C   UNL     1       2.222   7.645  19.205  0.00  0.00    +0.000 A 
ATOM      8  C   UNL     1       1.602   7.264  20.395  0.00  0.00    +0.000 A 
ATOM      9 CL   UNL     1       0.694   8.413  21.297  0.00  0.00    +0.000 Cl
ATOM     10  C   UNL     1       1.687   5.948  20.840  0.00  0.00    +0.000 A 
ATOM     11  C   UNL     1       2.385   5.002  20.087  0.00  0.00    +0.000 A 
ENDBRANCH   2   5
ENDBRANCH   1   2
BRANCH   1  12
ATOM     12  C   UNL     1       6.054   5.863  17.654  0.00  0.00    +0.000 C 
BRANCH  12  14
ATOM     13  N   UNL     1       7.306   5.060  19.640  0.00  0.00    +0.000 N 
ATOM     14  C   UNL     1       7.239   5.102  18.276  0.00  0.00    +0.000 C 
ATOM     15  O   UNL     1       8.045   4.459  17.611  0.00  0.00    +0.000 OA
ATOM     16  H   UNL     1       8.075   4.554  20.057  0.00  0.00    +0.000 HD
ATOM     17  H   UNL     1       6.718   5.643  20.224  0.00  0.00    +0.000 HD
ENDBRANCH  12  14
BRANCH  12  18
ATOM     18  C   UNL     1       6.676   7.024  16.867  0.00  0.00    +0.000 C 
BRANCH  18  19
ATOM     19  C   UNL     1       6.746   8.367  17.591  0.00  0.00    +0.000 C 
BRANCH  19  20
ATOM     20  C   UNL     1       8.168   8.746  17.973  0.00  0.00    +0.000 C 
ATOM     21  F   UNL     1       8.725   7.869  18.832  0.00  0.00    +0.000 F 
ATOM     22  F   UNL     1       8.956   8.805  16.877  0.00  0.00    +0.000 F 
ATOM     23  F   UNL     1       8.191   9.963  18.556  0.00  0.00    +0.000 F 
ENDBRANCH  19  20
ENDBRANCH  18  19
ENDBRANCH  12  18
ENDBRANCH   1  12
BRANCH   1  24
ATOM     24  C   UNL     1       5.679   4.041  15.908  0.00  0.00    +0.000 C 
BRANCH  24  25
ATOM     25  C   UNL     1       5.809   4.527  14.447  0.00  0.00    +0.000 C 
ATOM     26  C   UNL     1       7.259   4.912  14.122  0.00  0.00    +0.000 C 
ATOM     27  C   UNL     1       7.433   4.698  12.624  0.00  0.00    +0.000 C 
ATOM     28  C   UNL     1       6.390   3.682  12.203  0.00  0.00    +0.000 C 
ATOM     29  C   UNL     1       5.473   3.475  13.394  0.00  0.00    +0.000 C 
ENDBRANCH  24  25
ENDBRANCH   1  24
TORSDOF 9
ENDMDL
