MODEL 1
REMARK VINA RESULT:     -10.1      0.000      0.000
REMARK  Name = 
REMARK  5 active torsions:
REMARK  status: ('A' for Active; 'I' for Inactive)
REMARK    1  A    between atoms: C_2  and  O_3
REMARK    2  A    between atoms: C_2  and  C_4
REMARK    3  A    between atoms: C_8  and  N_9
REMARK    4  A    between atoms: C_10  and  C_11
REMARK    5  A    between atoms: C_12  and  C_13
REMARK                            x       y       z     vdW  Elec       q    Type
REMARK                         _______ _______ _______ _____ _____    ______ ____
ROOT
ATOM      1  N   UNL     1       4.593   3.786  17.325  0.00  0.00    +0.000 N 
ATOM      2  C   UNL     1       4.862   4.215  18.612  0.00  0.00    +0.000 A 
ATOM      3  N   UNL     1       4.749   3.319  19.544  0.00  0.00    +0.000 NA
ATOM      4  C   UNL     1       3.392   2.957  19.649  0.00  0.00    +0.000 A 
ATOM      5  C   UNL     1       2.865   2.821  20.931  0.00  0.00    +0.000 A 
ATOM      6  C   UNL     1       1.559   3.226  21.157  0.00  0.00    +0.000 A 
ATOM      7  C   UNL     1       0.787   3.711  20.094  0.00  0.00    +0.000 A 
ATOM      8  C   UNL     1       1.259   3.643  18.769  0.00  0.00    +0.000 A 
ATOM      9  C   UNL     1       2.555   3.195  18.536  0.00  0.00    +0.000 A 
ATOM     10  C   UNL     1       3.267   3.349  17.188  0.00  0.00    +0.000 A 
ATOM     11  O   UNL     1       2.627   3.235  16.155  0.00  0.00    +0.000 OA
ENDROOT
BRANCH   1  16
ATOM     12  C   UNL     1       5.995   4.005  13.892  0.00  0.00    +0.000 A 
ATOM     13  C   UNL     1       7.201   4.671  14.081  0.00  0.00    +0.000 A 
ATOM     14  C   UNL     1       7.528   5.126  15.364  0.00  0.00    +0.000 A 
ATOM     15  C   UNL     1       6.691   4.863  16.466  0.00  0.00    +0.000 A 
ATOM     16  C   UNL     1       5.483   4.201  16.281  0.00  0.00    +0.000 A 
ATOM     17  C   UNL     1       5.120   3.851  14.958  0.00  0.00    +0.000 A 
BRANCH  12  19
ATOM     18  O   UNL     1       4.479   3.481  12.134  0.00  0.00    +0.000 OA
ATOM     19  C   UNL     1       5.596   3.372  12.614  0.00  0.00    +0.000 C 
BRANCH  19  20
ATOM     20  O   UNL     1       6.540   2.540  12.135  0.00  0.00    +0.000 OA
ATOM     21  H   UNL     1       7.423   2.943  12.033  0.00  0.00    +0.000 HD
ENDBRANCH  19  20
ENDBRANCH  12  19
ENDBRANCH   1  16
BRANCH   2  22
ATOM     22  C   UNL     1       4.379   5.662  18.739  0.00  0.00    +0.000 C 
ATOM     23  C   UNL     1       3.527   6.015  19.710  0.00  0.00    +0.000 C 
BRANCH  23  24
ATOM     24  C   UNL     1       2.507   7.072  19.534  0.00  0.00    +0.000 A 
ATOM     25  C   UNL     1       2.422   7.676  18.273  0.00  0.00    +0.000 A 
ATOM     26  C   UNL     1       1.666   8.838  18.081  0.00  0.00    +0.000 A 
ATOM     27  C   UNL     1       0.983   9.405  19.152  0.00  0.00    +0.000 A 
ATOM     28 CL   UNL     1       0.121  10.878  18.936  0.00  0.00    +0.000 Cl
ATOM     29  C   UNL     1       1.017   8.801  20.403  0.00  0.00    +0.000 A 
ATOM     30  C   UNL     1       1.767   7.637  20.588  0.00  0.00    +0.000 A 
ENDBRANCH  23  24
ENDBRANCH   2  22
TORSDOF 5
ENDMDL
MODEL 2
REMARK VINA RESULT:      -9.3      2.319      2.925
REMARK  Name = 
REMARK  5 active torsions:
REMARK  status: ('A' for Active; 'I' for Inactive)
REMARK    1  A    between atoms: C_2  and  O_3
REMARK    2  A    between atoms: C_2  and  C_4
REMARK    3  A    between atoms: C_8  and  N_9
REMARK    4  A    between atoms: C_10  and  C_11
REMARK    5  A    between atoms: C_12  and  C_13
REMARK                            x       y       z     vdW  Elec       q    Type
REMARK                         _______ _______ _______ _____ _____    ______ ____
ROOT
ATOM      1  N   UNL     1       4.663   3.906  18.344  0.00  0.00    +0.000 N 
ATOM      2  C   UNL     1       4.190   4.698  19.374  0.00  0.00    +0.000 A 
ATOM      3  N   UNL     1       4.108   4.126  20.537  0.00  0.00    +0.000 NA
ATOM      4  C   UNL     1       3.115   3.131  20.472  0.00  0.00    +0.000 A 
ATOM      5  C   UNL     1       2.235   3.036  21.548  0.00  0.00    +0.000 A 
ATOM      6  C   UNL     1       0.910   2.718  21.294  0.00  0.00    +0.000 A 
ATOM      7  C   UNL     1       0.497   2.452  19.983  0.00  0.00    +0.000 A 
ATOM      8  C   UNL     1       1.435   2.341  18.939  0.00  0.00    +0.000 A 
ATOM      9  C   UNL     1       2.773   2.617  19.201  0.00  0.00    +0.000 A 
ATOM     10  C   UNL     1       3.822   2.809  18.102  0.00  0.00    +0.000 A 
ATOM     11  O   UNL     1       3.759   2.134  17.087  0.00  0.00    +0.000 OA
ENDROOT
BRANCH   1  16
ATOM     12  C   UNL     1       7.242   6.294  17.141  0.00  0.00    +0.000 A 
ATOM     13  C   UNL     1       7.410   5.937  15.807  0.00  0.00    +0.000 A 
ATOM     14  C   UNL     1       6.709   4.833  15.309  0.00  0.00    +0.000 A 
ATOM     15  C   UNL     1       5.796   4.126  16.114  0.00  0.00    +0.000 A 
ATOM     16  C   UNL     1       5.627   4.477  17.449  0.00  0.00    +0.000 A 
ATOM     17  C   UNL     1       6.430   5.524  17.961  0.00  0.00    +0.000 A 
BRANCH  12  19
ATOM     18  O   UNL     1       7.838   8.597  17.196  0.00  0.00    +0.000 OA
ATOM     19  C   UNL     1       7.831   7.509  17.749  0.00  0.00    +0.000 C 
BRANCH  19  20
ATOM     20  O   UNL     1       8.492   7.244  18.892  0.00  0.00    +0.000 OA
ATOM     21  H   UNL     1       8.050   7.562  19.701  0.00  0.00    +0.000 HD
ENDBRANCH  19  20
ENDBRANCH  12  19
ENDBRANCH   1  16
BRANCH   2  22
ATOM     22  C   UNL     1       3.134   5.643  18.799  0.00  0.00    +0.000 C 
ATOM     23  C   UNL     1       3.284   6.970  18.886  0.00  0.00    +0.000 C 
BRANCH  23  24
ATOM     24  C   UNL     1       2.140   7.897  19.035  0.00  0.00    +0.000 A 
ATOM     25  C   UNL     1       1.770   8.643  17.908  0.00  0.00    +0.000 A 
ATOM     26  C   UNL     1       0.871   9.710  18.015  0.00  0.00    +0.000 A 
ATOM     27  C   UNL     1       0.327  10.037  19.253  0.00  0.00    +0.000 A 
ATOM     28 CL   UNL     1      -0.714  11.399  19.400  0.00  0.00    +0.000 Cl
ATOM     29  C   UNL     1       0.645   9.286  20.377  0.00  0.00    +0.000 A 
ATOM     30  C   UNL     1       1.538   8.217  20.265  0.00  0.00    +0.000 A 
ENDBRANCH  23  24
ENDBRANCH   2  22
TORSDOF 5
ENDMDL
MODEL 3
REMARK VINA RESULT:      -9.1      2.814      5.811
REMARK  Name = 
REMARK  5 active torsions:
REMARK  status: ('A' for Active; 'I' for Inactive)
REMARK    1  A    between atoms: C_2  and  O_3
REMARK    2  A    between atoms: C_2  and  C_4
REMARK    3  A    between atoms: C_8  and  N_9
REMARK    4  A    between atoms: C_10  and  C_11
REMARK    5  A    between atoms: C_12  and  C_13
REMARK                            x       y       z     vdW  Elec       q    Type
REMARK                         _______ _______ _______ _____ _____    ______ ____
ROOT
ATOM      1  N   UNL     1       4.100   4.537  18.129  0.00  0.00    +0.000 N 
ATOM      2  C   UNL     1       4.002   5.720  17.420  0.00  0.00    +0.000 A 
ATOM      3  N   UNL     1       4.799   5.839  16.402  0.00  0.00    +0.000 NA
ATOM      4  C   UNL     1       6.121   5.909  16.880  0.00  0.00    +0.000 A 
ATOM      5  C   UNL     1       6.961   6.854  16.296  0.00  0.00    +0.000 A 
ATOM      6  C   UNL     1       7.884   7.507  17.100  0.00  0.00    +0.000 A 
ATOM      7  C   UNL     1       7.986   7.173  18.455  0.00  0.00    +0.000 A 
ATOM      8  C   UNL     1       7.284   6.072  18.982  0.00  0.00    +0.000 A 
ATOM      9  C   UNL     1       6.390   5.387  18.166  0.00  0.00    +0.000 A 
ATOM     10  C   UNL     1       5.372   4.374  18.698  0.00  0.00    +0.000 A 
ATOM     11  O   UNL     1       5.680   3.647  19.628  0.00  0.00    +0.000 OA
ENDROOT
BRANCH   1  16
ATOM     12  C   UNL     1       1.697   2.810  20.374  0.00  0.00    +0.000 A 
ATOM     13  C   UNL     1       0.698   2.382  19.506  0.00  0.00    +0.000 A 
ATOM     14  C   UNL     1       0.781   2.737  18.154  0.00  0.00    +0.000 A 
ATOM     15  C   UNL     1       1.884   3.456  17.655  0.00  0.00    +0.000 A 
ATOM     16  C   UNL     1       2.883   3.887  18.520  0.00  0.00    +0.000 A 
ATOM     17  C   UNL     1       2.722   3.616  19.900  0.00  0.00    +0.000 A 
BRANCH  12  19
ATOM     18  O   UNL     1       0.830   2.409  22.554  0.00  0.00    +0.000 OA
ATOM     19  C   UNL     1       1.785   2.398  21.794  0.00  0.00    +0.000 C 
BRANCH  19  20
ATOM     20  O   UNL     1       3.053   2.171  22.186  0.00  0.00    +0.000 OA
ATOM     21  H   UNL     1       3.371   1.262  22.030  0.00  0.00    +0.000 HD
ENDBRANCH  19  20
ENDBRANCH  12  19
ENDBRANCH   1  16
BRANCH   2  22
ATOM     22  C   UNL     1       3.693   6.842  18.413  0.00  0.00    +0.000 C 
ATOM     23  C   UNL     1       2.446   7.035  18.860  0.00  0.00    +0.000 C 
BRANCH  23  24
ATOM     24  C   UNL     1       1.914   8.375  19.193  0.00  0.00    +0.000 A 
ATOM     25  C   UNL     1       1.383   8.551  20.477  0.00  0.00    +0.000 A 
ATOM     26  C   UNL     1       0.645   9.695  20.800  0.00  0.00    +0.000 A 
ATOM     27  C   UNL     1       0.435  10.679  19.838  0.00  0.00    +0.000 A 
ATOM     28 CL   UNL     1      -0.542  12.045  20.208  0.00  0.00    +0.000 Cl
ATOM     29  C   UNL     1       0.987  10.547  18.570  0.00  0.00    +0.000 A 
ATOM     30  C   UNL     1       1.730   9.406  18.255  0.00  0.00    +0.000 A 
ENDBRANCH  23  24
ENDBRANCH   2  22
TORSDOF 5
ENDMDL
MODEL 4
REMARK VINA RESULT:      -8.9      0.842      1.391
REMARK  Name = 
REMARK  5 active torsions:
REMARK  status: ('A' for Active; 'I' for Inactive)
REMARK    1  A    between atoms: C_2  and  O_3
REMARK    2  A    between atoms: C_2  and  C_4
REMARK    3  A    between atoms: C_8  and  N_9
REMARK    4  A    between atoms: C_10  and  C_11
REMARK    5  A    between atoms: C_12  and  C_13
REMARK                            x       y       z     vdW  Elec       q    Type
REMARK                         _______ _______ _______ _____ _____    ______ ____
ROOT
ATOM      1  N   UNL     1       4.532   3.889  17.789  0.00  0.00    +0.000 N 
ATOM      2  C   UNL     1       4.247   4.685  18.882  0.00  0.00    +0.000 A 
ATOM      3  N   UNL     1       4.292   4.097  20.038  0.00  0.00    +0.000 NA
ATOM      4  C   UNL     1       3.245   3.157  20.098  0.00  0.00    +0.000 A 
ATOM      5  C   UNL     1       2.515   3.089  21.282  0.00  0.00    +0.000 A 
ATOM      6  C   UNL     1       1.151   2.847  21.207  0.00  0.00    +0.000 A 
ATOM      7  C   UNL     1       0.552   2.627  19.961  0.00  0.00    +0.000 A 
ATOM      8  C   UNL     1       1.333   2.487  18.798  0.00  0.00    +0.000 A 
ATOM      9  C   UNL     1       2.707   2.686  18.879  0.00  0.00    +0.000 A 
ATOM     10  C   UNL     1       3.607   2.843  17.650  0.00  0.00    +0.000 A 
ATOM     11  O   UNL     1       3.371   2.192  16.646  0.00  0.00    +0.000 OA
ENDROOT
BRANCH   1  16
ATOM     12  C   UNL     1       6.030   4.296  14.413  0.00  0.00    +0.000 A 
ATOM     13  C   UNL     1       7.119   5.129  14.646  0.00  0.00    +0.000 A 
ATOM     14  C   UNL     1       7.323   5.631  15.936  0.00  0.00    +0.000 A 
ATOM     15  C   UNL     1       6.488   5.255  17.005  0.00  0.00    +0.000 A 
ATOM     16  C   UNL     1       5.397   4.424  16.777  0.00  0.00    +0.000 A 
ATOM     17  C   UNL     1       5.143   4.021  15.444  0.00  0.00    +0.000 A 
BRANCH  12  19
ATOM     18  O   UNL     1       6.673   3.215  12.394  0.00  0.00    +0.000 OA
ATOM     19  C   UNL     1       5.780   3.607  13.127  0.00  0.00    +0.000 C 
BRANCH  19  20
ATOM     20  O   UNL     1       4.477   3.611  12.786  0.00  0.00    +0.000 OA
ATOM     21  H   UNL     1       4.002   2.783  12.984  0.00  0.00    +0.000 HD
ENDBRANCH  19  20
ENDBRANCH  12  19
ENDBRANCH   1  16
BRANCH   2  22
ATOM     22  C   UNL     1       3.177   5.696  18.466  0.00  0.00    +0.000 C 
ATOM     23  C   UNL     1       3.477   6.994  18.333  0.00  0.00    +0.000 C 
BRANCH  23  24
ATOM     24  C   UNL     1       2.512   8.074  18.635  0.00  0.00    +0.000 A 
ATOM     25  C   UNL     1       1.952   8.090  19.919  0.00  0.00    +0.000 A 
ATOM     26  C   UNL     1       0.861   8.915  20.218  0.00  0.00    +0.000 A 
ATOM     27  C   UNL     1       0.324   9.737  19.232  0.00  0.00    +0.000 A 
ATOM     28 CL   UNL     1      -1.068  10.689  19.574  0.00  0.00    +0.000 Cl
ATOM     29  C   UNL     1       0.888   9.770  17.963  0.00  0.00    +0.000 A 
ATOM     30  C   UNL     1       1.981   8.950  17.672  0.00  0.00    +0.000 A 
ENDBRANCH  23  24
ENDBRANCH   2  22
TORSDOF 5
ENDMDL
MODEL 5
REMARK VINA RESULT:      -8.7      1.386      1.767
REMARK  Name = 
REMARK  5 active torsions:
REMARK  status: ('A' for Active; 'I' for Inactive)
REMARK    1  A    between atoms: C_2  and  O_3
REMARK    2  A    between atoms: C_2  and  C_4
REMARK    3  A    between atoms: C_8  and  N_9
REMARK    4  A    between atoms: C_10  and  C_11
REMARK    5  A    between atoms: C_12  and  C_13
REMARK                            x       y       z     vdW  Elec       q    Type
REMARK                         _______ _______ _______ _____ _____    ______ ____
ROOT
ATOM      1  N   UNL     1       4.651   4.483  18.445  0.00  0.00    +0.000 N 
ATOM      2  C   UNL     1       4.021   5.137  19.487  0.00  0.00    +0.000 A 
ATOM      3  N   UNL     1       3.910   4.467  20.593  0.00  0.00    +0.000 NA
ATOM      4  C   UNL     1       3.034   3.387  20.371  0.00  0.00    +0.000 A 
ATOM      5  C   UNL     1       2.089   3.119  21.359  0.00  0.00    +0.000 A 
ATOM      6  C   UNL     1       0.828   2.693  20.971  0.00  0.00    +0.000 A 
ATOM      7  C   UNL     1       0.547   2.496  19.614  0.00  0.00    +0.000 A 
ATOM      8  C   UNL     1       1.569   2.565  18.647  0.00  0.00    +0.000 A 
ATOM      9  C   UNL     1       2.847   2.948  19.042  0.00  0.00    +0.000 A 
ATOM     10  C   UNL     1       3.951   3.332  18.052  0.00  0.00    +0.000 A 
ATOM     11  O   UNL     1       4.037   2.740  16.989  0.00  0.00    +0.000 OA
ENDROOT
BRANCH   1  16
ATOM     12  C   UNL     1       6.785   5.346  15.529  0.00  0.00    +0.000 A 
ATOM     13  C   UNL     1       7.629   6.332  16.031  0.00  0.00    +0.000 A 
ATOM     14  C   UNL     1       7.441   6.777  17.345  0.00  0.00    +0.000 A 
ATOM     15  C   UNL     1       6.463   6.200  18.178  0.00  0.00    +0.000 A 
ATOM     16  C   UNL     1       5.616   5.217  17.679  0.00  0.00    +0.000 A 
ATOM     17  C   UNL     1       5.748   4.863  16.315  0.00  0.00    +0.000 A 
BRANCH  12  19
ATOM     18  O   UNL     1       7.496   5.267  13.260  0.00  0.00    +0.000 OA
ATOM     19  C   UNL     1       6.960   4.710  14.204  0.00  0.00    +0.000 C 
BRANCH  19  20
ATOM     20  O   UNL     1       6.323   3.527  14.114  0.00  0.00    +0.000 OA
ATOM     21  H   UNL     1       5.949   3.201  14.953  0.00  0.00    +0.000 HD
ENDBRANCH  19  20
ENDBRANCH  12  19
ENDBRANCH   1  16
BRANCH   2  22
ATOM     22  C   UNL     1       2.918   6.018  18.896  0.00  0.00    +0.000 C 
ATOM     23  C   UNL     1       3.014   7.353  18.937  0.00  0.00    +0.000 C 
BRANCH  23  24
ATOM     24  C   UNL     1       1.835   8.236  19.071  0.00  0.00    +0.000 A 
ATOM     25  C   UNL     1       1.425   8.935  17.928  0.00  0.00    +0.000 A 
ATOM     26  C   UNL     1       0.484   9.967  18.014  0.00  0.00    +0.000 A 
ATOM     27  C   UNL     1      -0.062  10.305  19.249  0.00  0.00    +0.000 A 
ATOM     28 CL   UNL     1      -1.156  11.627  19.368  0.00  0.00    +0.000 Cl
ATOM     29  C   UNL     1       0.295   9.599  20.390  0.00  0.00    +0.000 A 
ATOM     30  C   UNL     1       1.230   8.565  20.298  0.00  0.00    +0.000 A 
ENDBRANCH  23  24
ENDBRANCH   2  22
TORSDOF 5
ENDMDL
MODEL 6
REMARK VINA RESULT:      -8.7      4.740      7.906
REMARK  Name = 
REMARK  5 active torsions:
REMARK  status: ('A' for Active; 'I' for Inactive)
REMARK    1  A    between atoms: C_2  and  O_3
REMARK    2  A    between atoms: C_2  and  C_4
REMARK    3  A    between atoms: C_8  and  N_9
REMARK    4  A    between atoms: C_10  and  C_11
REMARK    5  A    between atoms: C_12  and  C_13
REMARK                            x       y       z     vdW  Elec       q    Type
REMARK                         _______ _______ _______ _____ _____    ______ ____
ROOT
ATOM      1  N   UNL     1       1.257   9.676  20.174  0.00  0.00    +0.000 N 
ATOM      2  C   UNL     1       0.729  10.796  19.560  0.00  0.00    +0.000 A 
ATOM      3  N   UNL     1       1.039  11.936  20.097  0.00  0.00    +0.000 NA
ATOM      4  C   UNL     1       0.437  12.005  21.368  0.00  0.00    +0.000 A 
ATOM      5  C   UNL     1      -0.166  13.209  21.724  0.00  0.00    +0.000 A 
ATOM      6  C   UNL     1      -1.333  13.169  22.472  0.00  0.00    +0.000 A 
ATOM      7  C   UNL     1      -1.848  11.938  22.893  0.00  0.00    +0.000 A 
ATOM      8  C   UNL     1      -1.116  10.748  22.711  0.00  0.00    +0.000 A 
ATOM      9  C   UNL     1       0.077  10.793  21.998  0.00  0.00    +0.000 A 
ATOM     10  C   UNL     1       0.802   9.541  21.494  0.00  0.00    +0.000 A 
ATOM     11  O   UNL     1       0.797   8.529  22.176  0.00  0.00    +0.000 OA
ENDROOT
BRANCH   1  16
ATOM     12  C   UNL     1       2.625   6.341  19.274  0.00  0.00    +0.000 A 
ATOM     13  C   UNL     1       3.110   6.531  17.984  0.00  0.00    +0.000 A 
ATOM     14  C   UNL     1       2.915   7.772  17.365  0.00  0.00    +0.000 A 
ATOM     15  C   UNL     1       2.299   8.838  18.049  0.00  0.00    +0.000 A 
ATOM     16  C   UNL     1       1.811   8.651  19.336  0.00  0.00    +0.000 A 
ATOM     17  C   UNL     1       1.917   7.357  19.900  0.00  0.00    +0.000 A 
BRANCH  12  19
ATOM     18  O   UNL     1       3.281   4.076  19.594  0.00  0.00    +0.000 OA
ATOM     19  C   UNL     1       2.876   5.121  20.076  0.00  0.00    +0.000 C 
BRANCH  19  20
ATOM     20  O   UNL     1       2.454   5.247  21.349  0.00  0.00    +0.000 OA
ATOM     21  H   UNL     1       1.486   5.211  21.462  0.00  0.00    +0.000 HD
ENDBRANCH  19  20
ENDBRANCH  12  19
ENDBRANCH   1  16
BRANCH   2  22
ATOM     22  C   UNL     1      -0.663  10.437  19.035  0.00  0.00    +0.000 C 
ATOM     23  C   UNL     1      -1.356  11.303  18.286  0.00  0.00    +0.000 C 
BRANCH  23  24
ATOM     24  C   UNL     1      -2.832  11.395  18.327  0.00  0.00    +0.000 A 
ATOM     25  C   UNL     1      -3.532  10.962  17.194  0.00  0.00    +0.000 A 
ATOM     26  C   UNL     1      -4.897  11.234  17.045  0.00  0.00    +0.000 A 
ATOM     27  C   UNL     1      -5.576  11.939  18.034  0.00  0.00    +0.000 A 
ATOM     28 CL   UNL     1      -7.233  12.345  17.813  0.00  0.00    +0.000 Cl
ATOM     29  C   UNL     1      -4.913  12.342  19.186  0.00  0.00    +0.000 A 
ATOM     30  C   UNL     1      -3.552  12.062  19.334  0.00  0.00    +0.000 A 
ENDBRANCH  23  24
ENDBRANCH   2  22
TORSDOF 5
ENDMDL
MODEL 7
REMARK VINA RESULT:      -8.7      2.128      2.853
REMARK  Name = 
REMARK  5 active torsions:
REMARK  status: ('A' for Active; 'I' for Inactive)
REMARK    1  A    between atoms: C_2  and  O_3
REMARK    2  A    between atoms: C_2  and  C_4
REMARK    3  A    between atoms: C_8  and  N_9
REMARK    4  A    between atoms: C_10  and  C_11
REMARK    5  A    between atoms: C_12  and  C_13
REMARK                            x       y       z     vdW  Elec       q    Type
REMARK                         _______ _______ _______ _____ _____    ______ ____
ROOT
ATOM      1  N   UNL     1       4.516   3.763  18.049  0.00  0.00    +0.000 N 
ATOM      2  C   UNL     1       4.724   3.909  19.408  0.00  0.00    +0.000 A 
ATOM      3  N   UNL     1       4.549   2.843  20.126  0.00  0.00    +0.000 NA
ATOM      4  C   UNL     1       3.184   2.501  20.088  0.00  0.00    +0.000 A 
ATOM      5  C   UNL     1       2.589   2.116  21.288  0.00  0.00    +0.000 A 
ATOM      6  C   UNL     1       1.278   2.499  21.530  0.00  0.00    +0.000 A 
ATOM      7  C   UNL     1       0.571   3.212  20.556  0.00  0.00    +0.000 A 
ATOM      8  C   UNL     1       1.110   3.408  19.270  0.00  0.00    +0.000 A 
ATOM      9  C   UNL     1       2.409   2.986  19.011  0.00  0.00    +0.000 A 
ATOM     10  C   UNL     1       3.193   3.397  17.760  0.00  0.00    +0.000 A 
ATOM     11  O   UNL     1       2.606   3.516  16.697  0.00  0.00    +0.000 OA
ENDROOT
BRANCH   1  16
ATOM     12  C   UNL     1       7.112   6.159  16.901  0.00  0.00    +0.000 A 
ATOM     13  C   UNL     1       7.232   5.874  15.544  0.00  0.00    +0.000 A 
ATOM     14  C   UNL     1       6.492   4.815  15.008  0.00  0.00    +0.000 A 
ATOM     15  C   UNL     1       5.587   4.083  15.801  0.00  0.00    +0.000 A 
ATOM     16  C   UNL     1       5.466   4.362  17.157  0.00  0.00    +0.000 A 
ATOM     17  C   UNL     1       6.308   5.361  17.701  0.00  0.00    +0.000 A 
BRANCH  12  19
ATOM     18  O   UNL     1       7.844   8.419  17.026  0.00  0.00    +0.000 OA
ATOM     19  C   UNL     1       7.747   7.325  17.556  0.00  0.00    +0.000 C 
BRANCH  19  20
ATOM     20  O   UNL     1       8.341   7.000  18.720  0.00  0.00    +0.000 OA
ATOM     21  H   UNL     1       9.057   6.343  18.642  0.00  0.00    +0.000 HD
ENDBRANCH  19  20
ENDBRANCH  12  19
ENDBRANCH   1  16
BRANCH   2  22
ATOM     22  C   UNL     1       4.257   5.310  19.810  0.00  0.00    +0.000 C 
ATOM     23  C   UNL     1       2.960   5.639  19.757  0.00  0.00    +0.000 C 
BRANCH  23  24
ATOM     24  C   UNL     1       2.494   7.005  19.431  0.00  0.00    +0.000 A 
ATOM     25  C   UNL     1       1.788   7.695  20.425  0.00  0.00    +0.000 A 
ATOM     26  C   UNL     1       1.105   8.880  20.131  0.00  0.00    +0.000 A 
ATOM     27  C   UNL     1       1.127   9.390  18.837  0.00  0.00    +0.000 A 
ATOM     28 CL   UNL     1       0.220  10.801  18.456  0.00  0.00    +0.000 Cl
ATOM     29  C   UNL     1       1.855   8.748  17.844  0.00  0.00    +0.000 A 
ATOM     30  C   UNL     1       2.542   7.568  18.144  0.00  0.00    +0.000 A 
ENDBRANCH  23  24
ENDBRANCH   2  22
TORSDOF 5
ENDMDL
MODEL 8
REMARK VINA RESULT:      -8.6      5.191      8.506
REMARK  Name = 
REMARK  5 active torsions:
REMARK  status: ('A' for Active; 'I' for Inactive)
REMARK    1  A    between atoms: C_2  and  O_3
REMARK    2  A    between atoms: C_2  and  C_4
REMARK    3  A    between atoms: C_8  and  N_9
REMARK    4  A    between atoms: C_10  and  C_11
REMARK    5  A    between atoms: C_12  and  C_13
REMARK                            x       y       z     vdW  Elec       q    Type
REMARK                         _______ _______ _______ _____ _____    ______ ____
ROOT
ATOM      1  N   UNL     1       0.810  10.248  20.451  0.00  0.00    +0.000 N 
ATOM      2  C   UNL     1       0.262  11.391  19.897  0.00  0.00    +0.000 A 
ATOM      3  N   UNL     1       0.565  12.507  20.485  0.00  0.00    +0.000 NA
ATOM      4  C   UNL     1      -0.023  12.508  21.765  0.00  0.00    +0.000 A 
ATOM      5  C   UNL     1      -0.637  13.686  22.184  0.00  0.00    +0.000 A 
ATOM      6  C   UNL     1      -1.795  13.596  22.941  0.00  0.00    +0.000 A 
ATOM      7  C   UNL     1      -2.292  12.340  23.308  0.00  0.00    +0.000 A 
ATOM      8  C   UNL     1      -1.548  11.170  23.060  0.00  0.00    +0.000 A 
ATOM      9  C   UNL     1      -0.363  11.262  22.338  0.00  0.00    +0.000 A 
ATOM     10  C   UNL     1       0.370  10.045  21.767  0.00  0.00    +0.000 A 
ATOM     11  O   UNL     1       0.384   9.002  22.400  0.00  0.00    +0.000 OA
ENDROOT
BRANCH   1  16
ATOM     12  C   UNL     1       2.293   7.009  19.397  0.00  0.00    +0.000 A 
ATOM     13  C   UNL     1       2.692   7.252  18.087  0.00  0.00    +0.000 A 
ATOM     14  C   UNL     1       2.399   8.493  17.510  0.00  0.00    +0.000 A 
ATOM     15  C   UNL     1       1.770   9.511  18.251  0.00  0.00    +0.000 A 
ATOM     16  C   UNL     1       1.367   9.272  19.560  0.00  0.00    +0.000 A 
ATOM     17  C   UNL     1       1.571   7.974  20.085  0.00  0.00    +0.000 A 
BRANCH  12  19
ATOM     18  O   UNL     1       1.896   5.247  20.946  0.00  0.00    +0.000 OA
ATOM     19  C   UNL     1       2.651   5.788  20.154  0.00  0.00    +0.000 C 
BRANCH  19  20
ATOM     20  O   UNL     1       3.943   5.444  19.994  0.00  0.00    +0.000 OA
ATOM     21  H   UNL     1       4.465   5.430  20.818  0.00  0.00    +0.000 HD
ENDBRANCH  19  20
ENDBRANCH  12  19
ENDBRANCH   1  16
BRANCH   2  22
ATOM     22  C   UNL     1      -1.131  11.040  19.370  0.00  0.00    +0.000 C 
ATOM     23  C   UNL     1      -1.907  11.978  18.814  0.00  0.00    +0.000 C 
BRANCH  23  24
ATOM     24  C   UNL     1      -3.382  11.967  18.927  0.00  0.00    +0.000 A 
ATOM     25  C   UNL     1      -3.943  12.598  20.044  0.00  0.00    +0.000 A 
ATOM     26  C   UNL     1      -5.296  12.432  20.361  0.00  0.00    +0.000 A 
ATOM     27  C   UNL     1      -6.103  11.632  19.557  0.00  0.00    +0.000 A 
ATOM     28 CL   UNL     1      -7.744  11.360  19.993  0.00  0.00    +0.000 Cl
ATOM     29  C   UNL     1      -5.580  11.030  18.420  0.00  0.00    +0.000 A 
ATOM     30  C   UNL     1      -4.231  11.206  18.103  0.00  0.00    +0.000 A 
ENDBRANCH  23  24
ENDBRANCH   2  22
TORSDOF 5
ENDMDL
MODEL 9
REMARK VINA RESULT:      -8.6      4.573      7.829
REMARK  Name = 
REMARK  5 active torsions:
REMARK  status: ('A' for Active; 'I' for Inactive)
REMARK    1  A    between atoms: C_2  and  O_3
REMARK    2  A    between atoms: C_2  and  C_4
REMARK    3  A    between atoms: C_8  and  N_9
REMARK    4  A    between atoms: C_10  and  C_11
REMARK    5  A    between atoms: C_12  and  C_13
REMARK                            x       y       z     vdW  Elec       q    Type
REMARK                         _______ _______ _______ _____ _____    ______ ____
ROOT
ATOM      1  N   UNL     1       1.411   9.224  20.130  0.00  0.00    +0.000 N 
ATOM      2  C   UNL     1       0.992  10.227  19.276  0.00  0.00    +0.000 A 
ATOM      3  N   UNL     1       1.436  11.418  19.539  0.00  0.00    +0.000 NA
ATOM      4  C   UNL     1       0.877  11.840  20.760  0.00  0.00    +0.000 A 
ATOM      5  C   UNL     1       0.416  13.153  20.830  0.00  0.00    +0.000 A 
ATOM      6  C   UNL     1      -0.730  13.413  21.567  0.00  0.00    +0.000 A 
ATOM      7  C   UNL     1      -1.364  12.374  22.258  0.00  0.00    +0.000 A 
ATOM      8  C   UNL     1      -0.770  11.101  22.353  0.00  0.00    +0.000 A 
ATOM      9  C   UNL     1       0.404  10.850  21.649  0.00  0.00    +0.000 A 
ATOM     10  C   UNL     1       0.977   9.444  21.445  0.00  0.00    +0.000 A 
ATOM     11  O   UNL     1       0.879   8.621  22.341  0.00  0.00    +0.000 OA
ENDROOT
BRANCH   1  16
ATOM     12  C   UNL     1       1.961   5.558  19.888  0.00  0.00    +0.000 A 
ATOM     13  C   UNL     1       2.757   5.428  18.754  0.00  0.00    +0.000 A 
ATOM     14  C   UNL     1       3.059   6.572  18.006  0.00  0.00    +0.000 A 
ATOM     15  C   UNL     1       2.628   7.848  18.419  0.00  0.00    +0.000 A 
ATOM     16  C   UNL     1       1.831   7.982  19.549  0.00  0.00    +0.000 A 
ATOM     17  C   UNL     1       1.443   6.800  20.226  0.00  0.00    +0.000 A 
BRANCH  12  19
ATOM     18  O   UNL     1       2.443   4.105  21.709  0.00  0.00    +0.000 OA
ATOM     19  C   UNL     1       1.676   4.447  20.824  0.00  0.00    +0.000 C 
BRANCH  19  20
ATOM     20  O   UNL     1       0.565   3.764  20.488  0.00  0.00    +0.000 OA
ATOM     21  H   UNL     1       0.428   3.658  19.528  0.00  0.00    +0.000 HD
ENDBRANCH  19  20
ENDBRANCH  12  19
ENDBRANCH   1  16
BRANCH   2  22
ATOM     22  C   UNL     1      -0.443   9.914  18.846  0.00  0.00    +0.000 C 
ATOM     23  C   UNL     1      -1.051  10.650  17.908  0.00  0.00    +0.000 C 
BRANCH  23  24
ATOM     24  C   UNL     1      -2.506  10.917  17.920  0.00  0.00    +0.000 A 
ATOM     25  C   UNL     1      -3.208  10.690  16.729  0.00  0.00    +0.000 A 
ATOM     26  C   UNL     1      -4.524  11.140  16.573  0.00  0.00    +0.000 A 
ATOM     27  C   UNL     1      -5.153  11.818  17.613  0.00  0.00    +0.000 A 
ATOM     28 CL   UNL     1      -6.740  12.444  17.392  0.00  0.00    +0.000 Cl
ATOM     29  C   UNL     1      -4.493  12.018  18.818  0.00  0.00    +0.000 A 
ATOM     30  C   UNL     1      -3.182  11.561  18.972  0.00  0.00    +0.000 A 
ENDBRANCH  23  24
ENDBRANCH   2  22
TORSDOF 5
ENDMDL
