MODEL 1
REMARK VINA RESULT:      -6.7      0.000      0.000
REMARK  Name = 
REMARK  3 active torsions:
REMARK  status: ('A' for Active; 'I' for Inactive)
REMARK    1  A    between atoms: C_1  and  N_2
REMARK    2  A    between atoms: N_5  and  C_6
REMARK    3  A    between atoms: C_18  and  C_19
REMARK                            x       y       z     vdW  Elec       q    Type
REMARK                         _______ _______ _______ _____ _____    ______ ____
ROOT
ATOM      1  C   UNL     1      -0.940  12.343  19.911  0.00  0.00    +0.000 C 
ATOM      2  C   UNL     1      -2.196  13.159  20.381  0.00  0.00    +0.000 C 
ATOM      3  C   UNL     1      -2.024  14.003  21.619  0.00  0.00    +0.000 A 
ATOM      4  C   UNL     1      -2.214  15.391  21.586  0.00  0.00    +0.000 A 
ATOM      5  C   UNL     1      -1.781  16.191  22.650  0.00  0.00    +0.000 A 
ATOM      6  C   UNL     1      -1.187  15.608  23.765  0.00  0.00    +0.000 A 
ATOM      7  C   UNL     1      -1.157  14.222  23.873  0.00  0.00    +0.000 A 
ATOM      8  C   UNL     1      -1.628  13.425  22.827  0.00  0.00    +0.000 A 
ATOM      9  S   UNL     1      -1.953  11.723  23.147  0.00  0.00    +0.000 S 
ATOM     10  C   UNL     1      -0.810  10.872  22.102  0.00  0.00    +0.000 A 
ATOM     11  C   UNL     1      -0.269   9.739  22.739  0.00  0.00    +0.000 A 
ATOM     12  C   UNL     1       0.560   8.842  22.075  0.00  0.00    +0.000 A 
ATOM     13  C   UNL     1       0.859   9.024  20.720  0.00  0.00    +0.000 A 
ATOM     14  C   UNL     1       0.348  10.184  20.101  0.00  0.00    +0.000 A 
ATOM     15  C   UNL     1      -0.477  11.139  20.764  0.00  0.00    +0.000 A 
ENDROOT
BRANCH   1  20
ATOM     16  C   UNL     1       0.490  17.262  20.240  0.00  0.00    +0.000 C 
ATOM     17  N   UNL     1       0.874  15.983  19.637  0.00  0.00    +0.000 NA
ATOM     18  C   UNL     1      -0.205  15.491  18.764  0.00  0.00    +0.000 C 
ATOM     19  C   UNL     1      -0.004  14.041  18.284  0.00  0.00    +0.000 C 
ATOM     20  N   UNL     1       0.234  13.062  19.345  0.00  0.00    +0.000 NA
ATOM     21  C   UNL     1       1.297  13.521  20.242  0.00  0.00    +0.000 C 
ATOM     22  C   UNL     1       1.251  15.005  20.672  0.00  0.00    +0.000 C 
ENDBRANCH   1  20
BRANCH  13  23
ATOM     23  C   UNL     1       1.657   8.016  19.985  0.00  0.00    +0.000 A 
ATOM     24  C   UNL     1       1.914   6.752  20.543  0.00  0.00    +0.000 A 
ATOM     25  C   UNL     1       2.663   5.828  19.831  0.00  0.00    +0.000 A 
ATOM     26  N   UNL     1       3.167   6.057  18.605  0.00  0.00    +0.000 NA
ATOM     27  C   UNL     1       2.911   7.273  18.073  0.00  0.00    +0.000 A 
ATOM     28  C   UNL     1       2.184   8.267  18.713  0.00  0.00    +0.000 A 
ENDBRANCH  13  23
TORSDOF 2
ENDMDL
MODEL 2
REMARK VINA RESULT:      -6.7      3.754      7.678
REMARK  Name = 
REMARK  3 active torsions:
REMARK  status: ('A' for Active; 'I' for Inactive)
REMARK    1  A    between atoms: C_1  and  N_2
REMARK    2  A    between atoms: N_5  and  C_6
REMARK    3  A    between atoms: C_18  and  C_19
REMARK                            x       y       z     vdW  Elec       q    Type
REMARK                         _______ _______ _______ _____ _____    ______ ____
ROOT
ATOM      1  C   UNL     1      -2.192  12.143  19.112  0.00  0.00    +0.000 C 
ATOM      2  C   UNL     1      -0.748  12.201  18.497  0.00  0.00    +0.000 C 
ATOM      3  C   UNL     1       0.182  11.070  18.858  0.00  0.00    +0.000 A 
ATOM      4  C   UNL     1       0.735  10.240  17.874  0.00  0.00    +0.000 A 
ATOM      5  C   UNL     1       1.358   9.037  18.228  0.00  0.00    +0.000 A 
ATOM      6  C   UNL     1       1.459   8.672  19.566  0.00  0.00    +0.000 A 
ATOM      7  C   UNL     1       1.066   9.574  20.550  0.00  0.00    +0.000 A 
ATOM      8  C   UNL     1       0.484  10.792  20.193  0.00  0.00    +0.000 A 
ATOM      9  S   UNL     1       0.376  12.062  21.410  0.00  0.00    +0.000 S 
ATOM     10  C   UNL     1      -1.363  12.303  21.616  0.00  0.00    +0.000 A 
ATOM     11  C   UNL     1      -1.701  12.520  22.964  0.00  0.00    +0.000 A 
ATOM     12  C   UNL     1      -2.991  12.856  23.359  0.00  0.00    +0.000 A 
ATOM     13  C   UNL     1      -4.003  13.022  22.406  0.00  0.00    +0.000 A 
ATOM     14  C   UNL     1      -3.665  12.759  21.062  0.00  0.00    +0.000 A 
ATOM     15  C   UNL     1      -2.361  12.383  20.630  0.00  0.00    +0.000 A 
ENDROOT
BRANCH   1  20
ATOM     16  C   UNL     1      -3.143  10.314  14.410  0.00  0.00    +0.000 C 
ATOM     17  N   UNL     1      -3.573  10.198  15.806  0.00  0.00    +0.000 NA
ATOM     18  C   UNL     1      -4.048  11.500  16.300  0.00  0.00    +0.000 C 
ATOM     19  C   UNL     1      -4.285  11.540  17.822  0.00  0.00    +0.000 C 
ATOM     20  N   UNL     1      -3.150  11.107  18.638  0.00  0.00    +0.000 NA
ATOM     21  C   UNL     1      -2.641   9.816  18.172  0.00  0.00    +0.000 C 
ATOM     22  C   UNL     1      -2.497   9.637  16.643  0.00  0.00    +0.000 C 
ENDBRANCH   1  20
BRANCH  13  23
ATOM     23  C   UNL     1      -5.351  13.478  22.813  0.00  0.00    +0.000 A 
ATOM     24  C   UNL     1      -5.541  14.746  23.388  0.00  0.00    +0.000 A 
ATOM     25  C   UNL     1      -6.815  15.147  23.759  0.00  0.00    +0.000 A 
ATOM     26  N   UNL     1      -7.917  14.391  23.593  0.00  0.00    +0.000 NA
ATOM     27  C   UNL     1      -7.726  13.176  23.034  0.00  0.00    +0.000 A 
ATOM     28  C   UNL     1      -6.490  12.682  22.644  0.00  0.00    +0.000 A 
ENDBRANCH  13  23
TORSDOF 2
ENDMDL
MODEL 3
REMARK VINA RESULT:      -6.5      0.968      1.409
REMARK  Name = 
REMARK  3 active torsions:
REMARK  status: ('A' for Active; 'I' for Inactive)
REMARK    1  A    between atoms: C_1  and  N_2
REMARK    2  A    between atoms: N_5  and  C_6
REMARK    3  A    between atoms: C_18  and  C_19
REMARK                            x       y       z     vdW  Elec       q    Type
REMARK                         _______ _______ _______ _____ _____    ______ ____
ROOT
ATOM      1  C   UNL     1      -1.283  13.343  20.327  0.00  0.00    +0.000 C 
ATOM      2  C   UNL     1      -2.532  14.144  20.839  0.00  0.00    +0.000 C 
ATOM      3  C   UNL     1      -2.390  14.829  22.176  0.00  0.00    +0.000 A 
ATOM      4  C   UNL     1      -2.534  16.217  22.301  0.00  0.00    +0.000 A 
ATOM      5  C   UNL     1      -2.125  16.869  23.470  0.00  0.00    +0.000 A 
ATOM      6  C   UNL     1      -1.600  16.137  24.530  0.00  0.00    +0.000 A 
ATOM      7  C   UNL     1      -1.619  14.748  24.473  0.00  0.00    +0.000 A 
ATOM      8  C   UNL     1      -2.067  14.098  23.321  0.00  0.00    +0.000 A 
ATOM      9  S   UNL     1      -2.461  12.383  23.421  0.00  0.00    +0.000 S 
ATOM     10  C   UNL     1      -1.299  11.620  22.329  0.00  0.00    +0.000 A 
ATOM     11  C   UNL     1      -0.823  10.401  22.848  0.00  0.00    +0.000 A 
ATOM     12  C   UNL     1       0.005   9.558  22.117  0.00  0.00    +0.000 A 
ATOM     13  C   UNL     1       0.371   9.887  20.806  0.00  0.00    +0.000 A 
ATOM     14  C   UNL     1      -0.074  11.131  20.310  0.00  0.00    +0.000 A 
ATOM     15  C   UNL     1      -0.898  12.030  21.048  0.00  0.00    +0.000 A 
ENDROOT
BRANCH   1  20
ATOM     16  C   UNL     1       0.019  18.286  20.801  0.00  0.00    +0.000 C 
ATOM     17  N   UNL     1       0.491  17.012  20.252  0.00  0.00    +0.000 NA
ATOM     18  C   UNL     1      -0.469  16.500  19.261  0.00  0.00    +0.000 C 
ATOM     19  C   UNL     1      -0.190  15.053  18.814  0.00  0.00    +0.000 C 
ATOM     20  N   UNL     1      -0.063  14.081  19.900  0.00  0.00    +0.000 NA
ATOM     21  C   UNL     1       0.880  14.558  20.914  0.00  0.00    +0.000 C 
ATOM     22  C   UNL     1       0.760  16.043  21.329  0.00  0.00    +0.000 C 
ENDBRANCH   1  20
BRANCH  13  23
ATOM     23  C   UNL     1       1.169   8.945  19.989  0.00  0.00    +0.000 A 
ATOM     24  C   UNL     1       1.480   9.236  18.650  0.00  0.00    +0.000 A 
ATOM     25  C   UNL     1       2.231   8.336  17.909  0.00  0.00    +0.000 A 
ATOM     26  N   UNL     1       2.705   7.175  18.399  0.00  0.00    +0.000 NA
ATOM     27  C   UNL     1       2.406   6.906  19.689  0.00  0.00    +0.000 A 
ATOM     28  C   UNL     1       1.651   7.736  20.505  0.00  0.00    +0.000 A 
ENDBRANCH  13  23
TORSDOF 2
ENDMDL
MODEL 4
REMARK VINA RESULT:      -6.5      1.161      1.473
REMARK  Name = 
REMARK  3 active torsions:
REMARK  status: ('A' for Active; 'I' for Inactive)
REMARK    1  A    between atoms: C_1  and  N_2
REMARK    2  A    between atoms: N_5  and  C_6
REMARK    3  A    between atoms: C_18  and  C_19
REMARK                            x       y       z     vdW  Elec       q    Type
REMARK                         _______ _______ _______ _____ _____    ______ ____
ROOT
ATOM      1  C   UNL     1       0.306  12.457  19.428  0.00  0.00    +0.000 C 
ATOM      2  C   UNL     1      -0.855  13.503  19.578  0.00  0.00    +0.000 C 
ATOM      3  C   UNL     1      -0.935  14.233  20.896  0.00  0.00    +0.000 A 
ATOM      4  C   UNL     1      -0.836  15.629  20.962  0.00  0.00    +0.000 A 
ATOM      5  C   UNL     1      -0.628  16.268  22.190  0.00  0.00    +0.000 A 
ATOM      6  C   UNL     1      -0.549  15.520  23.360  0.00  0.00    +0.000 A 
ATOM      7  C   UNL     1      -0.820  14.157  23.316  0.00  0.00    +0.000 A 
ATOM      8  C   UNL     1      -1.070  13.529  22.094  0.00  0.00    +0.000 A 
ATOM      9  S   UNL     1      -1.800  11.925  22.105  0.00  0.00    +0.000 S 
ATOM     10  C   UNL     1      -0.564  10.895  21.373  0.00  0.00    +0.000 A 
ATOM     11  C   UNL     1      -0.485   9.644  22.015  0.00  0.00    +0.000 A 
ATOM     12  C   UNL     1       0.327   8.620  21.542  0.00  0.00    +0.000 A 
ATOM     13  C   UNL     1       1.078   8.794  20.373  0.00  0.00    +0.000 A 
ATOM     14  C   UNL     1       1.026  10.064  19.762  0.00  0.00    +0.000 A 
ATOM     15  C   UNL     1       0.229  11.144  20.242  0.00  0.00    +0.000 A 
ENDROOT
BRANCH   1  20
ATOM     16  C   UNL     1       2.355  17.119  20.074  0.00  0.00    +0.000 C 
ATOM     17  N   UNL     1       2.704  15.740  19.725  0.00  0.00    +0.000 NA
ATOM     18  C   UNL     1       1.966  15.319  18.523  0.00  0.00    +0.000 C 
ATOM     19  C   UNL     1       2.072  13.811  18.223  0.00  0.00    +0.000 C 
ATOM     20  N   UNL     1       1.714  12.930  19.335  0.00  0.00    +0.000 NA
ATOM     21  C   UNL     1       2.423  13.323  20.555  0.00  0.00    +0.000 C 
ATOM     22  C   UNL     1       2.482  14.836  20.867  0.00  0.00    +0.000 C 
ENDBRANCH   1  20
BRANCH  13  23
ATOM     23  C   UNL     1       1.863   7.672  19.811  0.00  0.00    +0.000 A 
ATOM     24  C   UNL     1       2.517   7.798  18.574  0.00  0.00    +0.000 A 
ATOM     25  C   UNL     1       3.248   6.731  18.072  0.00  0.00    +0.000 A 
ATOM     26  N   UNL     1       3.388   5.554  18.710  0.00  0.00    +0.000 NA
ATOM     27  C   UNL     1       2.760   5.443  19.901  0.00  0.00    +0.000 A 
ATOM     28  C   UNL     1       1.997   6.448  20.477  0.00  0.00    +0.000 A 
ENDBRANCH  13  23
TORSDOF 2
ENDMDL
MODEL 5
REMARK VINA RESULT:      -6.3      1.521      1.796
REMARK  Name = 
REMARK  3 active torsions:
REMARK  status: ('A' for Active; 'I' for Inactive)
REMARK    1  A    between atoms: C_1  and  N_2
REMARK    2  A    between atoms: N_5  and  C_6
REMARK    3  A    between atoms: C_18  and  C_19
REMARK                            x       y       z     vdW  Elec       q    Type
REMARK                         _______ _______ _______ _____ _____    ______ ____
ROOT
ATOM      1  C   UNL     1       0.789  12.870  18.749  0.00  0.00    +0.000 C 
ATOM      2  C   UNL     1      -0.344  13.956  18.737  0.00  0.00    +0.000 C 
ATOM      3  C   UNL     1      -0.629  14.644  20.049  0.00  0.00    +0.000 A 
ATOM      4  C   UNL     1      -0.496  16.032  20.186  0.00  0.00    +0.000 A 
ATOM      5  C   UNL     1      -0.484  16.622  21.456  0.00  0.00    +0.000 A 
ATOM      6  C   UNL     1      -0.635  15.833  22.592  0.00  0.00    +0.000 A 
ATOM      7  C   UNL     1      -0.940  14.483  22.448  0.00  0.00    +0.000 A 
ATOM      8  C   UNL     1      -0.993  13.907  21.177  0.00  0.00    +0.000 A 
ATOM      9  S   UNL     1      -1.767  12.333  20.999  0.00  0.00    +0.000 S 
ATOM     10  C   UNL     1      -0.457  11.280  20.451  0.00  0.00    +0.000 A 
ATOM     11  C   UNL     1      -0.532  10.007  21.047  0.00  0.00    +0.000 A 
ATOM     12  C   UNL     1       0.315   8.967  20.681  0.00  0.00    +0.000 A 
ATOM     13  C   UNL     1       1.263   9.150  19.668  0.00  0.00    +0.000 A 
ATOM     14  C   UNL     1       1.361  10.441  19.107  0.00  0.00    +0.000 A 
ATOM     15  C   UNL     1       0.529  11.534  19.484  0.00  0.00    +0.000 A 
ENDROOT
BRANCH   1  20
ATOM     16  C   UNL     1       2.839  17.366  20.140  0.00  0.00    +0.000 C 
ATOM     17  N   UNL     1       3.201  16.010  19.720  0.00  0.00    +0.000 NA
ATOM     18  C   UNL     1       2.649  15.729  18.385  0.00  0.00    +0.000 C 
ATOM     19  C   UNL     1       2.760  14.251  17.964  0.00  0.00    +0.000 C 
ATOM     20  N   UNL     1       2.207  13.290  18.919  0.00  0.00    +0.000 NA
ATOM     21  C   UNL     1       2.725  13.542  20.265  0.00  0.00    +0.000 C 
ATOM     22  C   UNL     1       2.777  15.018  20.724  0.00  0.00    +0.000 C 
ENDBRANCH   1  20
BRANCH  13  23
ATOM     23  C   UNL     1       2.097   8.017  19.206  0.00  0.00    +0.000 A 
ATOM     24  C   UNL     1       2.223   6.851  19.981  0.00  0.00    +0.000 A 
ATOM     25  C   UNL     1       3.010   5.805  19.523  0.00  0.00    +0.000 A 
ATOM     26  N   UNL     1       3.671   5.823  18.350  0.00  0.00    +0.000 NA
ATOM     27  C   UNL     1       3.540   6.945  17.609  0.00  0.00    +0.000 A 
ATOM     28  C   UNL     1       2.787   8.048  17.989  0.00  0.00    +0.000 A 
ENDBRANCH  13  23
TORSDOF 2
ENDMDL
MODEL 6
REMARK VINA RESULT:      -6.3      9.119     11.183
REMARK  Name = 
REMARK  3 active torsions:
REMARK  status: ('A' for Active; 'I' for Inactive)
REMARK    1  A    between atoms: C_1  and  N_2
REMARK    2  A    between atoms: N_5  and  C_6
REMARK    3  A    between atoms: C_18  and  C_19
REMARK                            x       y       z     vdW  Elec       q    Type
REMARK                         _______ _______ _______ _____ _____    ______ ____
ROOT
ATOM      1  C   UNL     1      10.423  15.053  21.178  0.00  0.00    +0.000 C 
ATOM      2  C   UNL     1      11.821  14.999  20.468  0.00  0.00    +0.000 C 
ATOM      3  C   UNL     1      11.830  14.521  19.037  0.00  0.00    +0.000 A 
ATOM      4  C   UNL     1      12.304  15.336  18.001  0.00  0.00    +0.000 A 
ATOM      5  C   UNL     1      12.049  15.004  16.664  0.00  0.00    +0.000 A 
ATOM      6  C   UNL     1      11.348  13.844  16.356  0.00  0.00    +0.000 A 
ATOM      7  C   UNL     1      11.030  12.950  17.373  0.00  0.00    +0.000 A 
ATOM      8  C   UNL     1      11.324  13.264  18.701  0.00  0.00    +0.000 A 
ATOM      9  S   UNL     1      11.288  11.972  19.899  0.00  0.00    +0.000 S 
ATOM     10  C   UNL     1       9.992  12.453  21.000  0.00  0.00    +0.000 A 
ATOM     11  C   UNL     1       9.227  11.347  21.416  0.00  0.00    +0.000 A 
ATOM     12  C   UNL     1       8.230  11.456  22.378  0.00  0.00    +0.000 A 
ATOM     13  C   UNL     1       7.974  12.686  22.996  0.00  0.00    +0.000 A 
ATOM     14  C   UNL     1       8.714  13.797  22.541  0.00  0.00    +0.000 A 
ATOM     15  C   UNL     1       9.720  13.723  21.535  0.00  0.00    +0.000 A 
ENDROOT
BRANCH   1  20
ATOM     16  C   UNL     1      10.472  18.439  17.320  0.00  0.00    +0.000 C 
ATOM     17  N   UNL     1       9.666  17.996  18.460  0.00  0.00    +0.000 NA
ATOM     18  C   UNL     1      10.427  18.154  19.710  0.00  0.00    +0.000 C 
ATOM     19  C   UNL     1       9.765  17.485  20.930  0.00  0.00    +0.000 C 
ATOM     20  N   UNL     1       9.424  16.073  20.756  0.00  0.00    +0.000 NA
ATOM     21  C   UNL     1       8.672  15.872  19.515  0.00  0.00    +0.000 C 
ATOM     22  C   UNL     1       9.189  16.615  18.262  0.00  0.00    +0.000 C 
ENDBRANCH   1  20
BRANCH  13  23
ATOM     23  C   UNL     1       6.983  12.784  24.091  0.00  0.00    +0.000 A 
ATOM     24  C   UNL     1       6.285  13.982  24.327  0.00  0.00    +0.000 A 
ATOM     25  C   UNL     1       5.361  14.044  25.359  0.00  0.00    +0.000 A 
ATOM     26  N   UNL     1       5.069  13.008  26.167  0.00  0.00    +0.000 NA
ATOM     27  C   UNL     1       5.740  11.860  25.930  0.00  0.00    +0.000 A 
ATOM     28  C   UNL     1       6.691  11.704  24.932  0.00  0.00    +0.000 A 
ENDBRANCH  13  23
TORSDOF 2
ENDMDL
MODEL 7
REMARK VINA RESULT:      -6.2      3.474      5.064
REMARK  Name = 
REMARK  3 active torsions:
REMARK  status: ('A' for Active; 'I' for Inactive)
REMARK    1  A    between atoms: C_1  and  N_2
REMARK    2  A    between atoms: N_5  and  C_6
REMARK    3  A    between atoms: C_18  and  C_19
REMARK                            x       y       z     vdW  Elec       q    Type
REMARK                         _______ _______ _______ _____ _____    ______ ____
ROOT
ATOM      1  C   UNL     1      -3.357  13.950  21.610  0.00  0.00    +0.000 C 
ATOM      2  C   UNL     1      -4.654  14.826  21.736  0.00  0.00    +0.000 C 
ATOM      3  C   UNL     1      -5.912  14.108  22.155  0.00  0.00    +0.000 A 
ATOM      4  C   UNL     1      -6.602  14.467  23.320  0.00  0.00    +0.000 A 
ATOM      5  C   UNL     1      -7.590  13.627  23.847  0.00  0.00    +0.000 A 
ATOM      6  C   UNL     1      -7.916  12.441  23.197  0.00  0.00    +0.000 A 
ATOM      7  C   UNL     1      -7.356  12.171  21.952  0.00  0.00    +0.000 A 
ATOM      8  C   UNL     1      -6.402  13.033  21.409  0.00  0.00    +0.000 A 
ATOM      9  S   UNL     1      -6.022  12.896  19.694  0.00  0.00    +0.000 S 
ATOM     10  C   UNL     1      -4.317  12.427  19.676  0.00  0.00    +0.000 A 
ATOM     11  C   UNL     1      -4.051  11.478  18.672  0.00  0.00    +0.000 A 
ATOM     12  C   UNL     1      -2.760  11.049  18.383  0.00  0.00    +0.000 A 
ATOM     13  C   UNL     1      -1.665  11.583  19.072  0.00  0.00    +0.000 A 
ATOM     14  C   UNL     1      -1.946  12.501  20.107  0.00  0.00    +0.000 A 
ATOM     15  C   UNL     1      -3.259  12.935  20.448  0.00  0.00    +0.000 A 
ENDROOT
BRANCH   1  20
ATOM     16  C   UNL     1      -1.626  16.267  25.852  0.00  0.00    +0.000 C 
ATOM     17  N   UNL     1      -1.743  14.952  25.217  0.00  0.00    +0.000 NA
ATOM     18  C   UNL     1      -1.033  14.945  23.928  0.00  0.00    +0.000 C 
ATOM     19  C   UNL     1      -1.307  13.694  23.073  0.00  0.00    +0.000 C 
ATOM     20  N   UNL     1      -2.721  13.399  22.838  0.00  0.00    +0.000 NA
ATOM     21  C   UNL     1      -3.467  13.406  24.098  0.00  0.00    +0.000 C 
ATOM     22  C   UNL     1      -3.157  14.557  25.083  0.00  0.00    +0.000 C 
ENDBRANCH   1  20
BRANCH  13  23
ATOM     23  C   UNL     1      -0.285  11.204  18.698  0.00  0.00    +0.000 A 
ATOM     24  C   UNL     1       0.010   9.907  18.243  0.00  0.00    +0.000 A 
ATOM     25  C   UNL     1       1.312   9.581  17.897  0.00  0.00    +0.000 A 
ATOM     26  N   UNL     1       2.342  10.445  17.958  0.00  0.00    +0.000 NA
ATOM     27  C   UNL     1       2.050  11.691  18.391  0.00  0.00    +0.000 A 
ATOM     28  C   UNL     1       0.782  12.107  18.772  0.00  0.00    +0.000 A 
ENDBRANCH  13  23
TORSDOF 2
ENDMDL
MODEL 8
REMARK VINA RESULT:      -6.2      3.223      6.987
REMARK  Name = 
REMARK  3 active torsions:
REMARK  status: ('A' for Active; 'I' for Inactive)
REMARK    1  A    between atoms: C_1  and  N_2
REMARK    2  A    between atoms: N_5  and  C_6
REMARK    3  A    between atoms: C_18  and  C_19
REMARK                            x       y       z     vdW  Elec       q    Type
REMARK                         _______ _______ _______ _____ _____    ______ ____
ROOT
ATOM      1  C   UNL     1      -1.692  12.696  19.184  0.00  0.00    +0.000 C 
ATOM      2  C   UNL     1      -0.694  13.415  18.209  0.00  0.00    +0.000 C 
ATOM      3  C   UNL     1       0.658  13.773  18.774  0.00  0.00    +0.000 A 
ATOM      4  C   UNL     1       1.838  13.264  18.218  0.00  0.00    +0.000 A 
ATOM      5  C   UNL     1       3.051  13.368  18.909  0.00  0.00    +0.000 A 
ATOM      6  C   UNL     1       3.097  14.008  20.144  0.00  0.00    +0.000 A 
ATOM      7  C   UNL     1       1.964  14.663  20.614  0.00  0.00    +0.000 A 
ATOM      8  C   UNL     1       0.765  14.594  19.900  0.00  0.00    +0.000 A 
ATOM      9  S   UNL     1      -0.514  15.742  20.288  0.00  0.00    +0.000 S 
ATOM     10  C   UNL     1      -1.832  14.722  20.875  0.00  0.00    +0.000 A 
ATOM     11  C   UNL     1      -2.500  15.313  21.964  0.00  0.00    +0.000 A 
ATOM     12  C   UNL     1      -3.648  14.758  22.518  0.00  0.00    +0.000 A 
ATOM     13  C   UNL     1      -4.202  13.592  21.978  0.00  0.00    +0.000 A 
ATOM     14  C   UNL     1      -3.502  12.983  20.915  0.00  0.00    +0.000 A 
ATOM     15  C   UNL     1      -2.306  13.510  20.347  0.00  0.00    +0.000 A 
ENDROOT
BRANCH   1  20
ATOM     16  C   UNL     1       2.130   9.479  18.002  0.00  0.00    +0.000 C 
ATOM     17  N   UNL     1       0.885   9.565  18.770  0.00  0.00    +0.000 NA
ATOM     18  C   UNL     1      -0.242   9.877  17.876  0.00  0.00    +0.000 C 
ATOM     19  C   UNL     1      -1.545  10.234  18.616  0.00  0.00    +0.000 C 
ATOM     20  N   UNL     1      -1.420  11.297  19.614  0.00  0.00    +0.000 NA
ATOM     21  C   UNL     1      -0.301  11.028  20.520  0.00  0.00    +0.000 C 
ATOM     22  C   UNL     1       1.013  10.534  19.873  0.00  0.00    +0.000 C 
ENDBRANCH   1  20
BRANCH  13  23
ATOM     23  C   UNL     1      -5.479  13.056  22.500  0.00  0.00    +0.000 A 
ATOM     24  C   UNL     1      -5.747  13.046  23.880  0.00  0.00    +0.000 A 
ATOM     25  C   UNL     1      -6.952  12.538  24.341  0.00  0.00    +0.000 A 
ATOM     26  N   UNL     1      -7.916  12.051  23.537  0.00  0.00    +0.000 NA
ATOM     27  C   UNL     1      -7.653  12.070  22.212  0.00  0.00    +0.000 A 
ATOM     28  C   UNL     1      -6.473  12.543  21.658  0.00  0.00    +0.000 A 
ENDBRANCH  13  23
TORSDOF 2
ENDMDL
MODEL 9
REMARK VINA RESULT:      -6.1      8.800     10.776
REMARK  Name = 
REMARK  3 active torsions:
REMARK  status: ('A' for Active; 'I' for Inactive)
REMARK    1  A    between atoms: C_1  and  N_2
REMARK    2  A    between atoms: N_5  and  C_6
REMARK    3  A    between atoms: C_18  and  C_19
REMARK                            x       y       z     vdW  Elec       q    Type
REMARK                         _______ _______ _______ _____ _____    ______ ____
ROOT
ATOM      1  C   UNL     1       8.277  14.134  19.867  0.00  0.00    +0.000 C 
ATOM      2  C   UNL     1       8.175  15.130  18.659  0.00  0.00    +0.000 C 
ATOM      3  C   UNL     1       9.301  16.123  18.509  0.00  0.00    +0.000 A 
ATOM      4  C   UNL     1      10.089  16.160  17.351  0.00  0.00    +0.000 A 
ATOM      5  C   UNL     1      11.292  16.877  17.335  0.00  0.00    +0.000 A 
ATOM      6  C   UNL     1      11.697  17.585  18.462  0.00  0.00    +0.000 A 
ATOM      7  C   UNL     1      10.832  17.689  19.547  0.00  0.00    +0.000 A 
ATOM      8  C   UNL     1       9.614  17.007  19.543  0.00  0.00    +0.000 A 
ATOM      9  S   UNL     1       8.385  17.472  20.717  0.00  0.00    +0.000 S 
ATOM     10  C   UNL     1       8.181  16.024  21.710  0.00  0.00    +0.000 A 
ATOM     11  C   UNL     1       8.012  16.347  23.070  0.00  0.00    +0.000 A 
ATOM     12  C   UNL     1       7.711  15.385  24.027  0.00  0.00    +0.000 A 
ATOM     13  C   UNL     1       7.532  14.047  23.654  0.00  0.00    +0.000 A 
ATOM     14  C   UNL     1       7.748  13.726  22.298  0.00  0.00    +0.000 A 
ATOM     15  C   UNL     1       8.088  14.684  21.300  0.00  0.00    +0.000 A 
ENDROOT
BRANCH   1  20
ATOM     16  C   UNL     1      12.332  13.399  16.805  0.00  0.00    +0.000 C 
ATOM     17  N   UNL     1      11.611  12.804  17.933  0.00  0.00    +0.000 NA
ATOM     18  C   UNL     1      10.220  12.514  17.549  0.00  0.00    +0.000 C 
ATOM     19  C   UNL     1       9.315  12.122  18.734  0.00  0.00    +0.000 C 
ATOM     20  N   UNL     1       9.314  13.066  19.853  0.00  0.00    +0.000 NA
ATOM     21  C   UNL     1      10.683  13.388  20.260  0.00  0.00    +0.000 C 
ATOM     22  C   UNL     1      11.698  13.666  19.126  0.00  0.00    +0.000 C 
ENDBRANCH   1  20
BRANCH  13  23
ATOM     23  C   UNL     1       7.113  13.039  24.654  0.00  0.00    +0.000 A 
ATOM     24  C   UNL     1       6.199  12.025  24.317  0.00  0.00    +0.000 A 
ATOM     25  C   UNL     1       5.826  11.093  25.273  0.00  0.00    +0.000 A 
ATOM     26  N   UNL     1       6.297  11.083  26.533  0.00  0.00    +0.000 NA
ATOM     27  C   UNL     1       7.179  12.057  26.848  0.00  0.00    +0.000 A 
ATOM     28  C   UNL     1       7.603  13.041  25.965  0.00  0.00    +0.000 A 
ENDBRANCH  13  23
TORSDOF 2
ENDMDL
