MODEL 1
REMARK VINA RESULT:      -6.6      0.000      0.000
REMARK  Name = 
REMARK  7 active torsions:
REMARK  status: ('A' for Active; 'I' for Inactive)
REMARK    1  A    between atoms: C_2  and  C_3
REMARK    2  A    between atoms: N_5  and  C_6
REMARK    3  A    between atoms: C_8  and  C_9
REMARK    4  A    between atoms: C_8  and  C_10
REMARK    5  A    between atoms: C_10  and  O_11
REMARK    6  A    between atoms: C_12  and  O_13
REMARK    7  A    between atoms: C_14  and  O_15
REMARK                            x       y       z     vdW  Elec       q    Type
REMARK                         _______ _______ _______ _____ _____    ______ ____
ROOT
ATOM      1  C   UNL     1       5.112   4.370  15.417  0.00  0.00    +0.000 A 
ATOM      2  C   UNL     1       4.117   4.127  16.341  0.00  0.00    +0.000 A 
ATOM      3  N   UNL     1       4.432   4.810  17.491  0.00  0.00    +0.000 N 
ATOM      4  C   UNL     1       5.591   5.527  17.289  0.00  0.00    +0.000 A 
ATOM      5  N   UNL     1       6.181   6.326  18.194  0.00  0.00    +0.000 NA
ATOM      6  C   UNL     1       7.313   6.868  17.715  0.00  0.00    +0.000 A 
ATOM      7  N   UNL     1       7.889   6.668  16.514  0.00  0.00    +0.000 NA
ATOM      8  C   UNL     1       7.281   5.836  15.645  0.00  0.00    +0.000 A 
ATOM      9  N   UNL     1       7.924   5.609  14.438  0.00  0.00    +0.000 N 
ATOM     10  C   UNL     1       6.060   5.247  16.010  0.00  0.00    +0.000 A 
ATOM     11  H   UNL     1       8.621   6.316  14.244  0.00  0.00    +0.000 HD
ATOM     12  H   UNL     1       7.336   5.312  13.674  0.00  0.00    +0.000 HD
ENDROOT
BRANCH   3  13
ATOM     13  C   UNL     1       3.754   4.714  18.772  0.00  0.00    +0.000 C 
ATOM     14  O   UNL     1       3.441   3.323  19.058  0.00  0.00    +0.000 OA
ATOM     15  C   UNL     1       2.194   3.275  19.802  0.00  0.00    +0.000 C 
ATOM     16  C   UNL     1       2.459   2.475  21.082  0.00  0.00    +0.000 C 
ATOM     17  C   UNL     1       1.784   4.741  20.046  0.00  0.00    +0.000 C 
ATOM     18  C   UNL     1       2.441   5.488  18.888  0.00  0.00    +0.000 C 
BRANCH  17  19
ATOM     19  O   UNL     1       2.304   5.282  21.279  0.00  0.00    +0.000 OA
ATOM     20  H   UNL     1       2.533   6.221  21.155  0.00  0.00    +0.000 HD
ENDBRANCH  17  19
BRANCH  18  21
ATOM     21  O   UNL     1       2.604   6.871  19.194  0.00  0.00    +0.000 OA
ATOM     22  H   UNL     1       3.424   7.164  18.748  0.00  0.00    +0.000 HD
ENDBRANCH  18  21
BRANCH  15  23
ATOM     23  C   UNL     1       1.143   2.512  18.967  0.00  0.00    +0.000 C 
BRANCH  23  24
ATOM     24  O   UNL     1       1.715   1.888  17.825  0.00  0.00    +0.000 OA
ATOM     25  H   UNL     1       1.829   0.947  18.047  0.00  0.00    +0.000 HD
ENDBRANCH  23  24
ENDBRANCH  15  23
ENDBRANCH   3  13
BRANCH   1  27
ATOM     26  C   UNL     1       5.192   3.320  13.012  0.00  0.00    +0.000 C 
ATOM     27  C   UNL     1       5.149   3.793  14.114  0.00  0.00    +0.000 C 
ENDBRANCH   1  27
TORSDOF 6
ENDMDL
MODEL 2
REMARK VINA RESULT:      -6.6      3.968      6.277
REMARK  Name = 
REMARK  7 active torsions:
REMARK  status: ('A' for Active; 'I' for Inactive)
REMARK    1  A    between atoms: C_2  and  C_3
REMARK    2  A    between atoms: N_5  and  C_6
REMARK    3  A    between atoms: C_8  and  C_9
REMARK    4  A    between atoms: C_8  and  C_10
REMARK    5  A    between atoms: C_10  and  O_11
REMARK    6  A    between atoms: C_12  and  O_13
REMARK    7  A    between atoms: C_14  and  O_15
REMARK                            x       y       z     vdW  Elec       q    Type
REMARK                         _______ _______ _______ _____ _____    ______ ____
ROOT
ATOM      1  C   UNL     1       0.911   8.446  21.262  0.00  0.00    +0.000 A 
ATOM      2  C   UNL     1       1.287   7.120  21.217  0.00  0.00    +0.000 A 
ATOM      3  N   UNL     1       1.852   6.883  19.987  0.00  0.00    +0.000 N 
ATOM      4  C   UNL     1       1.887   8.058  19.270  0.00  0.00    +0.000 A 
ATOM      5  N   UNL     1       2.392   8.202  18.033  0.00  0.00    +0.000 NA
ATOM      6  C   UNL     1       2.258   9.461  17.585  0.00  0.00    +0.000 A 
ATOM      7  N   UNL     1       1.672  10.506  18.201  0.00  0.00    +0.000 NA
ATOM      8  C   UNL     1       1.152  10.314  19.429  0.00  0.00    +0.000 A 
ATOM      9  N   UNL     1       0.509  11.394  20.015  0.00  0.00    +0.000 N 
ATOM     10  C   UNL     1       1.275   9.050  20.029  0.00  0.00    +0.000 A 
ATOM     11  H   UNL     1       0.761  12.267  19.572  0.00  0.00    +0.000 HD
ATOM     12  H   UNL     1       0.454  11.380  21.023  0.00  0.00    +0.000 HD
ENDROOT
BRANCH   3  13
ATOM     13  C   UNL     1       2.240   5.592  19.444  0.00  0.00    +0.000 C 
ATOM     14  O   UNL     1       1.205   4.610  19.726  0.00  0.00    +0.000 OA
ATOM     15  C   UNL     1       1.838   3.318  19.927  0.00  0.00    +0.000 C 
ATOM     16  C   UNL     1       1.167   2.329  18.969  0.00  0.00    +0.000 C 
ATOM     17  C   UNL     1       3.342   3.533  19.663  0.00  0.00    +0.000 C 
ATOM     18  C   UNL     1       3.548   5.013  19.980  0.00  0.00    +0.000 C 
BRANCH  17  19
ATOM     19  O   UNL     1       3.718   3.315  18.286  0.00  0.00    +0.000 OA
ATOM     20  H   UNL     1       4.544   3.792  18.091  0.00  0.00    +0.000 HD
ENDBRANCH  17  19
BRANCH  18  21
ATOM     21  O   UNL     1       4.717   5.518  19.339  0.00  0.00    +0.000 OA
ATOM     22  H   UNL     1       4.556   6.467  19.167  0.00  0.00    +0.000 HD
ENDBRANCH  18  21
BRANCH  15  23
ATOM     23  C   UNL     1       1.567   2.848  21.372  0.00  0.00    +0.000 C 
BRANCH  23  24
ATOM     24  O   UNL     1       2.758   2.461  22.044  0.00  0.00    +0.000 OA
ATOM     25  H   UNL     1       3.280   1.940  21.410  0.00  0.00    +0.000 HD
ENDBRANCH  23  24
ENDBRANCH  15  23
ENDBRANCH   3  13
BRANCH   1  27
ATOM     26  C   UNL     1      -0.298   9.575  23.302  0.00  0.00    +0.000 C 
ATOM     27  C   UNL     1       0.249   9.051  22.371  0.00  0.00    +0.000 C 
ENDBRANCH   1  27
TORSDOF 6
ENDMDL
MODEL 3
REMARK VINA RESULT:      -6.6      1.417      3.557
REMARK  Name = 
REMARK  7 active torsions:
REMARK  status: ('A' for Active; 'I' for Inactive)
REMARK    1  A    between atoms: C_2  and  C_3
REMARK    2  A    between atoms: N_5  and  C_6
REMARK    3  A    between atoms: C_8  and  C_9
REMARK    4  A    between atoms: C_8  and  C_10
REMARK    5  A    between atoms: C_10  and  O_11
REMARK    6  A    between atoms: C_12  and  O_13
REMARK    7  A    between atoms: C_14  and  O_15
REMARK                            x       y       z     vdW  Elec       q    Type
REMARK                         _______ _______ _______ _____ _____    ______ ____
ROOT
ATOM      1  C   UNL     1       6.447   5.693  17.567  0.00  0.00    +0.000 A 
ATOM      2  C   UNL     1       5.457   5.201  18.391  0.00  0.00    +0.000 A 
ATOM      3  N   UNL     1       4.738   4.271  17.680  0.00  0.00    +0.000 N 
ATOM      4  C   UNL     1       5.294   4.129  16.427  0.00  0.00    +0.000 A 
ATOM      5  N   UNL     1       4.861   3.289  15.472  0.00  0.00    +0.000 NA
ATOM      6  C   UNL     1       5.589   3.397  14.349  0.00  0.00    +0.000 A 
ATOM      7  N   UNL     1       6.612   4.234  14.097  0.00  0.00    +0.000 NA
ATOM      8  C   UNL     1       6.999   5.082  15.071  0.00  0.00    +0.000 A 
ATOM      9  N   UNL     1       8.019   5.969  14.764  0.00  0.00    +0.000 N 
ATOM     10  C   UNL     1       6.347   5.030  16.314  0.00  0.00    +0.000 A 
ATOM     11  H   UNL     1       8.539   5.676  13.947  0.00  0.00    +0.000 HD
ATOM     12  H   UNL     1       8.545   6.325  15.548  0.00  0.00    +0.000 HD
ENDROOT
BRANCH   3  13
ATOM     13  C   UNL     1       3.508   3.620  18.097  0.00  0.00    +0.000 C 
ATOM     14  O   UNL     1       2.802   4.466  19.045  0.00  0.00    +0.000 OA
ATOM     15  C   UNL     1       2.108   3.615  19.996  0.00  0.00    +0.000 C 
ATOM     16  C   UNL     1       0.636   4.036  19.994  0.00  0.00    +0.000 C 
ATOM     17  C   UNL     1       2.352   2.166  19.529  0.00  0.00    +0.000 C 
ATOM     18  C   UNL     1       3.673   2.257  18.768  0.00  0.00    +0.000 C 
BRANCH  17  19
ATOM     19  O   UNL     1       1.344   1.682  18.617  0.00  0.00    +0.000 OA
ATOM     20  H   UNL     1       0.933   2.433  18.152  0.00  0.00    +0.000 HD
ENDBRANCH  17  19
BRANCH  18  21
ATOM     21  O   UNL     1       3.818   1.170  17.857  0.00  0.00    +0.000 OA
ATOM     22  H   UNL     1       4.731   0.836  17.960  0.00  0.00    +0.000 HD
ENDBRANCH  18  21
BRANCH  15  23
ATOM     23  C   UNL     1       2.681   3.871  21.407  0.00  0.00    +0.000 C 
BRANCH  23  24
ATOM     24  O   UNL     1       2.493   2.760  22.273  0.00  0.00    +0.000 OA
ATOM     25  H   UNL     1       3.271   2.725  22.856  0.00  0.00    +0.000 HD
ENDBRANCH  23  24
ENDBRANCH  15  23
ENDBRANCH   3  13
BRANCH   1  27
ATOM     26  C   UNL     1       8.142   7.578  18.252  0.00  0.00    +0.000 C 
ATOM     27  C   UNL     1       7.369   6.712  17.946  0.00  0.00    +0.000 C 
ENDBRANCH   1  27
TORSDOF 6
ENDMDL
MODEL 4
REMARK VINA RESULT:      -6.5      3.626      5.786
REMARK  Name = 
REMARK  7 active torsions:
REMARK  status: ('A' for Active; 'I' for Inactive)
REMARK    1  A    between atoms: C_2  and  C_3
REMARK    2  A    between atoms: N_5  and  C_6
REMARK    3  A    between atoms: C_8  and  C_9
REMARK    4  A    between atoms: C_8  and  C_10
REMARK    5  A    between atoms: C_10  and  O_11
REMARK    6  A    between atoms: C_12  and  O_13
REMARK    7  A    between atoms: C_14  and  O_15
REMARK                            x       y       z     vdW  Elec       q    Type
REMARK                         _______ _______ _______ _____ _____    ______ ____
ROOT
ATOM      1  C   UNL     1       3.811   6.402  17.755  0.00  0.00    +0.000 A 
ATOM      2  C   UNL     1       3.132   7.581  17.971  0.00  0.00    +0.000 A 
ATOM      3  N   UNL     1       2.324   7.410  19.069  0.00  0.00    +0.000 N 
ATOM      4  C   UNL     1       2.524   6.147  19.585  0.00  0.00    +0.000 A 
ATOM      5  N   UNL     1       1.915   5.644  20.672  0.00  0.00    +0.000 NA
ATOM      6  C   UNL     1       2.293   4.378  20.912  0.00  0.00    +0.000 A 
ATOM      7  N   UNL     1       3.134   3.610  20.193  0.00  0.00    +0.000 NA
ATOM      8  C   UNL     1       3.702   4.142  19.092  0.00  0.00    +0.000 A 
ATOM      9  N   UNL     1       4.521   3.311  18.344  0.00  0.00    +0.000 N 
ATOM     10  C   UNL     1       3.426   5.479  18.764  0.00  0.00    +0.000 A 
ATOM     11  H   UNL     1       4.818   2.500  18.872  0.00  0.00    +0.000 HD
ATOM     12  H   UNL     1       5.211   3.772  17.770  0.00  0.00    +0.000 HD
ENDROOT
BRANCH   3  13
ATOM     13  C   UNL     1       1.316   8.333  19.560  0.00  0.00    +0.000 C 
ATOM     14  O   UNL     1       0.961   9.274  18.509  0.00  0.00    +0.000 OA
ATOM     15  C   UNL     1       0.640  10.551  19.123  0.00  0.00    +0.000 C 
ATOM     16  C   UNL     1      -0.753  10.956  18.629  0.00  0.00    +0.000 C 
ATOM     17  C   UNL     1       0.730  10.328  20.646  0.00  0.00    +0.000 C 
ATOM     18  C   UNL     1       1.715   9.168  20.775  0.00  0.00    +0.000 C 
BRANCH  17  19
ATOM     19  O   UNL     1      -0.521   9.919  21.239  0.00  0.00    +0.000 OA
ATOM     20  H   UNL     1      -0.376   9.144  21.811  0.00  0.00    +0.000 HD
ENDBRANCH  17  19
BRANCH  18  21
ATOM     21  O   UNL     1       1.558   8.496  22.023  0.00  0.00    +0.000 OA
ATOM     22  H   UNL     1       2.429   8.113  22.248  0.00  0.00    +0.000 HD
ENDBRANCH  18  21
BRANCH  15  23
ATOM     23  C   UNL     1       1.652  11.609  18.633  0.00  0.00    +0.000 C 
BRANCH  23  24
ATOM     24  O   UNL     1       2.323  11.202  17.449  0.00  0.00    +0.000 OA
ATOM     25  H   UNL     1       2.673  10.310  17.618  0.00  0.00    +0.000 HD
ENDBRANCH  23  24
ENDBRANCH  15  23
ENDBRANCH   3  13
BRANCH   1  27
ATOM     26  C   UNL     1       5.463   5.998  15.753  0.00  0.00    +0.000 C 
ATOM     27  C   UNL     1       4.715   6.187  16.672  0.00  0.00    +0.000 C 
ENDBRANCH   1  27
TORSDOF 6
ENDMDL
MODEL 5
REMARK VINA RESULT:      -6.4      3.021      6.351
REMARK  Name = 
REMARK  7 active torsions:
REMARK  status: ('A' for Active; 'I' for Inactive)
REMARK    1  A    between atoms: C_2  and  C_3
REMARK    2  A    between atoms: N_5  and  C_6
REMARK    3  A    between atoms: C_8  and  C_9
REMARK    4  A    between atoms: C_8  and  C_10
REMARK    5  A    between atoms: C_10  and  O_11
REMARK    6  A    between atoms: C_12  and  O_13
REMARK    7  A    between atoms: C_14  and  O_15
REMARK                            x       y       z     vdW  Elec       q    Type
REMARK                         _______ _______ _______ _____ _____    ______ ____
ROOT
ATOM      1  C   UNL     1       2.327   5.800  19.547  0.00  0.00    +0.000 A 
ATOM      2  C   UNL     1       3.468   6.253  18.920  0.00  0.00    +0.000 A 
ATOM      3  N   UNL     1       3.971   5.224  18.161  0.00  0.00    +0.000 N 
ATOM      4  C   UNL     1       3.130   4.136  18.259  0.00  0.00    +0.000 A 
ATOM      5  N   UNL     1       3.301   2.960  17.631  0.00  0.00    +0.000 NA
ATOM      6  C   UNL     1       2.332   2.085  17.946  0.00  0.00    +0.000 A 
ATOM      7  N   UNL     1       1.304   2.252  18.799  0.00  0.00    +0.000 NA
ATOM      8  C   UNL     1       1.184   3.436  19.431  0.00  0.00    +0.000 A 
ATOM      9  N   UNL     1       0.147   3.559  20.343  0.00  0.00    +0.000 N 
ATOM     10  C   UNL     1       2.108   4.454  19.146  0.00  0.00    +0.000 A 
ATOM     11  H   UNL     1      -0.560   2.848  20.208  0.00  0.00    +0.000 HD
ATOM     12  H   UNL     1      -0.168   4.500  20.528  0.00  0.00    +0.000 HD
ENDROOT
BRANCH   3  13
ATOM     13  C   UNL     1       5.244   5.201  17.461  0.00  0.00    +0.000 C 
ATOM     14  O   UNL     1       6.282   4.706  18.351  0.00  0.00    +0.000 OA
ATOM     15  C   UNL     1       7.529   5.374  18.020  0.00  0.00    +0.000 C 
ATOM     16  C   UNL     1       8.575   4.284  17.762  0.00  0.00    +0.000 C 
ATOM     17  C   UNL     1       7.227   6.262  16.797  0.00  0.00    +0.000 C 
ATOM     18  C   UNL     1       5.732   6.546  16.928  0.00  0.00    +0.000 C 
BRANCH  17  19
ATOM     19  O   UNL     1       7.446   5.594  15.536  0.00  0.00    +0.000 OA
ATOM     20  H   UNL     1       8.310   5.856  15.171  0.00  0.00    +0.000 HD
ENDBRANCH  17  19
BRANCH  18  21
ATOM     21  O   UNL     1       5.168   6.917  15.672  0.00  0.00    +0.000 OA
ATOM     22  H   UNL     1       5.825   7.488  15.226  0.00  0.00    +0.000 HD
ENDBRANCH  18  21
BRANCH  15  23
ATOM     23  C   UNL     1       7.990   6.204  19.238  0.00  0.00    +0.000 C 
BRANCH  23  24
ATOM     24  O   UNL     1       7.976   5.446  20.440  0.00  0.00    +0.000 OA
ATOM     25  H   UNL     1       7.256   4.797  20.354  0.00  0.00    +0.000 HD
ENDBRANCH  23  24
ENDBRANCH  15  23
ENDBRANCH   3  13
BRANCH   1  27
ATOM     26  C   UNL     1       0.912   7.240  21.227  0.00  0.00    +0.000 C 
ATOM     27  C   UNL     1       1.551   6.579  20.455  0.00  0.00    +0.000 C 
ENDBRANCH   1  27
TORSDOF 6
ENDMDL
MODEL 6
REMARK VINA RESULT:      -6.4      1.406      2.875
REMARK  Name = 
REMARK  7 active torsions:
REMARK  status: ('A' for Active; 'I' for Inactive)
REMARK    1  A    between atoms: C_2  and  C_3
REMARK    2  A    between atoms: N_5  and  C_6
REMARK    3  A    between atoms: C_8  and  C_9
REMARK    4  A    between atoms: C_8  and  C_10
REMARK    5  A    between atoms: C_10  and  O_11
REMARK    6  A    between atoms: C_12  and  O_13
REMARK    7  A    between atoms: C_14  and  O_15
REMARK                            x       y       z     vdW  Elec       q    Type
REMARK                         _______ _______ _______ _____ _____    ______ ____
ROOT
ATOM      1  C   UNL     1       6.487   6.454  17.694  0.00  0.00    +0.000 A 
ATOM      2  C   UNL     1       5.582   6.341  18.728  0.00  0.00    +0.000 A 
ATOM      3  N   UNL     1       4.785   5.251  18.476  0.00  0.00    +0.000 N 
ATOM      4  C   UNL     1       5.208   4.639  17.316  0.00  0.00    +0.000 A 
ATOM      5  N   UNL     1       4.671   3.531  16.779  0.00  0.00    +0.000 NA
ATOM      6  C   UNL     1       5.280   3.190  15.632  0.00  0.00    +0.000 A 
ATOM      7  N   UNL     1       6.280   3.831  14.997  0.00  0.00    +0.000 NA
ATOM      8  C   UNL     1       6.773   4.956  15.554  0.00  0.00    +0.000 A 
ATOM      9  N   UNL     1       7.765   5.622  14.852  0.00  0.00    +0.000 N 
ATOM     10  C   UNL     1       6.253   5.388  16.785  0.00  0.00    +0.000 A 
ATOM     11  H   UNL     1       8.195   5.029  14.154  0.00  0.00    +0.000 HD
ATOM     12  H   UNL     1       8.372   6.213  15.400  0.00  0.00    +0.000 HD
ENDROOT
BRANCH   3  13
ATOM     13  C   UNL     1       3.598   4.853  19.214  0.00  0.00    +0.000 C 
ATOM     14  O   UNL     1       3.826   3.565  19.849  0.00  0.00    +0.000 OA
ATOM     15  C   UNL     1       2.569   2.837  19.880  0.00  0.00    +0.000 C 
ATOM     16  C   UNL     1       2.316   2.427  21.334  0.00  0.00    +0.000 C 
ATOM     17  C   UNL     1       1.508   3.792  19.298  0.00  0.00    +0.000 C 
ATOM     18  C   UNL     1       2.321   4.711  18.388  0.00  0.00    +0.000 C 
BRANCH  17  19
ATOM     19  O   UNL     1       0.865   4.610  20.299  0.00  0.00    +0.000 OA
ATOM     20  H   UNL     1       0.905   4.163  21.163  0.00  0.00    +0.000 HD
ENDBRANCH  17  19
BRANCH  18  21
ATOM     21  O   UNL     1       1.636   5.940  18.155  0.00  0.00    +0.000 OA
ATOM     22  H   UNL     1       1.200   6.182  18.996  0.00  0.00    +0.000 HD
ENDBRANCH  18  21
BRANCH  15  23
ATOM     23  C   UNL     1       2.716   1.552  19.036  0.00  0.00    +0.000 C 
BRANCH  23  24
ATOM     24  O   UNL     1       4.063   1.314  18.650  0.00  0.00    +0.000 OA
ATOM     25  H   UNL     1       4.458   0.758  19.343  0.00  0.00    +0.000 HD
ENDBRANCH  23  24
ENDBRANCH  15  23
ENDBRANCH   3  13
BRANCH   1  27
ATOM     26  C   UNL     1       8.258   8.384  17.511  0.00  0.00    +0.000 C 
ATOM     27  C   UNL     1       7.453   7.498  17.588  0.00  0.00    +0.000 C 
ENDBRANCH   1  27
TORSDOF 6
ENDMDL
MODEL 7
REMARK VINA RESULT:      -6.3      3.212      5.658
REMARK  Name = 
REMARK  7 active torsions:
REMARK  status: ('A' for Active; 'I' for Inactive)
REMARK    1  A    between atoms: C_2  and  C_3
REMARK    2  A    between atoms: N_5  and  C_6
REMARK    3  A    between atoms: C_8  and  C_9
REMARK    4  A    between atoms: C_8  and  C_10
REMARK    5  A    between atoms: C_10  and  O_11
REMARK    6  A    between atoms: C_12  and  O_13
REMARK    7  A    between atoms: C_14  and  O_15
REMARK                            x       y       z     vdW  Elec       q    Type
REMARK                         _______ _______ _______ _____ _____    ______ ____
ROOT
ATOM      1  C   UNL     1       2.462   4.622  20.441  0.00  0.00    +0.000 A 
ATOM      2  C   UNL     1       1.816   5.837  20.516  0.00  0.00    +0.000 A 
ATOM      3  N   UNL     1       2.462   6.713  19.677  0.00  0.00    +0.000 N 
ATOM      4  C   UNL     1       3.481   6.050  19.028  0.00  0.00    +0.000 A 
ATOM      5  N   UNL     1       4.308   6.592  18.118  0.00  0.00    +0.000 NA
ATOM      6  C   UNL     1       5.218   5.704  17.684  0.00  0.00    +0.000 A 
ATOM      7  N   UNL     1       5.390   4.428  18.077  0.00  0.00    +0.000 NA
ATOM      8  C   UNL     1       4.558   3.930  19.014  0.00  0.00    +0.000 A 
ATOM      9  N   UNL     1       4.793   2.631  19.436  0.00  0.00    +0.000 N 
ATOM     10  C   UNL     1       3.529   4.746  19.510  0.00  0.00    +0.000 A 
ATOM     11  H   UNL     1       5.377   2.123  18.785  0.00  0.00    +0.000 HD
ATOM     12  H   UNL     1       4.001   2.145  19.830  0.00  0.00    +0.000 HD
ENDROOT
BRANCH   3  13
ATOM     13  C   UNL     1       2.225   8.142  19.561  0.00  0.00    +0.000 C 
ATOM     14  O   UNL     1       1.566   8.627  20.763  0.00  0.00    +0.000 OA
ATOM     15  C   UNL     1       0.673   9.712  20.393  0.00  0.00    +0.000 C 
ATOM     16  C   UNL     1       1.036  10.918  21.265  0.00  0.00    +0.000 C 
ATOM     17  C   UNL     1       0.879   9.939  18.882  0.00  0.00    +0.000 C 
ATOM     18  C   UNL     1       1.356   8.577  18.382  0.00  0.00    +0.000 C 
BRANCH  17  19
ATOM     19  O   UNL     1       1.907  10.908  18.585  0.00  0.00    +0.000 OA
ATOM     20  H   UNL     1       2.455  11.060  19.375  0.00  0.00    +0.000 HD
ENDBRANCH  17  19
BRANCH  18  21
ATOM     21  O   UNL     1       2.062   8.700  17.150  0.00  0.00    +0.000 OA
ATOM     22  H   UNL     1       2.205   9.656  17.002  0.00  0.00    +0.000 HD
ENDBRANCH  18  21
BRANCH  15  23
ATOM     23  C   UNL     1      -0.778   9.299  20.723  0.00  0.00    +0.000 C 
BRANCH  23  24
ATOM     24  O   UNL     1      -0.832   8.226  21.653  0.00  0.00    +0.000 OA
ATOM     25  H   UNL     1      -0.440   7.453  21.213  0.00  0.00    +0.000 HD
ENDBRANCH  23  24
ENDBRANCH  15  23
ENDBRANCH   3  13
BRANCH   1  27
ATOM     26  C   UNL     1       1.794   2.521  21.867  0.00  0.00    +0.000 C 
ATOM     27  C   UNL     1       2.100   3.476  21.208  0.00  0.00    +0.000 C 
ENDBRANCH   1  27
TORSDOF 6
ENDMDL
MODEL 8
REMARK VINA RESULT:      -6.3      1.224      2.232
REMARK  Name = 
REMARK  7 active torsions:
REMARK  status: ('A' for Active; 'I' for Inactive)
REMARK    1  A    between atoms: C_2  and  C_3
REMARK    2  A    between atoms: N_5  and  C_6
REMARK    3  A    between atoms: C_8  and  C_9
REMARK    4  A    between atoms: C_8  and  C_10
REMARK    5  A    between atoms: C_10  and  O_11
REMARK    6  A    between atoms: C_12  and  O_13
REMARK    7  A    between atoms: C_14  and  O_15
REMARK                            x       y       z     vdW  Elec       q    Type
REMARK                         _______ _______ _______ _____ _____    ______ ____
ROOT
ATOM      1  C   UNL     1       5.363   3.955  14.985  0.00  0.00    +0.000 A 
ATOM      2  C   UNL     1       4.361   3.364  15.725  0.00  0.00    +0.000 A 
ATOM      3  N   UNL     1       4.409   3.886  16.995  0.00  0.00    +0.000 N 
ATOM      4  C   UNL     1       5.399   4.842  17.054  0.00  0.00    +0.000 A 
ATOM      5  N   UNL     1       5.713   5.573  18.137  0.00  0.00    +0.000 NA
ATOM      6  C   UNL     1       6.741   6.403  17.895  0.00  0.00    +0.000 A 
ATOM      7  N   UNL     1       7.458   6.532  16.763  0.00  0.00    +0.000 NA
ATOM      8  C   UNL     1       7.131   5.759  15.708  0.00  0.00    +0.000 A 
ATOM      9  N   UNL     1       7.921   5.876  14.575  0.00  0.00    +0.000 N 
ATOM     10  C   UNL     1       6.037   4.886  15.819  0.00  0.00    +0.000 A 
ATOM     11  H   UNL     1       8.464   6.730  14.581  0.00  0.00    +0.000 HD
ATOM     12  H   UNL     1       7.487   5.606  13.705  0.00  0.00    +0.000 HD
ENDROOT
BRANCH   3  13
ATOM     13  C   UNL     1       3.648   3.438  18.148  0.00  0.00    +0.000 C 
ATOM     14  O   UNL     1       2.480   4.287  18.324  0.00  0.00    +0.000 OA
ATOM     15  C   UNL     1       2.200   4.396  19.746  0.00  0.00    +0.000 C 
ATOM     16  C   UNL     1       0.738   3.986  19.954  0.00  0.00    +0.000 C 
ATOM     17  C   UNL     1       3.220   3.483  20.454  0.00  0.00    +0.000 C 
ATOM     18  C   UNL     1       4.396   3.445  19.480  0.00  0.00    +0.000 C 
BRANCH  17  19
ATOM     19  O   UNL     1       2.747   2.131  20.636  0.00  0.00    +0.000 OA
ATOM     20  H   UNL     1       2.514   1.745  19.773  0.00  0.00    +0.000 HD
ENDBRANCH  17  19
BRANCH  18  21
ATOM     21  O   UNL     1       5.208   2.294  19.700  0.00  0.00    +0.000 OA
ATOM     22  H   UNL     1       4.679   1.519  19.424  0.00  0.00    +0.000 HD
ENDBRANCH  18  21
BRANCH  15  23
ATOM     23  C   UNL     1       2.351   5.872  20.173  0.00  0.00    +0.000 C 
BRANCH  23  24
ATOM     24  O   UNL     1       2.957   6.664  19.160  0.00  0.00    +0.000 OA
ATOM     25  H   UNL     1       3.424   6.051  18.567  0.00  0.00    +0.000 HD
ENDBRANCH  23  24
ENDBRANCH  15  23
ENDBRANCH   3  13
BRANCH   1  27
ATOM     26  C   UNL     1       5.905   3.354  12.486  0.00  0.00    +0.000 C 
ATOM     27  C   UNL     1       5.649   3.631  13.626  0.00  0.00    +0.000 C 
ENDBRANCH   1  27
TORSDOF 6
ENDMDL
MODEL 9
REMARK VINA RESULT:      -6.2      1.328      1.512
REMARK  Name = 
REMARK  7 active torsions:
REMARK  status: ('A' for Active; 'I' for Inactive)
REMARK    1  A    between atoms: C_2  and  C_3
REMARK    2  A    between atoms: N_5  and  C_6
REMARK    3  A    between atoms: C_8  and  C_9
REMARK    4  A    between atoms: C_8  and  C_10
REMARK    5  A    between atoms: C_10  and  O_11
REMARK    6  A    between atoms: C_12  and  O_13
REMARK    7  A    between atoms: C_14  and  O_15
REMARK                            x       y       z     vdW  Elec       q    Type
REMARK                         _______ _______ _______ _____ _____    ______ ____
ROOT
ATOM      1  C   UNL     1       5.278   4.204  14.914  0.00  0.00    +0.000 A 
ATOM      2  C   UNL     1       4.160   3.825  15.626  0.00  0.00    +0.000 A 
ATOM      3  N   UNL     1       4.216   4.434  16.857  0.00  0.00    +0.000 N 
ATOM      4  C   UNL     1       5.333   5.238  16.914  0.00  0.00    +0.000 A 
ATOM      5  N   UNL     1       5.693   5.999  17.962  0.00  0.00    +0.000 NA
ATOM      6  C   UNL     1       6.845   6.649  17.730  0.00  0.00    +0.000 A 
ATOM      7  N   UNL     1       7.635   6.582  16.641  0.00  0.00    +0.000 NA
ATOM      8  C   UNL     1       7.254   5.785  15.624  0.00  0.00    +0.000 A 
ATOM      9  N   UNL     1       8.113   5.696  14.540  0.00  0.00    +0.000 N 
ATOM     10  C   UNL     1       6.037   5.090  15.724  0.00  0.00    +0.000 A 
ATOM     11  H   UNL     1       8.776   6.460  14.521  0.00  0.00    +0.000 HD
ATOM     12  H   UNL     1       7.692   5.423  13.664  0.00  0.00    +0.000 HD
ENDROOT
BRANCH   3  13
ATOM     13  C   UNL     1       3.334   4.193  17.986  0.00  0.00    +0.000 C 
ATOM     14  O   UNL     1       4.009   3.354  18.964  0.00  0.00    +0.000 OA
ATOM     15  C   UNL     1       3.018   2.509  19.608  0.00  0.00    +0.000 C 
ATOM     16  C   UNL     1       3.155   2.718  21.120  0.00  0.00    +0.000 C 
ATOM     17  C   UNL     1       1.653   2.935  19.032  0.00  0.00    +0.000 C 
ATOM     18  C   UNL     1       2.010   3.503  17.660  0.00  0.00    +0.000 C 
BRANCH  17  19
ATOM     19  O   UNL     1       1.011   3.979  19.794  0.00  0.00    +0.000 OA
ATOM     20  H   UNL     1       0.573   3.595  20.575  0.00  0.00    +0.000 HD
ENDBRANCH  17  19
BRANCH  18  21
ATOM     21  O   UNL     1       0.994   4.384  17.188  0.00  0.00    +0.000 OA
ATOM     22  H   UNL     1       1.382   4.890  16.446  0.00  0.00    +0.000 HD
ENDBRANCH  18  21
BRANCH  15  23
ATOM     23  C   UNL     1       3.342   1.032  19.295  0.00  0.00    +0.000 C 
BRANCH  23  24
ATOM     24  O   UNL     1       4.290   0.902  18.243  0.00  0.00    +0.000 OA
ATOM     25  H   UNL     1       4.834   1.708  18.255  0.00  0.00    +0.000 HD
ENDBRANCH  23  24
ENDBRANCH  15  23
ENDBRANCH   3  13
BRANCH   1  27
ATOM     26  C   UNL     1       5.831   3.347  12.494  0.00  0.00    +0.000 C 
ATOM     27  C   UNL     1       5.586   3.736  13.603  0.00  0.00    +0.000 C 
ENDBRANCH   1  27
TORSDOF 6
ENDMDL
