MODEL 1
REMARK VINA RESULT:      -8.4      0.000      0.000
REMARK  Name = 
REMARK  4 active torsions:
REMARK  status: ('A' for Active; 'I' for Inactive)
REMARK    1  A    between atoms: C_2  and  O_3
REMARK    2  A    between atoms: C_2  and  C_14
REMARK    3  A    between atoms: O_3  and  C_4
REMARK    4  A    between atoms: C_17  and  C_18
REMARK                            x       y       z     vdW  Elec       q    Type
REMARK                         _______ _______ _______ _____ _____    ______ ____
ROOT
ATOM      1  O   UNL     1       7.662   5.916  20.268  0.00  0.00    +0.000 OA
ATOM      2  C   UNL     1       6.932   5.418  19.416  0.00  0.00    +0.000 C 
ENDROOT
BRANCH   2   3
ATOM      3  C   UNL     1       7.145   5.592  17.978  0.00  0.00    +0.000 A 
ATOM      4  C   UNL     1       7.442   6.786  17.358  0.00  0.00    +0.000 A 
ATOM      5  O   UNL     1       7.439   6.587  16.011  0.00  0.00    +0.000 OA
ATOM      6  C   UNL     1       7.125   5.258  15.857  0.00  0.00    +0.000 A 
ATOM      7  N   UNL     1       6.982   4.613  17.004  0.00  0.00    +0.000 NA
BRANCH   6   8
ATOM      8  C   UNL     1       6.921   4.793  14.481  0.00  0.00    +0.000 A 
ATOM      9  C   UNL     1       5.921   3.860  14.158  0.00  0.00    +0.000 A 
ATOM     10  C   UNL     1       5.774   3.380  12.851  0.00  0.00    +0.000 A 
ATOM     11  C   UNL     1       6.625   3.829  11.846  0.00  0.00    +0.000 A 
ATOM     12  C   UNL     1       7.621   4.758  12.144  0.00  0.00    +0.000 A 
ATOM     13  C   UNL     1       7.766   5.238  13.452  0.00  0.00    +0.000 A 
ENDBRANCH   6   8
ENDBRANCH   2   3
BRANCH   2  14
ATOM     14  O   UNL     1       5.775   4.666  19.703  0.00  0.00    +0.000 OA
BRANCH  14  15
ATOM     15  C   UNL     1       4.481   5.125  19.330  0.00  0.00    +0.000 A 
ATOM     16  C   UNL     1       4.288   6.470  18.996  0.00  0.00    +0.000 A 
ATOM     17  C   UNL     1       3.084   6.878  18.426  0.00  0.00    +0.000 A 
ATOM     18  C   UNL     1       2.097   5.940  18.135  0.00  0.00    +0.000 A 
ATOM     19  C   UNL     1       2.286   4.585  18.441  0.00  0.00    +0.000 A 
ATOM     20  C   UNL     1       3.465   4.171  19.104  0.00  0.00    +0.000 A 
ATOM     21  C   UNL     1       3.643   2.728  19.523  0.00  0.00    +0.000 C 
ATOM     22  C   UNL     1       2.373   1.877  19.389  0.00  0.00    +0.000 C 
ATOM     23  C   UNL     1       1.684   2.159  18.064  0.00  0.00    +0.000 C 
ATOM     24  C   UNL     1       1.202   3.607  18.048  0.00  0.00    +0.000 C 
ENDBRANCH  14  15
ENDBRANCH   2  14
TORSDOF 4
ENDMDL
MODEL 2
REMARK VINA RESULT:      -8.4      2.926      5.385
REMARK  Name = 
REMARK  4 active torsions:
REMARK  status: ('A' for Active; 'I' for Inactive)
REMARK    1  A    between atoms: C_2  and  O_3
REMARK    2  A    between atoms: C_2  and  C_14
REMARK    3  A    between atoms: O_3  and  C_4
REMARK    4  A    between atoms: C_17  and  C_18
REMARK                            x       y       z     vdW  Elec       q    Type
REMARK                         _______ _______ _______ _____ _____    ______ ____
ROOT
ATOM      1  O   UNL     1       5.256   6.072  15.884  0.00  0.00    +0.000 OA
ATOM      2  C   UNL     1       5.805   5.840  16.957  0.00  0.00    +0.000 C 
ENDROOT
BRANCH   2   3
ATOM      3  C   UNL     1       6.864   6.683  17.513  0.00  0.00    +0.000 A 
ATOM      4  C   UNL     1       7.736   6.309  18.512  0.00  0.00    +0.000 A 
ATOM      5  O   UNL     1       8.489   7.389  18.858  0.00  0.00    +0.000 OA
ATOM      6  C   UNL     1       8.033   8.403  18.050  0.00  0.00    +0.000 A 
ATOM      7  N   UNL     1       7.093   8.019  17.201  0.00  0.00    +0.000 NA
BRANCH   6   8
ATOM      8  C   UNL     1       8.588   9.736  18.304  0.00  0.00    +0.000 A 
ATOM      9  C   UNL     1       9.445   9.983  19.391  0.00  0.00    +0.000 A 
ATOM     10  C   UNL     1       9.923  11.271  19.658  0.00  0.00    +0.000 A 
ATOM     11  C   UNL     1       9.551  12.334  18.840  0.00  0.00    +0.000 A 
ATOM     12  C   UNL     1       8.706  12.110  17.754  0.00  0.00    +0.000 A 
ATOM     13  C   UNL     1       8.230  10.820  17.488  0.00  0.00    +0.000 A 
ENDBRANCH   6   8
ENDBRANCH   2   3
BRANCH   2  14
ATOM     14  O   UNL     1       5.530   4.717  17.763  0.00  0.00    +0.000 OA
BRANCH  14  15
ATOM     15  C   UNL     1       4.235   4.128  17.797  0.00  0.00    +0.000 A 
ATOM     16  C   UNL     1       4.004   2.914  17.140  0.00  0.00    +0.000 A 
ATOM     17  C   UNL     1       2.809   2.228  17.348  0.00  0.00    +0.000 A 
ATOM     18  C   UNL     1       1.871   2.719  18.253  0.00  0.00    +0.000 A 
ATOM     19  C   UNL     1       2.100   3.922  18.937  0.00  0.00    +0.000 A 
ATOM     20  C   UNL     1       3.266   4.674  18.667  0.00  0.00    +0.000 A 
ATOM     21  C   UNL     1       3.483   6.018  19.329  0.00  0.00    +0.000 C 
ATOM     22  C   UNL     1       2.253   6.552  20.076  0.00  0.00    +0.000 C 
ATOM     23  C   UNL     1       1.608   5.445  20.894  0.00  0.00    +0.000 C 
ATOM     24  C   UNL     1       1.072   4.372  19.950  0.00  0.00    +0.000 C 
ENDBRANCH  14  15
ENDBRANCH   2  14
TORSDOF 4
ENDMDL
MODEL 3
REMARK VINA RESULT:      -8.4      3.016      5.244
REMARK  Name = 
REMARK  4 active torsions:
REMARK  status: ('A' for Active; 'I' for Inactive)
REMARK    1  A    between atoms: C_2  and  O_3
REMARK    2  A    between atoms: C_2  and  C_14
REMARK    3  A    between atoms: O_3  and  C_4
REMARK    4  A    between atoms: C_17  and  C_18
REMARK                            x       y       z     vdW  Elec       q    Type
REMARK                         _______ _______ _______ _____ _____    ______ ____
ROOT
ATOM      1  O   UNL     1       5.366   6.738  15.558  0.00  0.00    +0.000 OA
ATOM      2  C   UNL     1       5.804   6.437  16.664  0.00  0.00    +0.000 C 
ENDROOT
BRANCH   2   3
ATOM      3  C   UNL     1       6.896   7.162  17.316  0.00  0.00    +0.000 A 
ATOM      4  C   UNL     1       7.763   6.626  18.244  0.00  0.00    +0.000 A 
ATOM      5  O   UNL     1       8.555   7.624  18.724  0.00  0.00    +0.000 OA
ATOM      6  C   UNL     1       8.127   8.752  18.067  0.00  0.00    +0.000 A 
ATOM      7  N   UNL     1       7.168   8.520  17.186  0.00  0.00    +0.000 NA
BRANCH   6   8
ATOM      8  C   UNL     1       8.730  10.020  18.494  0.00  0.00    +0.000 A 
ATOM      9  C   UNL     1       8.686  11.167  17.683  0.00  0.00    +0.000 A 
ATOM     10  C   UNL     1       9.314  12.355  18.075  0.00  0.00    +0.000 A 
ATOM     11  C   UNL     1       9.996  12.414  19.287  0.00  0.00    +0.000 A 
ATOM     12  C   UNL     1      10.047  11.288  20.108  0.00  0.00    +0.000 A 
ATOM     13  C   UNL     1       9.417  10.101  19.715  0.00  0.00    +0.000 A 
ENDBRANCH   6   8
ENDBRANCH   2   3
BRANCH   2  14
ATOM     14  O   UNL     1       5.357   5.337  17.422  0.00  0.00    +0.000 OA
BRANCH  14  15
ATOM     15  C   UNL     1       4.216   5.433  18.268  0.00  0.00    +0.000 A 
ATOM     16  C   UNL     1       3.744   6.691  18.661  0.00  0.00    +0.000 A 
ATOM     17  C   UNL     1       2.513   6.801  19.303  0.00  0.00    +0.000 A 
ATOM     18  C   UNL     1       1.726   5.669  19.501  0.00  0.00    +0.000 A 
ATOM     19  C   UNL     1       2.175   4.406  19.090  0.00  0.00    +0.000 A 
ATOM     20  C   UNL     1       3.462   4.267  18.521  0.00  0.00    +0.000 A 
ATOM     21  C   UNL     1       3.997   2.899  18.157  0.00  0.00    +0.000 C 
ATOM     22  C   UNL     1       3.145   1.735  18.682  0.00  0.00    +0.000 C 
ATOM     23  C   UNL     1       1.668   2.013  18.451  0.00  0.00    +0.000 C 
ATOM     24  C   UNL     1       1.251   3.224  19.280  0.00  0.00    +0.000 C 
ENDBRANCH  14  15
ENDBRANCH   2  14
TORSDOF 4
ENDMDL
MODEL 4
REMARK VINA RESULT:      -8.3      3.278      5.608
REMARK  Name = 
REMARK  4 active torsions:
REMARK  status: ('A' for Active; 'I' for Inactive)
REMARK    1  A    between atoms: C_2  and  O_3
REMARK    2  A    between atoms: C_2  and  C_14
REMARK    3  A    between atoms: O_3  and  C_4
REMARK    4  A    between atoms: C_17  and  C_18
REMARK                            x       y       z     vdW  Elec       q    Type
REMARK                         _______ _______ _______ _____ _____    ______ ____
ROOT
ATOM      1  O   UNL     1       5.568   6.644  15.598  0.00  0.00    +0.000 OA
ATOM      2  C   UNL     1       5.664   6.818  16.809  0.00  0.00    +0.000 C 
ENDROOT
BRANCH   2   3
ATOM      3  C   UNL     1       6.851   7.394  17.443  0.00  0.00    +0.000 A 
ATOM      4  C   UNL     1       7.681   6.733  18.323  0.00  0.00    +0.000 A 
ATOM      5  O   UNL     1       8.596   7.619  18.804  0.00  0.00    +0.000 OA
ATOM      6  C   UNL     1       8.278   8.810  18.197  0.00  0.00    +0.000 A 
ATOM      7  N   UNL     1       7.271   8.716  17.344  0.00  0.00    +0.000 NA
BRANCH   6   8
ATOM      8  C   UNL     1       9.034   9.987  18.639  0.00  0.00    +0.000 A 
ATOM      9  C   UNL     1       9.263  10.246  20.002  0.00  0.00    +0.000 A 
ATOM     10  C   UNL     1       9.936  11.402  20.415  0.00  0.00    +0.000 A 
ATOM     11  C   UNL     1      10.390  12.317  19.471  0.00  0.00    +0.000 A 
ATOM     12  C   UNL     1      10.177  12.077  18.114  0.00  0.00    +0.000 A 
ATOM     13  C   UNL     1       9.505  10.920  17.702  0.00  0.00    +0.000 A 
ENDBRANCH   6   8
ENDBRANCH   2   3
BRANCH   2  14
ATOM     14  O   UNL     1       4.679   6.446  17.745  0.00  0.00    +0.000 OA
BRANCH  14  15
ATOM     15  C   UNL     1       4.083   5.153  17.720  0.00  0.00    +0.000 A 
ATOM     16  C   UNL     1       4.530   4.198  16.800  0.00  0.00    +0.000 A 
ATOM     17  C   UNL     1       4.107   2.875  16.911  0.00  0.00    +0.000 A 
ATOM     18  C   UNL     1       3.287   2.492  17.971  0.00  0.00    +0.000 A 
ATOM     19  C   UNL     1       2.852   3.433  18.914  0.00  0.00    +0.000 A 
ATOM     20  C   UNL     1       3.198   4.796  18.760  0.00  0.00    +0.000 A 
ATOM     21  C   UNL     1       2.660   5.837  19.718  0.00  0.00    +0.000 C 
ATOM     22  C   UNL     1       1.561   5.317  20.654  0.00  0.00    +0.000 C 
ATOM     23  C   UNL     1       1.944   3.956  21.214  0.00  0.00    +0.000 C 
ATOM     24  C   UNL     1       2.013   2.946  20.073  0.00  0.00    +0.000 C 
ENDBRANCH  14  15
ENDBRANCH   2  14
TORSDOF 4
ENDMDL
MODEL 5
REMARK VINA RESULT:      -8.3      3.025      5.439
REMARK  Name = 
REMARK  4 active torsions:
REMARK  status: ('A' for Active; 'I' for Inactive)
REMARK    1  A    between atoms: C_2  and  O_3
REMARK    2  A    between atoms: C_2  and  C_14
REMARK    3  A    between atoms: O_3  and  C_4
REMARK    4  A    between atoms: C_17  and  C_18
REMARK                            x       y       z     vdW  Elec       q    Type
REMARK                         _______ _______ _______ _____ _____    ______ ____
ROOT
ATOM      1  O   UNL     1       5.069   6.386  15.919  0.00  0.00    +0.000 OA
ATOM      2  C   UNL     1       5.690   6.090  16.935  0.00  0.00    +0.000 C 
ENDROOT
BRANCH   2   3
ATOM      3  C   UNL     1       6.789   6.899  17.465  0.00  0.00    +0.000 A 
ATOM      4  C   UNL     1       7.721   6.469  18.384  0.00  0.00    +0.000 A 
ATOM      5  O   UNL     1       8.502   7.527  18.737  0.00  0.00    +0.000 OA
ATOM      6  C   UNL     1       8.002   8.584  18.015  0.00  0.00    +0.000 A 
ATOM      7  N   UNL     1       7.007   8.250  17.210  0.00  0.00    +0.000 NA
BRANCH   6   8
ATOM      8  C   UNL     1       8.582   9.900  18.304  0.00  0.00    +0.000 A 
ATOM      9  C   UNL     1       8.285  11.025  17.515  0.00  0.00    +0.000 A 
ATOM     10  C   UNL     1       8.889  12.263  17.764  0.00  0.00    +0.000 A 
ATOM     11  C   UNL     1       9.799  12.395  18.809  0.00  0.00    +0.000 A 
ATOM     12  C   UNL     1      10.103  11.292  19.607  0.00  0.00    +0.000 A 
ATOM     13  C   UNL     1       9.497  10.055  19.356  0.00  0.00    +0.000 A 
ENDBRANCH   6   8
ENDBRANCH   2   3
BRANCH   2  14
ATOM     14  O   UNL     1       5.468   4.921  17.689  0.00  0.00    +0.000 OA
BRANCH  14  15
ATOM     15  C   UNL     1       4.197   4.280  17.707  0.00  0.00    +0.000 A 
ATOM     16  C   UNL     1       4.001   3.102  16.977  0.00  0.00    +0.000 A 
ATOM     17  C   UNL     1       2.838   2.358  17.160  0.00  0.00    +0.000 A 
ATOM     18  C   UNL     1       1.899   2.753  18.110  0.00  0.00    +0.000 A 
ATOM     19  C   UNL     1       2.094   3.917  18.867  0.00  0.00    +0.000 A 
ATOM     20  C   UNL     1       3.225   4.731  18.626  0.00  0.00    +0.000 A 
ATOM     21  C   UNL     1       3.402   6.038  19.369  0.00  0.00    +0.000 C 
ATOM     22  C   UNL     1       2.167   6.474  20.169  0.00  0.00    +0.000 C 
ATOM     23  C   UNL     1       1.581   5.292  20.925  0.00  0.00    +0.000 C 
ATOM     24  C   UNL     1       1.069   4.261  19.923  0.00  0.00    +0.000 C 
ENDBRANCH  14  15
ENDBRANCH   2  14
TORSDOF 4
ENDMDL
MODEL 6
REMARK VINA RESULT:      -8.2      2.573      6.803
REMARK  Name = 
REMARK  4 active torsions:
REMARK  status: ('A' for Active; 'I' for Inactive)
REMARK    1  A    between atoms: C_2  and  O_3
REMARK    2  A    between atoms: C_2  and  C_14
REMARK    3  A    between atoms: O_3  and  C_4
REMARK    4  A    between atoms: C_17  and  C_18
REMARK                            x       y       z     vdW  Elec       q    Type
REMARK                         _______ _______ _______ _____ _____    ______ ____
ROOT
ATOM      1  O   UNL     1       2.968   2.322  18.978  0.00  0.00    +0.000 OA
ATOM      2  C   UNL     1       3.594   3.352  19.210  0.00  0.00    +0.000 C 
ENDROOT
BRANCH   2   3
ATOM      3  C   UNL     1       2.963   4.575  19.708  0.00  0.00    +0.000 A 
ATOM      4  C   UNL     1       2.050   4.637  20.738  0.00  0.00    +0.000 A 
ATOM      5  O   UNL     1       1.586   5.913  20.832  0.00  0.00    +0.000 OA
ATOM      6  C   UNL     1       2.237   6.593  19.830  0.00  0.00    +0.000 A 
ATOM      7  N   UNL     1       3.100   5.847  19.160  0.00  0.00    +0.000 NA
BRANCH   6   8
ATOM      8  C   UNL     1       1.823   7.983  19.614  0.00  0.00    +0.000 A 
ATOM      9  C   UNL     1       1.180   8.726  20.619  0.00  0.00    +0.000 A 
ATOM     10  C   UNL     1       0.738  10.033  20.383  0.00  0.00    +0.000 A 
ATOM     11  C   UNL     1       0.934  10.618  19.135  0.00  0.00    +0.000 A 
ATOM     12  C   UNL     1       1.574   9.900  18.126  0.00  0.00    +0.000 A 
ATOM     13  C   UNL     1       2.016   8.593  18.365  0.00  0.00    +0.000 A 
ENDBRANCH   6   8
ENDBRANCH   2   3
BRANCH   2  14
ATOM     14  O   UNL     1       4.975   3.511  18.982  0.00  0.00    +0.000 OA
BRANCH  14  15
ATOM     15  C   UNL     1       5.468   4.050  17.761  0.00  0.00    +0.000 A 
ATOM     16  C   UNL     1       4.895   3.660  16.545  0.00  0.00    +0.000 A 
ATOM     17  C   UNL     1       5.222   4.339  15.374  0.00  0.00    +0.000 A 
ATOM     18  C   UNL     1       6.072   5.442  15.421  0.00  0.00    +0.000 A 
ATOM     19  C   UNL     1       6.633   5.860  16.636  0.00  0.00    +0.000 A 
ATOM     20  C   UNL     1       6.383   5.124  17.817  0.00  0.00    +0.000 A 
ATOM     21  C   UNL     1       7.055   5.508  19.117  0.00  0.00    +0.000 C 
ATOM     22  C   UNL     1       8.165   6.557  18.962  0.00  0.00    +0.000 C 
ATOM     23  C   UNL     1       7.714   7.670  18.030  0.00  0.00    +0.000 C 
ATOM     24  C   UNL     1       7.500   7.099  16.632  0.00  0.00    +0.000 C 
ENDBRANCH  14  15
ENDBRANCH   2  14
TORSDOF 4
ENDMDL
MODEL 7
REMARK VINA RESULT:      -8.2      2.615      4.765
REMARK  Name = 
REMARK  4 active torsions:
REMARK  status: ('A' for Active; 'I' for Inactive)
REMARK    1  A    between atoms: C_2  and  O_3
REMARK    2  A    between atoms: C_2  and  C_14
REMARK    3  A    between atoms: O_3  and  C_4
REMARK    4  A    between atoms: C_17  and  C_18
REMARK                            x       y       z     vdW  Elec       q    Type
REMARK                         _______ _______ _______ _____ _____    ______ ____
ROOT
ATOM      1  O   UNL     1       6.236   4.062  16.245  0.00  0.00    +0.000 OA
ATOM      2  C   UNL     1       5.904   5.162  16.677  0.00  0.00    +0.000 C 
ENDROOT
BRANCH   2   3
ATOM      3  C   UNL     1       6.841   6.085  17.320  0.00  0.00    +0.000 A 
ATOM      4  C   UNL     1       7.598   5.801  18.436  0.00  0.00    +0.000 A 
ATOM      5  O   UNL     1       8.246   6.935  18.820  0.00  0.00    +0.000 OA
ATOM      6  C   UNL     1       7.846   7.887  17.915  0.00  0.00    +0.000 A 
ATOM      7  N   UNL     1       7.041   7.418  16.975  0.00  0.00    +0.000 NA
BRANCH   6   8
ATOM      8  C   UNL     1       8.297   9.259  18.173  0.00  0.00    +0.000 A 
ATOM      9  C   UNL     1       7.840  10.342  17.402  0.00  0.00    +0.000 A 
ATOM     10  C   UNL     1       8.321  11.639  17.620  0.00  0.00    +0.000 A 
ATOM     11  C   UNL     1       9.267  11.872  18.614  0.00  0.00    +0.000 A 
ATOM     12  C   UNL     1       9.730  10.811  19.392  0.00  0.00    +0.000 A 
ATOM     13  C   UNL     1       9.247   9.516  19.174  0.00  0.00    +0.000 A 
ENDBRANCH   6   8
ENDBRANCH   2   3
BRANCH   2  14
ATOM     14  O   UNL     1       4.585   5.655  16.663  0.00  0.00    +0.000 OA
BRANCH  14  15
ATOM     15  C   UNL     1       3.792   5.689  17.845  0.00  0.00    +0.000 A 
ATOM     16  C   UNL     1       3.564   6.907  18.496  0.00  0.00    +0.000 A 
ATOM     17  C   UNL     1       2.621   6.981  19.518  0.00  0.00    +0.000 A 
ATOM     18  C   UNL     1       1.865   5.859  19.853  0.00  0.00    +0.000 A 
ATOM     19  C   UNL     1       2.066   4.639  19.193  0.00  0.00    +0.000 A 
ATOM     20  C   UNL     1       3.083   4.526  18.217  0.00  0.00    +0.000 A 
ATOM     21  C   UNL     1       3.374   3.193  17.562  0.00  0.00    +0.000 C 
ATOM     22  C   UNL     1       2.662   2.004  18.221  0.00  0.00    +0.000 C 
ATOM     23  C   UNL     1       1.214   2.356  18.523  0.00  0.00    +0.000 C 
ATOM     24  C   UNL     1       1.175   3.474  19.560  0.00  0.00    +0.000 C 
ENDBRANCH  14  15
ENDBRANCH   2  14
TORSDOF 4
ENDMDL
MODEL 8
REMARK VINA RESULT:      -8.2      0.854      1.091
REMARK  Name = 
REMARK  4 active torsions:
REMARK  status: ('A' for Active; 'I' for Inactive)
REMARK    1  A    between atoms: C_2  and  O_3
REMARK    2  A    between atoms: C_2  and  C_14
REMARK    3  A    between atoms: O_3  and  C_4
REMARK    4  A    between atoms: C_17  and  C_18
REMARK                            x       y       z     vdW  Elec       q    Type
REMARK                         _______ _______ _______ _____ _____    ______ ____
ROOT
ATOM      1  O   UNL     1       7.323   5.096  20.018  0.00  0.00    +0.000 OA
ATOM      2  C   UNL     1       6.378   5.488  19.340  0.00  0.00    +0.000 C 
ENDROOT
BRANCH   2   3
ATOM      3  C   UNL     1       6.462   5.695  17.893  0.00  0.00    +0.000 A 
ATOM      4  C   UNL     1       6.223   6.887  17.245  0.00  0.00    +0.000 A 
ATOM      5  O   UNL     1       6.267   6.668  15.903  0.00  0.00    +0.000 OA
ATOM      6  C   UNL     1       6.526   5.324  15.779  0.00  0.00    +0.000 A 
ATOM      7  N   UNL     1       6.692   4.709  16.938  0.00  0.00    +0.000 NA
BRANCH   6   8
ATOM      8  C   UNL     1       6.496   4.779  14.417  0.00  0.00    +0.000 A 
ATOM      9  C   UNL     1       5.500   3.878  14.005  0.00  0.00    +0.000 A 
ATOM     10  C   UNL     1       5.515   3.320  12.721  0.00  0.00    +0.000 A 
ATOM     11  C   UNL     1       6.528   3.657  11.828  0.00  0.00    +0.000 A 
ATOM     12  C   UNL     1       7.523   4.553  12.216  0.00  0.00    +0.000 A 
ATOM     13  C   UNL     1       7.506   5.111  13.500  0.00  0.00    +0.000 A 
ENDBRANCH   6   8
ENDBRANCH   2   3
BRANCH   2  14
ATOM     14  O   UNL     1       5.116   5.836  19.862  0.00  0.00    +0.000 OA
BRANCH  14  15
ATOM     15  C   UNL     1       3.911   5.398  19.244  0.00  0.00    +0.000 A 
ATOM     16  C   UNL     1       3.052   6.332  18.652  0.00  0.00    +0.000 A 
ATOM     17  C   UNL     1       1.990   5.896  17.864  0.00  0.00    +0.000 A 
ATOM     18  C   UNL     1       1.817   4.536  17.616  0.00  0.00    +0.000 A 
ATOM     19  C   UNL     1       2.684   3.591  18.182  0.00  0.00    +0.000 A 
ATOM     20  C   UNL     1       3.710   4.014  19.058  0.00  0.00    +0.000 A 
ATOM     21  C   UNL     1       4.596   2.999  19.749  0.00  0.00    +0.000 C 
ATOM     22  C   UNL     1       4.116   1.548  19.601  0.00  0.00    +0.000 C 
ATOM     23  C   UNL     1       3.693   1.274  18.167  0.00  0.00    +0.000 C 
ATOM     24  C   UNL     1       2.480   2.135  17.829  0.00  0.00    +0.000 C 
ENDBRANCH  14  15
ENDBRANCH   2  14
TORSDOF 4
ENDMDL
MODEL 9
REMARK VINA RESULT:      -8.0      5.088      8.585
REMARK  Name = 
REMARK  4 active torsions:
REMARK  status: ('A' for Active; 'I' for Inactive)
REMARK    1  A    between atoms: C_2  and  O_3
REMARK    2  A    between atoms: C_2  and  C_14
REMARK    3  A    between atoms: O_3  and  C_4
REMARK    4  A    between atoms: C_17  and  C_18
REMARK                            x       y       z     vdW  Elec       q    Type
REMARK                         _______ _______ _______ _____ _____    ______ ____
ROOT
ATOM      1  O   UNL     1       2.090   8.522  17.563  0.00  0.00    +0.000 OA
ATOM      2  C   UNL     1       2.154   8.090  18.709  0.00  0.00    +0.000 C 
ENDROOT
BRANCH   2   3
ATOM      3  C   UNL     1       1.457   8.709  19.838  0.00  0.00    +0.000 A 
ATOM      4  C   UNL     1       1.281   8.132  21.077  0.00  0.00    +0.000 A 
ATOM      5  O   UNL     1       0.479   8.941  21.822  0.00  0.00    +0.000 OA
ATOM      6  C   UNL     1       0.182   9.995  20.992  0.00  0.00    +0.000 A 
ATOM      7  N   UNL     1       0.776   9.922  19.813  0.00  0.00    +0.000 NA
BRANCH   6   8
ATOM      8  C   UNL     1      -0.790  10.969  21.502  0.00  0.00    +0.000 A 
ATOM      9  C   UNL     1      -1.167  10.994  22.855  0.00  0.00    +0.000 A 
ATOM     10  C   UNL     1      -2.138  11.891  23.319  0.00  0.00    +0.000 A 
ATOM     11  C   UNL     1      -2.745  12.777  22.434  0.00  0.00    +0.000 A 
ATOM     12  C   UNL     1      -2.380  12.771  21.088  0.00  0.00    +0.000 A 
ATOM     13  C   UNL     1      -1.409  11.875  20.627  0.00  0.00    +0.000 A 
ENDBRANCH   6   8
ENDBRANCH   2   3
BRANCH   2  14
ATOM     14  O   UNL     1       2.937   6.985  19.099  0.00  0.00    +0.000 OA
BRANCH  14  15
ATOM     15  C   UNL     1       3.314   5.978  18.167  0.00  0.00    +0.000 A 
ATOM     16  C   UNL     1       4.368   6.213  17.275  0.00  0.00    +0.000 A 
ATOM     17  C   UNL     1       4.880   5.165  16.515  0.00  0.00    +0.000 A 
ATOM     18  C   UNL     1       4.386   3.873  16.684  0.00  0.00    +0.000 A 
ATOM     19  C   UNL     1       3.348   3.619  17.591  0.00  0.00    +0.000 A 
ATOM     20  C   UNL     1       2.756   4.689  18.301  0.00  0.00    +0.000 A 
ATOM     21  C   UNL     1       1.574   4.443  19.214  0.00  0.00    +0.000 C 
ATOM     22  C   UNL     1       0.968   3.038  19.088  0.00  0.00    +0.000 C 
ATOM     23  C   UNL     1       2.069   1.990  19.040  0.00  0.00    +0.000 C 
ATOM     24  C   UNL     1       2.894   2.188  17.772  0.00  0.00    +0.000 C 
ENDBRANCH  14  15
ENDBRANCH   2  14
TORSDOF 4
ENDMDL
