MODEL 1
REMARK VINA RESULT:      -7.4      0.000      0.000
REMARK  Name = 
REMARK  6 active torsions:
REMARK  status: ('A' for Active; 'I' for Inactive)
REMARK    1  A    between atoms: C_2  and  C_14
REMARK    2  A    between atoms: N_3  and  C_4
REMARK    3  A    between atoms: C_4  and  C_5
REMARK    4  A    between atoms: C_5  and  C_6
REMARK    5  A    between atoms: C_6  and  C_7
REMARK    6  A    between atoms: C_7  and  C_8
REMARK                            x       y       z     vdW  Elec       q    Type
REMARK                         _______ _______ _______ _____ _____    ______ ____
ROOT
ATOM      1  O   UNL     1       7.570   6.048  16.440  0.00  0.00    +0.000 OA
ATOM      2  C   UNL     1       6.907   5.117  15.997  0.00  0.00    +0.000 C 
ATOM      3  N   UNL     1       6.113   4.318  16.783  0.00  0.00    +0.000 N 
ATOM      4  H   UNL     1       5.701   3.493  16.376  0.00  0.00    +0.000 HD
ENDROOT
BRANCH   2   5
ATOM      5  C   UNL     1       6.909   4.758  14.598  0.00  0.00    +0.000 A 
ATOM      6  C   UNL     1       6.176   3.820  13.883  0.00  0.00    +0.000 A 
ATOM      7  C   UNL     1       6.578   3.884  12.530  0.00  0.00    +0.000 A 
ATOM      8  C   UNL     1       7.537   4.866  12.437  0.00  0.00    +0.000 A 
ATOM      9  N   UNL     1       7.721   5.394  13.685  0.00  0.00    +0.000 N 
ATOM     10  H   UNL     1       8.357   6.144  13.932  0.00  0.00    +0.000 HD
ENDBRANCH   2   5
BRANCH   3  11
ATOM     11  C   UNL     1       5.978   4.510  18.204  0.00  0.00    +0.000 C 
BRANCH  11  12
ATOM     12  C   UNL     1       5.127   5.738  18.520  0.00  0.00    +0.000 C 
BRANCH  12  13
ATOM     13  C   UNL     1       4.010   5.953  17.499  0.00  0.00    +0.000 C 
BRANCH  13  14
ATOM     14  C   UNL     1       2.660   6.265  18.152  0.00  0.00    +0.000 C 
BRANCH  14  15
ATOM     15  C   UNL     1       2.042   5.037  18.767  0.00  0.00    +0.000 A 
ATOM     16  C   UNL     1       1.793   4.990  20.145  0.00  0.00    +0.000 A 
ATOM     17  C   UNL     1       1.253   3.844  20.726  0.00  0.00    +0.000 A 
ATOM     18  C   UNL     1       0.956   2.737  19.935  0.00  0.00    +0.000 A 
ATOM     19  C   UNL     1       1.193   2.776  18.562  0.00  0.00    +0.000 A 
ATOM     20  C   UNL     1       1.736   3.921  17.978  0.00  0.00    +0.000 A 
ENDBRANCH  14  15
ENDBRANCH  13  14
ENDBRANCH  12  13
ENDBRANCH  11  12
ENDBRANCH   3  11
TORSDOF 6
ENDMDL
MODEL 2
REMARK VINA RESULT:      -7.3      0.795      1.510
REMARK  Name = 
REMARK  6 active torsions:
REMARK  status: ('A' for Active; 'I' for Inactive)
REMARK    1  A    between atoms: C_2  and  C_14
REMARK    2  A    between atoms: N_3  and  C_4
REMARK    3  A    between atoms: C_4  and  C_5
REMARK    4  A    between atoms: C_5  and  C_6
REMARK    5  A    between atoms: C_6  and  C_7
REMARK    6  A    between atoms: C_7  and  C_8
REMARK                            x       y       z     vdW  Elec       q    Type
REMARK                         _______ _______ _______ _____ _____    ______ ____
ROOT
ATOM      1  O   UNL     1       7.619   6.196  15.881  0.00  0.00    +0.000 OA
ATOM      2  C   UNL     1       7.101   5.116  15.620  0.00  0.00    +0.000 C 
ATOM      3  N   UNL     1       6.625   4.257  16.580  0.00  0.00    +0.000 N 
ATOM      4  H   UNL     1       6.334   3.333  16.302  0.00  0.00    +0.000 HD
ENDROOT
BRANCH   2   5
ATOM      5  C   UNL     1       6.955   4.632  14.267  0.00  0.00    +0.000 A 
ATOM      6  C   UNL     1       7.547   5.027  13.074  0.00  0.00    +0.000 A 
ATOM      7  C   UNL     1       7.041   4.210  12.038  0.00  0.00    +0.000 A 
ATOM      8  C   UNL     1       6.162   3.322  12.613  0.00  0.00    +0.000 A 
ATOM      9  N   UNL     1       6.125   3.577  13.957  0.00  0.00    +0.000 N 
ATOM     10  H   UNL     1       5.575   3.079  14.647  0.00  0.00    +0.000 HD
ENDBRANCH   2   5
BRANCH   3  11
ATOM     11  C   UNL     1       6.680   4.554  17.988  0.00  0.00    +0.000 C 
BRANCH  11  12
ATOM     12  C   UNL     1       5.343   5.088  18.495  0.00  0.00    +0.000 C 
BRANCH  12  13
ATOM     13  C   UNL     1       4.376   5.416  17.357  0.00  0.00    +0.000 C 
BRANCH  13  14
ATOM     14  C   UNL     1       3.028   5.949  17.857  0.00  0.00    +0.000 C 
BRANCH  14  15
ATOM     15  C   UNL     1       2.252   4.892  18.596  0.00  0.00    +0.000 A 
ATOM     16  C   UNL     1       1.815   3.742  17.925  0.00  0.00    +0.000 A 
ATOM     17  C   UNL     1       1.066   2.776  18.594  0.00  0.00    +0.000 A 
ATOM     18  C   UNL     1       0.749   2.949  19.940  0.00  0.00    +0.000 A 
ATOM     19  C   UNL     1       1.185   4.086  20.618  0.00  0.00    +0.000 A 
ATOM     20  C   UNL     1       1.932   5.057  19.950  0.00  0.00    +0.000 A 
ENDBRANCH  14  15
ENDBRANCH  13  14
ENDBRANCH  12  13
ENDBRANCH  11  12
ENDBRANCH   3  11
TORSDOF 6
ENDMDL
MODEL 3
REMARK VINA RESULT:      -7.2      1.123      1.179
REMARK  Name = 
REMARK  6 active torsions:
REMARK  status: ('A' for Active; 'I' for Inactive)
REMARK    1  A    between atoms: C_2  and  C_14
REMARK    2  A    between atoms: N_3  and  C_4
REMARK    3  A    between atoms: C_4  and  C_5
REMARK    4  A    between atoms: C_5  and  C_6
REMARK    5  A    between atoms: C_6  and  C_7
REMARK    6  A    between atoms: C_7  and  C_8
REMARK                            x       y       z     vdW  Elec       q    Type
REMARK                         _______ _______ _______ _____ _____    ______ ____
ROOT
ATOM      1  O   UNL     1       7.585   4.764  16.377  0.00  0.00    +0.000 OA
ATOM      2  C   UNL     1       6.838   5.211  15.513  0.00  0.00    +0.000 C 
ATOM      3  N   UNL     1       5.945   6.228  15.743  0.00  0.00    +0.000 N 
ATOM      4  H   UNL     1       5.273   6.455  15.026  0.00  0.00    +0.000 HD
ENDROOT
BRANCH   2   5
ATOM      5  C   UNL     1       6.815   4.695  14.164  0.00  0.00    +0.000 A 
ATOM      6  C   UNL     1       6.098   3.658  13.583  0.00  0.00    +0.000 A 
ATOM      7  C   UNL     1       6.460   3.580  12.219  0.00  0.00    +0.000 A 
ATOM      8  C   UNL     1       7.381   4.576  11.986  0.00  0.00    +0.000 A 
ATOM      9  N   UNL     1       7.579   5.249  13.161  0.00  0.00    +0.000 N 
ATOM     10  H   UNL     1       8.194   6.042  13.301  0.00  0.00    +0.000 HD
ENDBRANCH   2   5
BRANCH   3  11
ATOM     11  C   UNL     1       5.813   6.875  17.023  0.00  0.00    +0.000 C 
BRANCH  11  12
ATOM     12  C   UNL     1       4.348   7.132  17.366  0.00  0.00    +0.000 C 
BRANCH  12  13
ATOM     13  C   UNL     1       3.617   5.859  17.794  0.00  0.00    +0.000 C 
BRANCH  13  14
ATOM     14  C   UNL     1       2.444   6.137  18.740  0.00  0.00    +0.000 C 
BRANCH  14  15
ATOM     15  C   UNL     1       2.029   4.900  19.490  0.00  0.00    +0.000 A 
ATOM     16  C   UNL     1       2.353   4.758  20.846  0.00  0.00    +0.000 A 
ATOM     17  C   UNL     1       2.002   3.601  21.539  0.00  0.00    +0.000 A 
ATOM     18  C   UNL     1       1.323   2.576  20.883  0.00  0.00    +0.000 A 
ATOM     19  C   UNL     1       0.990   2.710  19.536  0.00  0.00    +0.000 A 
ATOM     20  C   UNL     1       1.343   3.867  18.839  0.00  0.00    +0.000 A 
ENDBRANCH  14  15
ENDBRANCH  13  14
ENDBRANCH  12  13
ENDBRANCH  11  12
ENDBRANCH   3  11
TORSDOF 6
ENDMDL
MODEL 4
REMARK VINA RESULT:      -7.1      1.228      1.834
REMARK  Name = 
REMARK  6 active torsions:
REMARK  status: ('A' for Active; 'I' for Inactive)
REMARK    1  A    between atoms: C_2  and  C_14
REMARK    2  A    between atoms: N_3  and  C_4
REMARK    3  A    between atoms: C_4  and  C_5
REMARK    4  A    between atoms: C_5  and  C_6
REMARK    5  A    between atoms: C_6  and  C_7
REMARK    6  A    between atoms: C_7  and  C_8
REMARK                            x       y       z     vdW  Elec       q    Type
REMARK                         _______ _______ _______ _____ _____    ______ ____
ROOT
ATOM      1  O   UNL     1       7.705   4.411  16.292  0.00  0.00    +0.000 OA
ATOM      2  C   UNL     1       7.064   5.021  15.442  0.00  0.00    +0.000 C 
ATOM      3  N   UNL     1       6.366   6.173  15.708  0.00  0.00    +0.000 N 
ATOM      4  H   UNL     1       5.758   6.547  14.995  0.00  0.00    +0.000 HD
ENDROOT
BRANCH   2   5
ATOM      5  C   UNL     1       6.971   4.574  14.072  0.00  0.00    +0.000 A 
ATOM      6  C   UNL     1       7.597   5.009  12.912  0.00  0.00    +0.000 A 
ATOM      7  C   UNL     1       7.137   4.215  11.837  0.00  0.00    +0.000 A 
ATOM      8  C   UNL     1       6.250   3.301  12.357  0.00  0.00    +0.000 A 
ATOM      9  N   UNL     1       6.165   3.517  13.705  0.00  0.00    +0.000 N 
ATOM     10  H   UNL     1       5.598   2.994  14.362  0.00  0.00    +0.000 HD
ENDBRANCH   2   5
BRANCH   3  11
ATOM     11  C   UNL     1       6.332   6.781  17.013  0.00  0.00    +0.000 C 
BRANCH  11  12
ATOM     12  C   UNL     1       4.898   7.061  17.457  0.00  0.00    +0.000 C 
BRANCH  12  13
ATOM     13  C   UNL     1       4.321   5.932  18.312  0.00  0.00    +0.000 C 
BRANCH  13  14
ATOM     14  C   UNL     1       3.367   5.023  17.530  0.00  0.00    +0.000 C 
BRANCH  14  15
ATOM     15  C   UNL     1       2.423   4.289  18.445  0.00  0.00    +0.000 A 
ATOM     16  C   UNL     1       1.856   3.073  18.041  0.00  0.00    +0.000 A 
ATOM     17  C   UNL     1       0.954   2.405  18.867  0.00  0.00    +0.000 A 
ATOM     18  C   UNL     1       0.612   2.946  20.105  0.00  0.00    +0.000 A 
ATOM     19  C   UNL     1       1.176   4.152  20.519  0.00  0.00    +0.000 A 
ATOM     20  C   UNL     1       2.077   4.824  19.692  0.00  0.00    +0.000 A 
ENDBRANCH  14  15
ENDBRANCH  13  14
ENDBRANCH  12  13
ENDBRANCH  11  12
ENDBRANCH   3  11
TORSDOF 6
ENDMDL
MODEL 5
REMARK VINA RESULT:      -7.0      0.794      1.501
REMARK  Name = 
REMARK  6 active torsions:
REMARK  status: ('A' for Active; 'I' for Inactive)
REMARK    1  A    between atoms: C_2  and  C_14
REMARK    2  A    between atoms: N_3  and  C_4
REMARK    3  A    between atoms: C_4  and  C_5
REMARK    4  A    between atoms: C_5  and  C_6
REMARK    5  A    between atoms: C_6  and  C_7
REMARK    6  A    between atoms: C_7  and  C_8
REMARK                            x       y       z     vdW  Elec       q    Type
REMARK                         _______ _______ _______ _____ _____    ______ ____
ROOT
ATOM      1  O   UNL     1       6.146   6.202  15.549  0.00  0.00    +0.000 OA
ATOM      2  C   UNL     1       6.458   5.030  15.364  0.00  0.00    +0.000 C 
ATOM      3  N   UNL     1       6.897   4.201  16.367  0.00  0.00    +0.000 N 
ATOM      4  H   UNL     1       7.260   3.293  16.121  0.00  0.00    +0.000 HD
ENDROOT
BRANCH   2   5
ATOM      5  C   UNL     1       6.407   4.410  14.061  0.00  0.00    +0.000 A 
ATOM      6  C   UNL     1       5.469   3.574  13.471  0.00  0.00    +0.000 A 
ATOM      7  C   UNL     1       5.918   3.256  12.169  0.00  0.00    +0.000 A 
ATOM      8  C   UNL     1       7.114   3.910  11.980  0.00  0.00    +0.000 A 
ATOM      9  N   UNL     1       7.394   4.612  13.121  0.00  0.00    +0.000 N 
ATOM     10  H   UNL     1       8.204   5.201  13.279  0.00  0.00    +0.000 HD
ENDBRANCH   2   5
BRANCH   3  11
ATOM     11  C   UNL     1       7.020   4.630  17.736  0.00  0.00    +0.000 C 
BRANCH  11  12
ATOM     12  C   UNL     1       5.735   4.370  18.518  0.00  0.00    +0.000 C 
BRANCH  12  13
ATOM     13  C   UNL     1       4.942   5.651  18.780  0.00  0.00    +0.000 C 
BRANCH  13  14
ATOM     14  C   UNL     1       3.588   5.669  18.063  0.00  0.00    +0.000 C 
BRANCH  14  15
ATOM     15  C   UNL     1       2.607   4.722  18.703  0.00  0.00    +0.000 A 
ATOM     16  C   UNL     1       2.080   3.653  17.966  0.00  0.00    +0.000 A 
ATOM     17  C   UNL     1       1.145   2.793  18.539  0.00  0.00    +0.000 A 
ATOM     18  C   UNL     1       0.732   2.992  19.855  0.00  0.00    +0.000 A 
ATOM     19  C   UNL     1       1.256   4.048  20.599  0.00  0.00    +0.000 A 
ATOM     20  C   UNL     1       2.190   4.913  20.026  0.00  0.00    +0.000 A 
ENDBRANCH  14  15
ENDBRANCH  13  14
ENDBRANCH  12  13
ENDBRANCH  11  12
ENDBRANCH   3  11
TORSDOF 6
ENDMDL
MODEL 6
REMARK VINA RESULT:      -7.0      1.413      1.769
REMARK  Name = 
REMARK  6 active torsions:
REMARK  status: ('A' for Active; 'I' for Inactive)
REMARK    1  A    between atoms: C_2  and  C_14
REMARK    2  A    between atoms: N_3  and  C_4
REMARK    3  A    between atoms: C_4  and  C_5
REMARK    4  A    between atoms: C_5  and  C_6
REMARK    5  A    between atoms: C_6  and  C_7
REMARK    6  A    between atoms: C_7  and  C_8
REMARK                            x       y       z     vdW  Elec       q    Type
REMARK                         _______ _______ _______ _____ _____    ______ ____
ROOT
ATOM      1  O   UNL     1       7.843   4.641  16.160  0.00  0.00    +0.000 OA
ATOM      2  C   UNL     1       7.022   5.069  15.356  0.00  0.00    +0.000 C 
ATOM      3  N   UNL     1       6.067   6.002  15.678  0.00  0.00    +0.000 N 
ATOM      4  H   UNL     1       5.346   6.209  15.006  0.00  0.00    +0.000 HD
ENDROOT
BRANCH   2   5
ATOM      5  C   UNL     1       6.972   4.620  13.984  0.00  0.00    +0.000 A 
ATOM      6  C   UNL     1       7.627   5.061  12.842  0.00  0.00    +0.000 A 
ATOM      7  C   UNL     1       7.206   4.261  11.755  0.00  0.00    +0.000 A 
ATOM      8  C   UNL     1       6.315   3.337  12.251  0.00  0.00    +0.000 A 
ATOM      9  N   UNL     1       6.189   3.554  13.596  0.00  0.00    +0.000 N 
ATOM     10  H   UNL     1       5.609   3.025  14.237  0.00  0.00    +0.000 HD
ENDBRANCH   2   5
BRANCH   3  11
ATOM     11  C   UNL     1       5.949   6.573  16.995  0.00  0.00    +0.000 C 
BRANCH  11  12
ATOM     12  C   UNL     1       4.773   5.969  17.758  0.00  0.00    +0.000 C 
BRANCH  12  13
ATOM     13  C   UNL     1       5.054   4.543  18.232  0.00  0.00    +0.000 C 
BRANCH  13  14
ATOM     14  C   UNL     1       3.958   3.554  17.822  0.00  0.00    +0.000 C 
BRANCH  14  15
ATOM     15  C   UNL     1       2.937   3.370  18.913  0.00  0.00    +0.000 A 
ATOM     16  C   UNL     1       3.346   3.282  20.250  0.00  0.00    +0.000 A 
ATOM     17  C   UNL     1       2.410   3.078  21.263  0.00  0.00    +0.000 A 
ATOM     18  C   UNL     1       1.058   2.961  20.947  0.00  0.00    +0.000 A 
ATOM     19  C   UNL     1       0.641   3.054  19.620  0.00  0.00    +0.000 A 
ATOM     20  C   UNL     1       1.576   3.256  18.604  0.00  0.00    +0.000 A 
ENDBRANCH  14  15
ENDBRANCH  13  14
ENDBRANCH  12  13
ENDBRANCH  11  12
ENDBRANCH   3  11
TORSDOF 6
ENDMDL
MODEL 7
REMARK VINA RESULT:      -7.0      5.359      7.700
REMARK  Name = 
REMARK  6 active torsions:
REMARK  status: ('A' for Active; 'I' for Inactive)
REMARK    1  A    between atoms: C_2  and  C_14
REMARK    2  A    between atoms: N_3  and  C_4
REMARK    3  A    between atoms: C_4  and  C_5
REMARK    4  A    between atoms: C_5  and  C_6
REMARK    5  A    between atoms: C_6  and  C_7
REMARK    6  A    between atoms: C_7  and  C_8
REMARK                            x       y       z     vdW  Elec       q    Type
REMARK                         _______ _______ _______ _____ _____    ______ ____
ROOT
ATOM      1  O   UNL     1       7.981   4.236  16.842  0.00  0.00    +0.000 OA
ATOM      2  C   UNL     1       7.483   5.025  16.046  0.00  0.00    +0.000 C 
ATOM      3  N   UNL     1       7.184   6.327  16.365  0.00  0.00    +0.000 N 
ATOM      4  H   UNL     1       6.658   6.879  15.705  0.00  0.00    +0.000 HD
ENDROOT
BRANCH   2   5
ATOM      5  C   UNL     1       7.145   4.653  14.692  0.00  0.00    +0.000 A 
ATOM      6  C   UNL     1       6.203   3.771  14.183  0.00  0.00    +0.000 A 
ATOM      7  C   UNL     1       6.298   3.788  12.773  0.00  0.00    +0.000 A 
ATOM      8  C   UNL     1       7.285   4.688  12.443  0.00  0.00    +0.000 A 
ATOM      9  N   UNL     1       7.781   5.212  13.605  0.00  0.00    +0.000 N 
ATOM     10  H   UNL     1       8.512   5.910  13.684  0.00  0.00    +0.000 HD
ENDBRANCH   2   5
BRANCH   3  11
ATOM     11  C   UNL     1       7.441   6.891  17.664  0.00  0.00    +0.000 C 
BRANCH  11  12
ATOM     12  C   UNL     1       7.430   8.417  17.620  0.00  0.00    +0.000 C 
BRANCH  12  13
ATOM     13  C   UNL     1       8.695   9.028  18.224  0.00  0.00    +0.000 C 
BRANCH  13  14
ATOM     14  C   UNL     1       8.550  10.526  18.514  0.00  0.00    +0.000 C 
BRANCH  14  15
ATOM     15  C   UNL     1       9.882  11.168  18.799  0.00  0.00    +0.000 A 
ATOM     16  C   UNL     1      10.276  11.411  20.121  0.00  0.00    +0.000 A 
ATOM     17  C   UNL     1      11.492  12.037  20.392  0.00  0.00    +0.000 A 
ATOM     18  C   UNL     1      12.324  12.424  19.343  0.00  0.00    +0.000 A 
ATOM     19  C   UNL     1      11.943  12.180  18.024  0.00  0.00    +0.000 A 
ATOM     20  C   UNL     1      10.725  11.556  17.751  0.00  0.00    +0.000 A 
ENDBRANCH  14  15
ENDBRANCH  13  14
ENDBRANCH  12  13
ENDBRANCH  11  12
ENDBRANCH   3  11
TORSDOF 6
ENDMDL
MODEL 8
REMARK VINA RESULT:      -6.9      1.328      1.682
REMARK  Name = 
REMARK  6 active torsions:
REMARK  status: ('A' for Active; 'I' for Inactive)
REMARK    1  A    between atoms: C_2  and  C_14
REMARK    2  A    between atoms: N_3  and  C_4
REMARK    3  A    between atoms: C_4  and  C_5
REMARK    4  A    between atoms: C_5  and  C_6
REMARK    5  A    between atoms: C_6  and  C_7
REMARK    6  A    between atoms: C_7  and  C_8
REMARK                            x       y       z     vdW  Elec       q    Type
REMARK                         _______ _______ _______ _____ _____    ______ ____
ROOT
ATOM      1  O   UNL     1       7.728   4.616  16.378  0.00  0.00    +0.000 OA
ATOM      2  C   UNL     1       6.848   4.983  15.608  0.00  0.00    +0.000 C 
ATOM      3  N   UNL     1       5.761   5.724  16.004  0.00  0.00    +0.000 N 
ATOM      4  H   UNL     1       5.013   5.877  15.346  0.00  0.00    +0.000 HD
ENDROOT
BRANCH   2   5
ATOM      5  C   UNL     1       6.861   4.655  14.201  0.00  0.00    +0.000 A 
ATOM      6  C   UNL     1       6.167   3.703  13.467  0.00  0.00    +0.000 A 
ATOM      7  C   UNL     1       6.563   3.813  12.115  0.00  0.00    +0.000 A 
ATOM      8  C   UNL     1       7.480   4.836  12.042  0.00  0.00    +0.000 A 
ATOM      9  N   UNL     1       7.644   5.344  13.301  0.00  0.00    +0.000 N 
ATOM     10  H   UNL     1       8.249   6.114  13.563  0.00  0.00    +0.000 HD
ENDBRANCH   2   5
BRANCH   3  11
ATOM     11  C   UNL     1       5.562   6.150  17.365  0.00  0.00    +0.000 C 
BRANCH  11  12
ATOM     12  C   UNL     1       4.814   5.094  18.174  0.00  0.00    +0.000 C 
BRANCH  12  13
ATOM     13  C   UNL     1       3.953   4.186  17.295  0.00  0.00    +0.000 C 
BRANCH  13  14
ATOM     14  C   UNL     1       3.733   2.800  17.909  0.00  0.00    +0.000 C 
BRANCH  14  15
ATOM     15  C   UNL     1       2.857   2.865  19.131  0.00  0.00    +0.000 A 
ATOM     16  C   UNL     1       3.404   2.635  20.401  0.00  0.00    +0.000 A 
ATOM     17  C   UNL     1       2.593   2.660  21.534  0.00  0.00    +0.000 A 
ATOM     18  C   UNL     1       1.229   2.915  21.408  0.00  0.00    +0.000 A 
ATOM     19  C   UNL     1       0.677   3.151  20.150  0.00  0.00    +0.000 A 
ATOM     20  C   UNL     1       1.486   3.124  19.013  0.00  0.00    +0.000 A 
ENDBRANCH  14  15
ENDBRANCH  13  14
ENDBRANCH  12  13
ENDBRANCH  11  12
ENDBRANCH   3  11
TORSDOF 6
ENDMDL
MODEL 9
REMARK VINA RESULT:      -6.9      1.469      2.890
REMARK  Name = 
REMARK  6 active torsions:
REMARK  status: ('A' for Active; 'I' for Inactive)
REMARK    1  A    between atoms: C_2  and  C_14
REMARK    2  A    between atoms: N_3  and  C_4
REMARK    3  A    between atoms: C_4  and  C_5
REMARK    4  A    between atoms: C_5  and  C_6
REMARK    5  A    between atoms: C_6  and  C_7
REMARK    6  A    between atoms: C_7  and  C_8
REMARK                            x       y       z     vdW  Elec       q    Type
REMARK                         _______ _______ _______ _____ _____    ______ ____
ROOT
ATOM      1  O   UNL     1       5.871   5.319  18.458  0.00  0.00    +0.000 OA
ATOM      2  C   UNL     1       5.649   4.401  17.676  0.00  0.00    +0.000 C 
ATOM      3  N   UNL     1       5.042   3.227  18.046  0.00  0.00    +0.000 N 
ATOM      4  H   UNL     1       5.010   2.467  17.383  0.00  0.00    +0.000 HD
ENDROOT
BRANCH   2   5
ATOM      5  C   UNL     1       6.023   4.462  16.282  0.00  0.00    +0.000 A 
ATOM      6  C   UNL     1       5.359   4.065  15.129  0.00  0.00    +0.000 A 
ATOM      7  C   UNL     1       6.187   4.356  14.021  0.00  0.00    +0.000 A 
ATOM      8  C   UNL     1       7.334   4.937  14.511  0.00  0.00    +0.000 A 
ATOM      9  N   UNL     1       7.220   5.007  15.873  0.00  0.00    +0.000 N 
ATOM     10  H   UNL     1       7.904   5.396  16.512  0.00  0.00    +0.000 HD
ENDBRANCH   2   5
BRANCH   3  11
ATOM     11  C   UNL     1       4.596   2.969  19.391  0.00  0.00    +0.000 C 
BRANCH  11  12
ATOM     12  C   UNL     1       3.447   1.964  19.412  0.00  0.00    +0.000 C 
BRANCH  12  13
ATOM     13  C   UNL     1       2.504   2.130  18.221  0.00  0.00    +0.000 C 
BRANCH  13  14
ATOM     14  C   UNL     1       1.253   2.947  18.562  0.00  0.00    +0.000 C 
BRANCH  14  15
ATOM     15  C   UNL     1       1.599   4.363  18.936  0.00  0.00    +0.000 A 
ATOM     16  C   UNL     1       2.133   5.233  17.976  0.00  0.00    +0.000 A 
ATOM     17  C   UNL     1       2.487   6.536  18.322  0.00  0.00    +0.000 A 
ATOM     18  C   UNL     1       2.309   6.981  19.631  0.00  0.00    +0.000 A 
ATOM     19  C   UNL     1       1.772   6.125  20.591  0.00  0.00    +0.000 A 
ATOM     20  C   UNL     1       1.419   4.819  20.248  0.00  0.00    +0.000 A 
ENDBRANCH  14  15
ENDBRANCH  13  14
ENDBRANCH  12  13
ENDBRANCH  11  12
ENDBRANCH   3  11
TORSDOF 6
ENDMDL
