MODEL 1
REMARK VINA RESULT:      -8.3      0.000      0.000
REMARK  Name = 
REMARK  4 active torsions:
REMARK  status: ('A' for Active; 'I' for Inactive)
REMARK    1  A    between atoms: C_6  and  C_7
REMARK    2  A    between atoms: C_7  and  O_8
REMARK    3  A    between atoms: O_8  and  C_9
REMARK    4  A    between atoms: C_14  and  C_15
REMARK                            x       y       z     vdW  Elec       q    Type
REMARK                         _______ _______ _______ _____ _____    ______ ____
ROOT
ATOM      1  C   UNL     1       2.365   4.696  19.677  0.00  0.00    +0.000 A 
ATOM      2  C   UNL     1       1.727   4.423  20.904  0.00  0.00    +0.000 A 
ATOM      3  C   UNL     1       2.065   3.312  21.672  0.00  0.00    +0.000 A 
ATOM      4  C   UNL     1       3.052   2.444  21.227  0.00  0.00    +0.000 A 
ATOM      5  C   UNL     1       3.703   2.705  20.020  0.00  0.00    +0.000 A 
ATOM      6  C   UNL     1       3.390   3.836  19.229  0.00  0.00    +0.000 A 
ENDROOT
BRANCH   6   7
ATOM      7  C   UNL     1       4.210   4.062  18.038  0.00  0.00    +0.000 A 
ATOM      8  N   UNL     1       3.887   3.957  16.762  0.00  0.00    +0.000 NA
ATOM      9  C   UNL     1       5.054   4.222  16.105  0.00  0.00    +0.000 A 
ATOM     10  C   UNL     1       5.375   4.207  14.745  0.00  0.00    +0.000 A 
ATOM     11  C   UNL     1       6.680   4.569  14.405  0.00  0.00    +0.000 A 
ATOM     12  C   UNL     1       7.580   4.907  15.415  0.00  0.00    +0.000 A 
ATOM     13  N   UNL     1       7.321   4.905  16.746  0.00  0.00    +0.000 NA
ATOM     14  C   UNL     1       6.051   4.552  17.013  0.00  0.00    +0.000 A 
ATOM     15  O   UNL     1       5.513   4.442  18.262  0.00  0.00    +0.000 OA
ENDBRANCH   6   7
BRANCH   1  16
ATOM     16  O   UNL     1       1.882   5.849  19.110  0.00  0.00    +0.000 OA
BRANCH  16  17
ATOM     17  C   UNL     1       2.663   7.036  19.192  0.00  0.00    +0.000 C 
BRANCH  17  23
ATOM     18 CL   UNL     1      -0.245   9.281  22.911  0.00  0.00    +0.000 Cl
ATOM     19  C   UNL     1       0.409   9.255  21.319  0.00  0.00    +0.000 A 
ATOM     20  C   UNL     1       0.060  10.255  20.412  0.00  0.00    +0.000 A 
ATOM     21  C   UNL     1       0.579  10.227  19.118  0.00  0.00    +0.000 A 
ATOM     22  C   UNL     1       1.443   9.200  18.740  0.00  0.00    +0.000 A 
ATOM     23  C   UNL     1       1.797   8.188  19.647  0.00  0.00    +0.000 A 
ATOM     24  C   UNL     1       1.271   8.224  20.945  0.00  0.00    +0.000 A 
ENDBRANCH  17  23
ENDBRANCH  16  17
ENDBRANCH   1  16
TORSDOF 4
ENDMDL
MODEL 2
REMARK VINA RESULT:      -8.3      1.106      1.384
REMARK  Name = 
REMARK  4 active torsions:
REMARK  status: ('A' for Active; 'I' for Inactive)
REMARK    1  A    between atoms: C_6  and  C_7
REMARK    2  A    between atoms: C_7  and  O_8
REMARK    3  A    between atoms: O_8  and  C_9
REMARK    4  A    between atoms: C_14  and  C_15
REMARK                            x       y       z     vdW  Elec       q    Type
REMARK                         _______ _______ _______ _____ _____    ______ ____
ROOT
ATOM      1  C   UNL     1       2.524   4.825  19.776  0.00  0.00    +0.000 A 
ATOM      2  C   UNL     1       1.527   4.463  20.704  0.00  0.00    +0.000 A 
ATOM      3  C   UNL     1       1.019   3.168  20.761  0.00  0.00    +0.000 A 
ATOM      4  C   UNL     1       1.498   2.203  19.888  0.00  0.00    +0.000 A 
ATOM      5  C   UNL     1       2.494   2.541  18.971  0.00  0.00    +0.000 A 
ATOM      6  C   UNL     1       3.039   3.845  18.902  0.00  0.00    +0.000 A 
ENDROOT
BRANCH   6   7
ATOM      7  C   UNL     1       4.150   4.053  17.974  0.00  0.00    +0.000 A 
ATOM      8  N   UNL     1       5.422   4.302  18.226  0.00  0.00    +0.000 NA
ATOM      9  C   UNL     1       5.978   4.464  16.988  0.00  0.00    +0.000 A 
ATOM     10  C   UNL     1       7.273   4.805  16.593  0.00  0.00    +0.000 A 
ATOM     11  C   UNL     1       7.516   4.853  15.219  0.00  0.00    +0.000 A 
ATOM     12  C   UNL     1       6.477   4.576  14.331  0.00  0.00    +0.000 A 
ATOM     13  N   UNL     1       5.199   4.272  14.670  0.00  0.00    +0.000 NA
ATOM     14  C   UNL     1       5.025   4.239  16.003  0.00  0.00    +0.000 A 
ATOM     15  O   UNL     1       3.843   3.981  16.635  0.00  0.00    +0.000 OA
ENDBRANCH   6   7
BRANCH   1  16
ATOM     16  O   UNL     1       2.880   6.143  19.916  0.00  0.00    +0.000 OA
BRANCH  16  17
ATOM     17  C   UNL     1       2.559   7.058  18.874  0.00  0.00    +0.000 C 
BRANCH  17  23
ATOM     18 CL   UNL     1       0.075   9.286  22.898  0.00  0.00    +0.000 Cl
ATOM     19  C   UNL     1       0.595   9.291  21.257  0.00  0.00    +0.000 A 
ATOM     20  C   UNL     1       0.222  10.341  20.418  0.00  0.00    +0.000 A 
ATOM     21  C   UNL     1       0.632  10.340  19.085  0.00  0.00    +0.000 A 
ATOM     22  C   UNL     1       1.413   9.290  18.600  0.00  0.00    +0.000 A 
ATOM     23  C   UNL     1       1.789   8.229  19.439  0.00  0.00    +0.000 A 
ATOM     24  C   UNL     1       1.373   8.239  20.777  0.00  0.00    +0.000 A 
ENDBRANCH  17  23
ENDBRANCH  16  17
ENDBRANCH   1  16
TORSDOF 4
ENDMDL
MODEL 3
REMARK VINA RESULT:      -8.2      1.850      4.830
REMARK  Name = 
REMARK  4 active torsions:
REMARK  status: ('A' for Active; 'I' for Inactive)
REMARK    1  A    between atoms: C_6  and  C_7
REMARK    2  A    between atoms: C_7  and  O_8
REMARK    3  A    between atoms: O_8  and  C_9
REMARK    4  A    between atoms: C_14  and  C_15
REMARK                            x       y       z     vdW  Elec       q    Type
REMARK                         _______ _______ _______ _____ _____    ______ ____
ROOT
ATOM      1  C   UNL     1       4.733   6.013  16.827  0.00  0.00    +0.000 A 
ATOM      2  C   UNL     1       5.475   6.380  15.687  0.00  0.00    +0.000 A 
ATOM      3  C   UNL     1       6.006   5.425  14.823  0.00  0.00    +0.000 A 
ATOM      4  C   UNL     1       5.806   4.078  15.082  0.00  0.00    +0.000 A 
ATOM      5  C   UNL     1       5.063   3.697  16.201  0.00  0.00    +0.000 A 
ATOM      6  C   UNL     1       4.499   4.646  17.086  0.00  0.00    +0.000 A 
ENDROOT
BRANCH   6   7
ATOM      7  C   UNL     1       3.654   4.132  18.163  0.00  0.00    +0.000 A 
ATOM      8  N   UNL     1       2.339   4.152  18.284  0.00  0.00    +0.000 NA
ATOM      9  C   UNL     1       2.112   3.591  19.508  0.00  0.00    +0.000 A 
ATOM     10  C   UNL     1       0.933   3.389  20.230  0.00  0.00    +0.000 A 
ATOM     11  C   UNL     1       1.056   2.745  21.462  0.00  0.00    +0.000 A 
ATOM     12  C   UNL     1       2.319   2.354  21.906  0.00  0.00    +0.000 A 
ATOM     13  N   UNL     1       3.490   2.558  21.254  0.00  0.00    +0.000 NA
ATOM     14  C   UNL     1       3.311   3.180  20.076  0.00  0.00    +0.000 A 
ATOM     15  O   UNL     1       4.309   3.534  19.215  0.00  0.00    +0.000 OA
ENDBRANCH   6   7
BRANCH   1  16
ATOM     16  O   UNL     1       4.298   7.119  17.515  0.00  0.00    +0.000 OA
BRANCH  16  17
ATOM     17  C   UNL     1       3.086   7.747  17.112  0.00  0.00    +0.000 C 
BRANCH  17  23
ATOM     18 CL   UNL     1      -0.108  11.117  19.516  0.00  0.00    +0.000 Cl
ATOM     19  C   UNL     1       0.831   9.673  19.506  0.00  0.00    +0.000 A 
ATOM     20  C   UNL     1       0.922   8.901  20.664  0.00  0.00    +0.000 A 
ATOM     21  C   UNL     1       1.693   7.740  20.660  0.00  0.00    +0.000 A 
ATOM     22  C   UNL     1       2.366   7.356  19.500  0.00  0.00    +0.000 A 
ATOM     23  C   UNL     1       2.279   8.131  18.332  0.00  0.00    +0.000 A 
ATOM     24  C   UNL     1       1.503   9.296  18.344  0.00  0.00    +0.000 A 
ENDBRANCH  17  23
ENDBRANCH  16  17
ENDBRANCH   1  16
TORSDOF 4
ENDMDL
MODEL 4
REMARK VINA RESULT:      -8.2      1.943      2.245
REMARK  Name = 
REMARK  4 active torsions:
REMARK  status: ('A' for Active; 'I' for Inactive)
REMARK    1  A    between atoms: C_6  and  C_7
REMARK    2  A    between atoms: C_7  and  O_8
REMARK    3  A    between atoms: O_8  and  C_9
REMARK    4  A    between atoms: C_14  and  C_15
REMARK                            x       y       z     vdW  Elec       q    Type
REMARK                         _______ _______ _______ _____ _____    ______ ____
ROOT
ATOM      1  C   UNL     1       2.038   4.746  19.875  0.00  0.00    +0.000 A 
ATOM      2  C   UNL     1       0.890   3.967  20.126  0.00  0.00    +0.000 A 
ATOM      3  C   UNL     1       0.784   2.656  19.668  0.00  0.00    +0.000 A 
ATOM      4  C   UNL     1       1.827   2.094  18.946  0.00  0.00    +0.000 A 
ATOM      5  C   UNL     1       2.976   2.847  18.700  0.00  0.00    +0.000 A 
ATOM      6  C   UNL     1       3.116   4.176  19.167  0.00  0.00    +0.000 A 
ENDROOT
BRANCH   6   7
ATOM      7  C   UNL     1       4.405   4.828  18.938  0.00  0.00    +0.000 A 
ATOM      8  N   UNL     1       5.533   4.725  19.617  0.00  0.00    +0.000 NA
ATOM      9  C   UNL     1       6.375   5.600  18.991  0.00  0.00    +0.000 A 
ATOM     10  C   UNL     1       7.687   5.986  19.276  0.00  0.00    +0.000 A 
ATOM     11  C   UNL     1       8.277   6.895  18.396  0.00  0.00    +0.000 A 
ATOM     12  C   UNL     1       7.543   7.369  17.309  0.00  0.00    +0.000 A 
ATOM     13  N   UNL     1       6.260   7.045  17.013  0.00  0.00    +0.000 NA
ATOM     14  C   UNL     1       5.745   6.167  17.892  0.00  0.00    +0.000 A 
ATOM     15  O   UNL     1       4.471   5.679  17.859  0.00  0.00    +0.000 OA
ENDBRANCH   6   7
BRANCH   1  16
ATOM     16  O   UNL     1       1.924   5.994  20.436  0.00  0.00    +0.000 OA
BRANCH  16  17
ATOM     17  C   UNL     1       2.293   7.132  19.664  0.00  0.00    +0.000 C 
BRANCH  17  23
ATOM     18 CL   UNL     1      -0.318   9.644  23.432  0.00  0.00    +0.000 Cl
ATOM     19  C   UNL     1       0.246   9.525  21.810  0.00  0.00    +0.000 A 
ATOM     20  C   UNL     1      -0.112  10.502  20.881  0.00  0.00    +0.000 A 
ATOM     21  C   UNL     1       0.333  10.399  19.564  0.00  0.00    +0.000 A 
ATOM     22  C   UNL     1       1.136   9.323  19.185  0.00  0.00    +0.000 A 
ATOM     23  C   UNL     1       1.498   8.335  20.115  0.00  0.00    +0.000 A 
ATOM     24  C   UNL     1       1.046   8.446  21.436  0.00  0.00    +0.000 A 
ENDBRANCH  17  23
ENDBRANCH  16  17
ENDBRANCH   1  16
TORSDOF 4
ENDMDL
MODEL 5
REMARK VINA RESULT:      -8.2      2.524      5.092
REMARK  Name = 
REMARK  4 active torsions:
REMARK  status: ('A' for Active; 'I' for Inactive)
REMARK    1  A    between atoms: C_6  and  C_7
REMARK    2  A    between atoms: C_7  and  O_8
REMARK    3  A    between atoms: O_8  and  C_9
REMARK    4  A    between atoms: C_14  and  C_15
REMARK                            x       y       z     vdW  Elec       q    Type
REMARK                         _______ _______ _______ _____ _____    ______ ____
ROOT
ATOM      1  C   UNL     1       2.116   7.443  19.717  0.00  0.00    +0.000 A 
ATOM      2  C   UNL     1       1.078   8.307  20.122  0.00  0.00    +0.000 A 
ATOM      3  C   UNL     1       0.746   9.443  19.388  0.00  0.00    +0.000 A 
ATOM      4  C   UNL     1       1.449   9.743  18.231  0.00  0.00    +0.000 A 
ATOM      5  C   UNL     1       2.472   8.892  17.809  0.00  0.00    +0.000 A 
ATOM      6  C   UNL     1       2.819   7.723  18.526  0.00  0.00    +0.000 A 
ENDROOT
BRANCH   6   7
ATOM      7  C   UNL     1       3.836   6.855  17.932  0.00  0.00    +0.000 A 
ATOM      8  N   UNL     1       4.580   5.922  18.496  0.00  0.00    +0.000 NA
ATOM      9  C   UNL     1       5.387   5.488  17.484  0.00  0.00    +0.000 A 
ATOM     10  C   UNL     1       6.429   4.556  17.465  0.00  0.00    +0.000 A 
ATOM     11  C   UNL     1       7.035   4.320  16.230  0.00  0.00    +0.000 A 
ATOM     12  C   UNL     1       6.590   5.016  15.106  0.00  0.00    +0.000 A 
ATOM     13  N   UNL     1       5.606   5.949  15.085  0.00  0.00    +0.000 NA
ATOM     14  C   UNL     1       5.059   6.133  16.299  0.00  0.00    +0.000 A 
ATOM     15  O   UNL     1       4.064   7.022  16.585  0.00  0.00    +0.000 OA
ENDBRANCH   6   7
BRANCH   1  16
ATOM     16  O   UNL     1       2.249   6.386  20.581  0.00  0.00    +0.000 OA
BRANCH  16  17
ATOM     17  C   UNL     1       1.342   5.293  20.478  0.00  0.00    +0.000 C 
BRANCH  17  23
ATOM     18 CL   UNL     1       4.881   1.450  20.287  0.00  0.00    +0.000 Cl
ATOM     19  C   UNL     1       3.637   2.392  19.560  0.00  0.00    +0.000 A 
ATOM     20  C   UNL     1       3.291   2.168  18.227  0.00  0.00    +0.000 A 
ATOM     21  C   UNL     1       2.292   2.940  17.634  0.00  0.00    +0.000 A 
ATOM     22  C   UNL     1       1.646   3.928  18.376  0.00  0.00    +0.000 A 
ATOM     23  C   UNL     1       1.991   4.160  19.718  0.00  0.00    +0.000 A 
ATOM     24  C   UNL     1       2.996   3.380  20.306  0.00  0.00    +0.000 A 
ENDBRANCH  17  23
ENDBRANCH  16  17
ENDBRANCH   1  16
TORSDOF 4
ENDMDL
MODEL 6
REMARK VINA RESULT:      -8.1      1.617      2.024
REMARK  Name = 
REMARK  4 active torsions:
REMARK  status: ('A' for Active; 'I' for Inactive)
REMARK    1  A    between atoms: C_6  and  C_7
REMARK    2  A    between atoms: C_7  and  O_8
REMARK    3  A    between atoms: O_8  and  C_9
REMARK    4  A    between atoms: C_14  and  C_15
REMARK                            x       y       z     vdW  Elec       q    Type
REMARK                         _______ _______ _______ _____ _____    ______ ____
ROOT
ATOM      1  C   UNL     1       2.294   4.476  19.617  0.00  0.00    +0.000 A 
ATOM      2  C   UNL     1       1.168   4.042  20.346  0.00  0.00    +0.000 A 
ATOM      3  C   UNL     1       0.473   2.888  19.997  0.00  0.00    +0.000 A 
ATOM      4  C   UNL     1       0.889   2.139  18.906  0.00  0.00    +0.000 A 
ATOM      5  C   UNL     1       2.009   2.548  18.180  0.00  0.00    +0.000 A 
ATOM      6  C   UNL     1       2.743   3.708  18.523  0.00  0.00    +0.000 A 
ENDROOT
BRANCH   6   7
ATOM      7  C   UNL     1       3.958   3.978  17.754  0.00  0.00    +0.000 A 
ATOM      8  N   UNL     1       5.181   4.236  18.177  0.00  0.00    +0.000 NA
ATOM      9  C   UNL     1       5.885   4.465  17.029  0.00  0.00    +0.000 A 
ATOM     10  C   UNL     1       7.213   4.845  16.818  0.00  0.00    +0.000 A 
ATOM     11  C   UNL     1       7.627   4.962  15.490  0.00  0.00    +0.000 A 
ATOM     12  C   UNL     1       6.715   4.709  14.465  0.00  0.00    +0.000 A 
ATOM     13  N   UNL     1       5.412   4.369  14.625  0.00  0.00    +0.000 NA
ATOM     14  C   UNL     1       5.071   4.270  15.922  0.00  0.00    +0.000 A 
ATOM     15  O   UNL     1       3.824   3.964  16.385  0.00  0.00    +0.000 OA
ENDBRANCH   6   7
BRANCH   1  16
ATOM     16  O   UNL     1       2.823   5.623  20.155  0.00  0.00    +0.000 OA
BRANCH  16  17
ATOM     17  C   UNL     1       1.948   6.564  20.767  0.00  0.00    +0.000 C 
BRANCH  17  23
ATOM     18 CL   UNL     1      -0.059  11.322  19.951  0.00  0.00    +0.000 Cl
ATOM     19  C   UNL     1       0.880   9.973  19.439  0.00  0.00    +0.000 A 
ATOM     20  C   UNL     1       1.440   9.967  18.162  0.00  0.00    +0.000 A 
ATOM     21  C   UNL     1       2.189   8.869  17.741  0.00  0.00    +0.000 A 
ATOM     22  C   UNL     1       2.374   7.785  18.599  0.00  0.00    +0.000 A 
ATOM     23  C   UNL     1       1.811   7.784  19.886  0.00  0.00    +0.000 A 
ATOM     24  C   UNL     1       1.060   8.891  20.300  0.00  0.00    +0.000 A 
ENDBRANCH  17  23
ENDBRANCH  16  17
ENDBRANCH   1  16
TORSDOF 4
ENDMDL
MODEL 7
REMARK VINA RESULT:      -8.1      2.588      4.953
REMARK  Name = 
REMARK  4 active torsions:
REMARK  status: ('A' for Active; 'I' for Inactive)
REMARK    1  A    between atoms: C_6  and  C_7
REMARK    2  A    between atoms: C_7  and  O_8
REMARK    3  A    between atoms: O_8  and  C_9
REMARK    4  A    between atoms: C_14  and  C_15
REMARK                            x       y       z     vdW  Elec       q    Type
REMARK                         _______ _______ _______ _____ _____    ______ ____
ROOT
ATOM      1  C   UNL     1       2.560   7.032  19.739  0.00  0.00    +0.000 A 
ATOM      2  C   UNL     1       1.644   7.885  20.386  0.00  0.00    +0.000 A 
ATOM      3  C   UNL     1       1.069   8.971  19.731  0.00  0.00    +0.000 A 
ATOM      4  C   UNL     1       1.402   9.230  18.410  0.00  0.00    +0.000 A 
ATOM      5  C   UNL     1       2.299   8.388  17.749  0.00  0.00    +0.000 A 
ATOM      6  C   UNL     1       2.884   7.268  18.387  0.00  0.00    +0.000 A 
ENDROOT
BRANCH   6   7
ATOM      7  C   UNL     1       3.727   6.400  17.564  0.00  0.00    +0.000 A 
ATOM      8  N   UNL     1       3.577   5.124  17.261  0.00  0.00    +0.000 NA
ATOM      9  C   UNL     1       4.687   4.829  16.522  0.00  0.00    +0.000 A 
ATOM     10  C   UNL     1       5.135   3.629  15.964  0.00  0.00    +0.000 A 
ATOM     11  C   UNL     1       6.318   3.685  15.226  0.00  0.00    +0.000 A 
ATOM     12  C   UNL     1       6.984   4.904  15.094  0.00  0.00    +0.000 A 
ATOM     13  N   UNL     1       6.602   6.083  15.643  0.00  0.00    +0.000 NA
ATOM     14  C   UNL     1       5.457   5.969  16.340  0.00  0.00    +0.000 A 
ATOM     15  O   UNL     1       4.846   6.984  17.017  0.00  0.00    +0.000 OA
ENDBRANCH   6   7
BRANCH   1  16
ATOM     16  O   UNL     1       2.977   6.025  20.574  0.00  0.00    +0.000 OA
BRANCH  16  17
ATOM     17  C   UNL     1       2.006   5.146  21.132  0.00  0.00    +0.000 C 
BRANCH  17  23
ATOM     18 CL   UNL     1       4.239   1.142  18.619  0.00  0.00    +0.000 Cl
ATOM     19  C   UNL     1       2.853   2.068  19.051  0.00  0.00    +0.000 A 
ATOM     20  C   UNL     1       1.608   1.735  18.518  0.00  0.00    +0.000 A 
ATOM     21  C   UNL     1       0.487   2.492  18.857  0.00  0.00    +0.000 A 
ATOM     22  C   UNL     1       0.618   3.575  19.726  0.00  0.00    +0.000 A 
ATOM     23  C   UNL     1       1.870   3.917  20.264  0.00  0.00    +0.000 A 
ATOM     24  C   UNL     1       2.990   3.151  19.918  0.00  0.00    +0.000 A 
ENDBRANCH  17  23
ENDBRANCH  16  17
ENDBRANCH   1  16
TORSDOF 4
ENDMDL
MODEL 8
REMARK VINA RESULT:      -8.1      3.328      6.443
REMARK  Name = 
REMARK  4 active torsions:
REMARK  status: ('A' for Active; 'I' for Inactive)
REMARK    1  A    between atoms: C_6  and  C_7
REMARK    2  A    between atoms: C_7  and  O_8
REMARK    3  A    between atoms: O_8  and  C_9
REMARK    4  A    between atoms: C_14  and  C_15
REMARK                            x       y       z     vdW  Elec       q    Type
REMARK                         _______ _______ _______ _____ _____    ______ ____
ROOT
ATOM      1  C   UNL     1       3.504   4.442  19.987  0.00  0.00    +0.000 A 
ATOM      2  C   UNL     1       3.562   3.070  20.306  0.00  0.00    +0.000 A 
ATOM      3  C   UNL     1       2.446   2.382  20.775  0.00  0.00    +0.000 A 
ATOM      4  C   UNL     1       1.243   3.053  20.936  0.00  0.00    +0.000 A 
ATOM      5  C   UNL     1       1.165   4.409  20.614  0.00  0.00    +0.000 A 
ATOM      6  C   UNL     1       2.279   5.128  20.120  0.00  0.00    +0.000 A 
ENDROOT
BRANCH   6   7
ATOM      7  C   UNL     1       2.050   6.516  19.718  0.00  0.00    +0.000 A 
ATOM      8  N   UNL     1       2.295   7.109  18.564  0.00  0.00    +0.000 NA
ATOM      9  C   UNL     1       1.942   8.410  18.781  0.00  0.00    +0.000 A 
ATOM     10  C   UNL     1       2.025   9.541  17.965  0.00  0.00    +0.000 A 
ATOM     11  C   UNL     1       1.535  10.735  18.496  0.00  0.00    +0.000 A 
ATOM     12  C   UNL     1       1.009  10.742  19.788  0.00  0.00    +0.000 A 
ATOM     13  N   UNL     1       0.937   9.678  20.625  0.00  0.00    +0.000 NA
ATOM     14  C   UNL     1       1.421   8.558  20.060  0.00  0.00    +0.000 A 
ATOM     15  O   UNL     1       1.496   7.340  20.671  0.00  0.00    +0.000 OA
ENDBRANCH   6   7
BRANCH   1  16
ATOM     16  O   UNL     1       4.715   4.898  19.530  0.00  0.00    +0.000 OA
BRANCH  16  17
ATOM     17  C   UNL     1       5.455   4.093  18.617  0.00  0.00    +0.000 C 
BRANCH  17  23
ATOM     18 CL   UNL     1       6.064   3.582  13.450  0.00  0.00    +0.000 Cl
ATOM     19  C   UNL     1       5.696   4.531  14.839  0.00  0.00    +0.000 A 
ATOM     20  C   UNL     1       5.431   5.892  14.695  0.00  0.00    +0.000 A 
ATOM     21  C   UNL     1       5.146   6.664  15.821  0.00  0.00    +0.000 A 
ATOM     22  C   UNL     1       5.126   6.070  17.082  0.00  0.00    +0.000 A 
ATOM     23  C   UNL     1       5.394   4.700  17.235  0.00  0.00    +0.000 A 
ATOM     24  C   UNL     1       5.680   3.932  16.098  0.00  0.00    +0.000 A 
ENDBRANCH  17  23
ENDBRANCH  16  17
ENDBRANCH   1  16
TORSDOF 4
ENDMDL
MODEL 9
REMARK VINA RESULT:      -8.1      1.009      1.407
REMARK  Name = 
REMARK  4 active torsions:
REMARK  status: ('A' for Active; 'I' for Inactive)
REMARK    1  A    between atoms: C_6  and  C_7
REMARK    2  A    between atoms: C_7  and  O_8
REMARK    3  A    between atoms: O_8  and  C_9
REMARK    4  A    between atoms: C_14  and  C_15
REMARK                            x       y       z     vdW  Elec       q    Type
REMARK                         _______ _______ _______ _____ _____    ______ ____
ROOT
ATOM      1  C   UNL     1       2.378   4.574  19.670  0.00  0.00    +0.000 A 
ATOM      2  C   UNL     1       1.754   4.279  20.899  0.00  0.00    +0.000 A 
ATOM      3  C   UNL     1       2.137   3.182  21.667  0.00  0.00    +0.000 A 
ATOM      4  C   UNL     1       3.155   2.353  21.220  0.00  0.00    +0.000 A 
ATOM      5  C   UNL     1       3.792   2.637  20.011  0.00  0.00    +0.000 A 
ATOM      6  C   UNL     1       3.434   3.754  19.219  0.00  0.00    +0.000 A 
ENDROOT
BRANCH   6   7
ATOM      7  C   UNL     1       4.241   4.010  18.026  0.00  0.00    +0.000 A 
ATOM      8  N   UNL     1       3.905   3.939  16.752  0.00  0.00    +0.000 NA
ATOM      9  C   UNL     1       5.065   4.220  16.089  0.00  0.00    +0.000 A 
ATOM     10  C   UNL     1       5.370   4.240  14.725  0.00  0.00    +0.000 A 
ATOM     11  C   UNL     1       6.672   4.608  14.381  0.00  0.00    +0.000 A 
ATOM     12  C   UNL     1       7.584   4.918  15.390  0.00  0.00    +0.000 A 
ATOM     13  N   UNL     1       7.340   4.881  16.723  0.00  0.00    +0.000 NA
ATOM     14  C   UNL     1       6.072   4.523  16.994  0.00  0.00    +0.000 A 
ATOM     15  O   UNL     1       5.547   4.381  18.246  0.00  0.00    +0.000 OA
ENDBRANCH   6   7
BRANCH   1  16
ATOM     16  O   UNL     1       1.849   5.707  19.102  0.00  0.00    +0.000 OA
BRANCH  16  17
ATOM     17  C   UNL     1       2.580   6.925  19.186  0.00  0.00    +0.000 C 
BRANCH  17  23
ATOM     18 CL   UNL     1       0.329  11.624  18.760  0.00  0.00    +0.000 Cl
ATOM     19  C   UNL     1       0.671  10.191  19.650  0.00  0.00    +0.000 A 
ATOM     20  C   UNL     1       0.216  10.068  20.963  0.00  0.00    +0.000 A 
ATOM     21  C   UNL     1       0.504   8.913  21.689  0.00  0.00    +0.000 A 
ATOM     22  C   UNL     1       1.244   7.888  21.099  0.00  0.00    +0.000 A 
ATOM     23  C   UNL     1       1.707   8.007  19.778  0.00  0.00    +0.000 A 
ATOM     24  C   UNL     1       1.412   9.170  19.056  0.00  0.00    +0.000 A 
ENDBRANCH  17  23
ENDBRANCH  16  17
ENDBRANCH   1  16
TORSDOF 4
ENDMDL
