MODEL 1
REMARK VINA RESULT:      -8.0      0.000      0.000
REMARK  Name = 
REMARK  7 active torsions:
REMARK  status: ('A' for Active; 'I' for Inactive)
REMARK    1  A    between atoms: C_1  and  C_2
REMARK    2  A    between atoms: C_3  and  C_4
REMARK    3  A    between atoms: N_18  and  C_19
REMARK    4  A    between atoms: C_25  and  O_26
REMARK    5  A    between atoms: O_26  and  C_27
REMARK    6  A    between atoms: C_27  and  C_28
REMARK    7  A    between atoms: C_27  and  C_29
REMARK                            x       y       z     vdW  Elec       q    Type
REMARK                         _______ _______ _______ _____ _____    ______ ____
ROOT
ATOM      1  C   UNL     1      -0.298   8.363  21.418  0.00  0.00    +0.000 C 
ATOM      2  C   UNL     1       0.136   9.693  20.876  0.00  0.00    +0.000 A 
ATOM      3  C   UNL     1      -0.251  10.933  21.404  0.00  0.00    +0.000 A 
ATOM      4  S   UNL     1       0.712  12.187  20.748  0.00  0.00    +0.000 S 
ATOM      5  C   UNL     1       1.263  11.196  19.496  0.00  0.00    +0.000 A 
ATOM      6  N   UNL     1       1.957  11.756  18.495  0.00  0.00    +0.000 NA
ATOM      7  C   UNL     1       2.388  10.861  17.617  0.00  0.00    +0.000 A 
ATOM      8  N   UNL     1       2.251   9.538  17.698  0.00  0.00    +0.000 NA
ATOM      9  C   UNL     1       1.611   8.979  18.761  0.00  0.00    +0.000 A 
ATOM     10  N   UNL     1       1.680   7.569  18.872  0.00  0.00    +0.000 N 
ATOM     11  C   UNL     1       0.987   9.853  19.693  0.00  0.00    +0.000 A 
ATOM     12  H   UNL     1       1.261   7.220  19.725  0.00  0.00    +0.000 HD
ENDROOT
BRANCH   3  13
ATOM     13  C   UNL     1      -1.149  11.221  22.529  0.00  0.00    +0.000 C 
ATOM     14  O   UNL     1      -0.916  10.742  23.640  0.00  0.00    +0.000 OA
ATOM     15  N   UNL     1      -2.283  12.028  22.355  0.00  0.00    +0.000 N 
ATOM     16  C   UNL     1      -2.830  12.604  21.116  0.00  0.00    +0.000 C 
ATOM     17  C   UNL     1      -2.852  14.135  21.232  0.00  0.00    +0.000 C 
ATOM     18  O   UNL     1      -3.638  14.539  22.370  0.00  0.00    +0.000 OA
ATOM     19  C   UNL     1      -3.105  13.988  23.588  0.00  0.00    +0.000 C 
ATOM     20  C   UNL     1      -3.046  12.455  23.532  0.00  0.00    +0.000 C 
ENDBRANCH   3  13
BRANCH  10  21
ATOM     21  C   UNL     1       2.885   6.851  18.613  0.00  0.00    +0.000 A 
ATOM     22  C   UNL     1       3.743   7.306  17.579  0.00  0.00    +0.000 A 
ATOM     23  C   UNL     1       4.965   6.697  17.311  0.00  0.00    +0.000 A 
ATOM     24  C   UNL     1       5.374   5.645  18.106  0.00  0.00    +0.000 A 
ATOM     25  F   UNL     1       6.555   5.060  17.869  0.00  0.00    +0.000 F 
ATOM     26  C   UNL     1       4.577   5.192  19.150  0.00  0.00    +0.000 A 
ATOM     27  C   UNL     1       3.324   5.771  19.402  0.00  0.00    +0.000 A 
BRANCH  27  28
ATOM     28  O   UNL     1       2.682   5.180  20.456  0.00  0.00    +0.000 OA
BRANCH  28  29
ATOM     29  C   UNL     1       2.354   3.789  20.416  0.00  0.00    +0.000 C 
ATOM     30  C   UNL     1       2.147   3.167  21.798  0.00  0.00    +0.000 C 
ATOM     31  C   UNL     1       1.036   3.700  19.639  0.00  0.00    +0.000 C 
ENDBRANCH  28  29
ENDBRANCH  27  28
ENDBRANCH  10  21
TORSDOF 4
ENDMDL
MODEL 2
REMARK VINA RESULT:      -7.9      3.517      8.639
REMARK  Name = 
REMARK  7 active torsions:
REMARK  status: ('A' for Active; 'I' for Inactive)
REMARK    1  A    between atoms: C_1  and  C_2
REMARK    2  A    between atoms: C_3  and  C_4
REMARK    3  A    between atoms: N_18  and  C_19
REMARK    4  A    between atoms: C_25  and  O_26
REMARK    5  A    between atoms: O_26  and  C_27
REMARK    6  A    between atoms: C_27  and  C_28
REMARK    7  A    between atoms: C_27  and  C_29
REMARK                            x       y       z     vdW  Elec       q    Type
REMARK                         _______ _______ _______ _____ _____    ______ ____
ROOT
ATOM      1  C   UNL     1       2.813   8.284  17.338  0.00  0.00    +0.000 C 
ATOM      2  C   UNL     1       2.350   7.797  18.679  0.00  0.00    +0.000 A 
ATOM      3  C   UNL     1       2.736   6.581  19.263  0.00  0.00    +0.000 A 
ATOM      4  S   UNL     1       2.288   6.544  20.914  0.00  0.00    +0.000 S 
ATOM      5  C   UNL     1       1.231   7.847  20.724  0.00  0.00    +0.000 A 
ATOM      6  N   UNL     1       0.406   8.154  21.734  0.00  0.00    +0.000 NA
ATOM      7  C   UNL     1      -0.320   9.234  21.484  0.00  0.00    +0.000 A 
ATOM      8  N   UNL     1      -0.235  10.016  20.408  0.00  0.00    +0.000 NA
ATOM      9  C   UNL     1       0.663   9.736  19.425  0.00  0.00    +0.000 A 
ATOM     10  N   UNL     1       0.828  10.717  18.419  0.00  0.00    +0.000 N 
ATOM     11  C   UNL     1       1.397   8.521  19.525  0.00  0.00    +0.000 A 
ATOM     12  H   UNL     1       1.568  10.491  17.766  0.00  0.00    +0.000 HD
ENDROOT
BRANCH   3  13
ATOM     13  C   UNL     1       3.609   5.532  18.723  0.00  0.00    +0.000 C 
ATOM     14  O   UNL     1       4.833   5.647  18.807  0.00  0.00    +0.000 OA
ATOM     15  N   UNL     1       3.068   4.398  18.098  0.00  0.00    +0.000 N 
ATOM     16  C   UNL     1       1.665   4.100  17.772  0.00  0.00    +0.000 C 
ATOM     17  C   UNL     1       1.238   2.812  18.491  0.00  0.00    +0.000 C 
ATOM     18  O   UNL     1       2.092   1.718  18.107  0.00  0.00    +0.000 OA
ATOM     19  C   UNL     1       3.466   1.996  18.429  0.00  0.00    +0.000 C 
ATOM     20  C   UNL     1       3.954   3.283  17.747  0.00  0.00    +0.000 C 
ENDBRANCH   3  13
BRANCH  10  21
ATOM     21  C   UNL     1       0.881  12.109  18.725  0.00  0.00    +0.000 A 
ATOM     22  C   UNL     1       2.105  12.662  19.182  0.00  0.00    +0.000 A 
ATOM     23  C   UNL     1       2.252  14.022  19.438  0.00  0.00    +0.000 A 
ATOM     24  C   UNL     1       1.185  14.865  19.198  0.00  0.00    +0.000 A 
ATOM     25  F   UNL     1       1.318  16.177  19.424  0.00  0.00    +0.000 F 
ATOM     26  C   UNL     1      -0.020  14.366  18.718  0.00  0.00    +0.000 A 
ATOM     27  C   UNL     1      -0.192  12.991  18.497  0.00  0.00    +0.000 A 
BRANCH  27  28
ATOM     28  O   UNL     1      -1.448  12.692  18.043  0.00  0.00    +0.000 OA
BRANCH  28  29
ATOM     29  C   UNL     1      -2.337  11.903  18.838  0.00  0.00    +0.000 C 
ATOM     30  C   UNL     1      -2.930  12.659  20.028  0.00  0.00    +0.000 C 
ATOM     31  C   UNL     1      -3.479  11.499  17.899  0.00  0.00    +0.000 C 
ENDBRANCH  28  29
ENDBRANCH  27  28
ENDBRANCH  10  21
TORSDOF 4
ENDMDL
MODEL 3
REMARK VINA RESULT:      -7.7      3.061      4.329
REMARK  Name = 
REMARK  7 active torsions:
REMARK  status: ('A' for Active; 'I' for Inactive)
REMARK    1  A    between atoms: C_1  and  C_2
REMARK    2  A    between atoms: C_3  and  C_4
REMARK    3  A    between atoms: N_18  and  C_19
REMARK    4  A    between atoms: C_25  and  O_26
REMARK    5  A    between atoms: O_26  and  C_27
REMARK    6  A    between atoms: C_27  and  C_28
REMARK    7  A    between atoms: C_27  and  C_29
REMARK                            x       y       z     vdW  Elec       q    Type
REMARK                         _______ _______ _______ _____ _____    ______ ____
ROOT
ATOM      1  C   UNL     1       2.228  10.532  17.753  0.00  0.00    +0.000 C 
ATOM      2  C   UNL     1       1.236  10.419  18.873  0.00  0.00    +0.000 A 
ATOM      3  C   UNL     1       0.318  11.419  19.228  0.00  0.00    +0.000 A 
ATOM      4  S   UNL     1      -0.857  10.793  20.303  0.00  0.00    +0.000 S 
ATOM      5  C   UNL     1       0.083   9.431  20.642  0.00  0.00    +0.000 A 
ATOM      6  N   UNL     1      -0.297   8.624  21.642  0.00  0.00    +0.000 NA
ATOM      7  C   UNL     1       0.485   7.560  21.758  0.00  0.00    +0.000 A 
ATOM      8  N   UNL     1       1.499   7.230  20.959  0.00  0.00    +0.000 NA
ATOM      9  C   UNL     1       1.824   8.019  19.900  0.00  0.00    +0.000 A 
ATOM     10  N   UNL     1       2.778   7.500  18.991  0.00  0.00    +0.000 N 
ATOM     11  C   UNL     1       1.139   9.258  19.763  0.00  0.00    +0.000 A 
ATOM     12  H   UNL     1       2.914   8.093  18.182  0.00  0.00    +0.000 HD
ENDROOT
BRANCH   3  13
ATOM     13  C   UNL     1       0.135  12.755  18.649  0.00  0.00    +0.000 C 
ATOM     14  O   UNL     1      -0.742  12.944  17.804  0.00  0.00    +0.000 OA
ATOM     15  N   UNL     1       0.956  13.824  19.036  0.00  0.00    +0.000 N 
ATOM     16  C   UNL     1       2.132  13.817  19.921  0.00  0.00    +0.000 C 
ATOM     17  C   UNL     1       1.873  14.743  21.119  0.00  0.00    +0.000 C 
ATOM     18  O   UNL     1       1.587  16.080  20.666  0.00  0.00    +0.000 OA
ATOM     19  C   UNL     1       0.432  16.099  19.806  0.00  0.00    +0.000 C 
ATOM     20  C   UNL     1       0.623  15.181  18.590  0.00  0.00    +0.000 C 
ENDBRANCH   3  13
BRANCH  10  21
ATOM     21  C   UNL     1       2.759   6.136  18.576  0.00  0.00    +0.000 A 
ATOM     22  C   UNL     1       1.565   5.607  18.023  0.00  0.00    +0.000 A 
ATOM     23  C   UNL     1       1.489   4.305  17.535  0.00  0.00    +0.000 A 
ATOM     24  C   UNL     1       2.624   3.520  17.553  0.00  0.00    +0.000 A 
ATOM     25  F   UNL     1       2.570   2.272  17.073  0.00  0.00    +0.000 F 
ATOM     26  C   UNL     1       3.822   4.014  18.057  0.00  0.00    +0.000 A 
ATOM     27  C   UNL     1       3.899   5.310  18.589  0.00  0.00    +0.000 A 
BRANCH  27  28
ATOM     28  O   UNL     1       5.152   5.608  19.050  0.00  0.00    +0.000 OA
BRANCH  28  29
ATOM     29  C   UNL     1       6.263   5.649  18.150  0.00  0.00    +0.000 C 
ATOM     30  C   UNL     1       6.259   6.868  17.226  0.00  0.00    +0.000 C 
ATOM     31  C   UNL     1       7.509   5.716  19.039  0.00  0.00    +0.000 C 
ENDBRANCH  28  29
ENDBRANCH  27  28
ENDBRANCH  10  21
TORSDOF 4
ENDMDL
MODEL 4
REMARK VINA RESULT:      -7.4      3.593      8.814
REMARK  Name = 
REMARK  7 active torsions:
REMARK  status: ('A' for Active; 'I' for Inactive)
REMARK    1  A    between atoms: C_1  and  C_2
REMARK    2  A    between atoms: C_3  and  C_4
REMARK    3  A    between atoms: N_18  and  C_19
REMARK    4  A    between atoms: C_25  and  O_26
REMARK    5  A    between atoms: O_26  and  C_27
REMARK    6  A    between atoms: C_27  and  C_28
REMARK    7  A    between atoms: C_27  and  C_29
REMARK                            x       y       z     vdW  Elec       q    Type
REMARK                         _______ _______ _______ _____ _____    ______ ____
ROOT
ATOM      1  C   UNL     1       3.152   7.875  16.689  0.00  0.00    +0.000 C 
ATOM      2  C   UNL     1       2.811   7.312  18.037  0.00  0.00    +0.000 A 
ATOM      3  C   UNL     1       3.213   6.050  18.498  0.00  0.00    +0.000 A 
ATOM      4  S   UNL     1       2.934   5.914  20.181  0.00  0.00    +0.000 S 
ATOM      5  C   UNL     1       1.908   7.255  20.186  0.00  0.00    +0.000 A 
ATOM      6  N   UNL     1       1.201   7.516  21.294  0.00  0.00    +0.000 NA
ATOM      7  C   UNL     1       0.491   8.630  21.190  0.00  0.00    +0.000 A 
ATOM      8  N   UNL     1       0.493   9.480  20.163  0.00  0.00    +0.000 NA
ATOM      9  C   UNL     1       1.276   9.242  19.076  0.00  0.00    +0.000 A 
ATOM     10  N   UNL     1       1.372  10.284  18.124  0.00  0.00    +0.000 N 
ATOM     11  C   UNL     1       1.974   8.004  19.022  0.00  0.00    +0.000 A 
ATOM     12  H   UNL     1       2.034  10.083  17.384  0.00  0.00    +0.000 HD
ENDROOT
BRANCH   3  13
ATOM     13  C   UNL     1       3.990   5.016  17.804  0.00  0.00    +0.000 C 
ATOM     14  O   UNL     1       3.426   4.011  17.368  0.00  0.00    +0.000 OA
ATOM     15  N   UNL     1       5.377   5.149  17.639  0.00  0.00    +0.000 N 
ATOM     16  C   UNL     1       6.279   6.182  18.172  0.00  0.00    +0.000 C 
ATOM     17  C   UNL     1       6.966   6.909  17.007  0.00  0.00    +0.000 C 
ATOM     18  O   UNL     1       7.694   5.972  16.192  0.00  0.00    +0.000 OA
ATOM     19  C   UNL     1       6.818   4.962  15.658  0.00  0.00    +0.000 C 
ATOM     20  C   UNL     1       6.090   4.202  16.776  0.00  0.00    +0.000 C 
ENDBRANCH   3  13
BRANCH  10  21
ATOM     21  C   UNL     1       1.504  11.650  18.511  0.00  0.00    +0.000 A 
ATOM     22  C   UNL     1       2.712  12.331  18.215  0.00  0.00    +0.000 A 
ATOM     23  C   UNL     1       2.890  13.681  18.502  0.00  0.00    +0.000 A 
ATOM     24  C   UNL     1       1.841  14.389  19.054  0.00  0.00    +0.000 A 
ATOM     25  F   UNL     1       1.993  15.691  19.321  0.00  0.00    +0.000 F 
ATOM     26  C   UNL     1       0.630  13.765  19.328  0.00  0.00    +0.000 A 
ATOM     27  C   UNL     1       0.454  12.395  19.081  0.00  0.00    +0.000 A 
BRANCH  27  28
ATOM     28  O   UNL     1      -0.796  11.961  19.431  0.00  0.00    +0.000 OA
BRANCH  28  29
ATOM     29  C   UNL     1      -1.862  11.984  18.479  0.00  0.00    +0.000 C 
ATOM     30  C   UNL     1      -2.008  10.682  17.690  0.00  0.00    +0.000 C 
ATOM     31  C   UNL     1      -3.139  12.203  19.298  0.00  0.00    +0.000 C 
ENDBRANCH  28  29
ENDBRANCH  27  28
ENDBRANCH  10  21
TORSDOF 4
ENDMDL
MODEL 5
REMARK VINA RESULT:      -7.4      7.190      8.710
REMARK  Name = 
REMARK  7 active torsions:
REMARK  status: ('A' for Active; 'I' for Inactive)
REMARK    1  A    between atoms: C_1  and  C_2
REMARK    2  A    between atoms: C_3  and  C_4
REMARK    3  A    between atoms: N_18  and  C_19
REMARK    4  A    between atoms: C_25  and  O_26
REMARK    5  A    between atoms: O_26  and  C_27
REMARK    6  A    between atoms: C_27  and  C_28
REMARK    7  A    between atoms: C_27  and  C_29
REMARK                            x       y       z     vdW  Elec       q    Type
REMARK                         _______ _______ _______ _____ _____    ______ ____
ROOT
ATOM      1  C   UNL     1       4.804  14.674  17.900  0.00  0.00    +0.000 C 
ATOM      2  C   UNL     1       5.282  15.850  18.700  0.00  0.00    +0.000 A 
ATOM      3  C   UNL     1       4.441  16.792  19.311  0.00  0.00    +0.000 A 
ATOM      4  S   UNL     1       5.331  17.761  20.406  0.00  0.00    +0.000 S 
ATOM      5  C   UNL     1       6.805  17.275  19.740  0.00  0.00    +0.000 A 
ATOM      6  N   UNL     1       7.920  17.915  20.120  0.00  0.00    +0.000 NA
ATOM      7  C   UNL     1       9.011  17.394  19.578  0.00  0.00    +0.000 A 
ATOM      8  N   UNL     1       9.073  16.313  18.800  0.00  0.00    +0.000 NA
ATOM      9  C   UNL     1       7.940  15.627  18.487  0.00  0.00    +0.000 A 
ATOM     10  N   UNL     1       8.112  14.387  17.827  0.00  0.00    +0.000 N 
ATOM     11  C   UNL     1       6.696  16.179  18.901  0.00  0.00    +0.000 A 
ATOM     12  H   UNL     1       7.242  13.886  17.697  0.00  0.00    +0.000 HD
ENDROOT
BRANCH   3  13
ATOM     13  C   UNL     1       2.976  16.875  19.292  0.00  0.00    +0.000 C 
ATOM     14  O   UNL     1       2.418  17.735  18.610  0.00  0.00    +0.000 OA
ATOM     15  N   UNL     1       2.197  15.990  20.053  0.00  0.00    +0.000 N 
ATOM     16  C   UNL     1       2.629  14.974  21.025  0.00  0.00    +0.000 C 
ATOM     17  C   UNL     1       2.154  13.590  20.560  0.00  0.00    +0.000 C 
ATOM     18  O   UNL     1       0.721  13.575  20.415  0.00  0.00    +0.000 OA
ATOM     19  C   UNL     1       0.288  14.560  19.458  0.00  0.00    +0.000 C 
ATOM     20  C   UNL     1       0.743  15.971  19.861  0.00  0.00    +0.000 C 
ENDBRANCH   3  13
BRANCH  10  21
ATOM     21  C   UNL     1       9.133  13.466  18.206  0.00  0.00    +0.000 A 
ATOM     22  C   UNL     1      10.122  13.113  17.253  0.00  0.00    +0.000 A 
ATOM     23  C   UNL     1      11.186  12.273  17.568  0.00  0.00    +0.000 A 
ATOM     24  C   UNL     1      11.304  11.803  18.861  0.00  0.00    +0.000 A 
ATOM     25  F   UNL     1      12.330  11.007  19.182  0.00  0.00    +0.000 F 
ATOM     26  C   UNL     1      10.373  12.154  19.832  0.00  0.00    +0.000 A 
ATOM     27  C   UNL     1       9.273  12.966  19.514  0.00  0.00    +0.000 A 
BRANCH  27  28
ATOM     28  O   UNL     1       8.462  13.186  20.593  0.00  0.00    +0.000 OA
BRANCH  28  29
ATOM     29  C   UNL     1       9.021  13.326  21.902  0.00  0.00    +0.000 C 
ATOM     30  C   UNL     1       9.220  14.781  22.332  0.00  0.00    +0.000 C 
ATOM     31  C   UNL     1       8.012  12.671  22.852  0.00  0.00    +0.000 C 
ENDBRANCH  28  29
ENDBRANCH  27  28
ENDBRANCH  10  21
TORSDOF 4
ENDMDL
MODEL 6
REMARK VINA RESULT:      -7.2      2.765      4.492
REMARK  Name = 
REMARK  7 active torsions:
REMARK  status: ('A' for Active; 'I' for Inactive)
REMARK    1  A    between atoms: C_1  and  C_2
REMARK    2  A    between atoms: C_3  and  C_4
REMARK    3  A    between atoms: N_18  and  C_19
REMARK    4  A    between atoms: C_25  and  O_26
REMARK    5  A    between atoms: O_26  and  C_27
REMARK    6  A    between atoms: C_27  and  C_28
REMARK    7  A    between atoms: C_27  and  C_29
REMARK                            x       y       z     vdW  Elec       q    Type
REMARK                         _______ _______ _______ _____ _____    ______ ____
ROOT
ATOM      1  C   UNL     1      -2.162  13.094  19.636  0.00  0.00    +0.000 C 
ATOM      2  C   UNL     1      -0.944  13.968  19.694  0.00  0.00    +0.000 A 
ATOM      3  C   UNL     1      -0.934  15.290  20.164  0.00  0.00    +0.000 A 
ATOM      4  S   UNL     1       0.675  15.825  20.400  0.00  0.00    +0.000 S 
ATOM      5  C   UNL     1       1.302  14.555  19.480  0.00  0.00    +0.000 A 
ATOM      6  N   UNL     1       2.601  14.584  19.152  0.00  0.00    +0.000 NA
ATOM      7  C   UNL     1       2.980  13.500  18.491  0.00  0.00    +0.000 A 
ATOM      8  N   UNL     1       2.228  12.433  18.218  0.00  0.00    +0.000 NA
ATOM      9  C   UNL     1       0.931  12.385  18.627  0.00  0.00    +0.000 A 
ATOM     10  N   UNL     1       0.264  11.146  18.474  0.00  0.00    +0.000 N 
ATOM     11  C   UNL     1       0.381  13.553  19.223  0.00  0.00    +0.000 A 
ATOM     12  H   UNL     1      -0.667  11.148  18.872  0.00  0.00    +0.000 HD
ENDROOT
BRANCH   3  13
ATOM     13  C   UNL     1      -2.051  16.107  20.651  0.00  0.00    +0.000 C 
ATOM     14  O   UNL     1      -2.520  16.996  19.938  0.00  0.00    +0.000 OA
ATOM     15  N   UNL     1      -2.589  15.899  21.930  0.00  0.00    +0.000 N 
ATOM     16  C   UNL     1      -2.124  14.996  22.995  0.00  0.00    +0.000 C 
ATOM     17  C   UNL     1      -3.238  13.994  23.334  0.00  0.00    +0.000 C 
ATOM     18  O   UNL     1      -4.430  14.691  23.743  0.00  0.00    +0.000 OA
ATOM     19  C   UNL     1      -4.898  15.570  22.704  0.00  0.00    +0.000 C 
ATOM     20  C   UNL     1      -3.823  16.594  22.310  0.00  0.00    +0.000 C 
ENDBRANCH   3  13
BRANCH  10  21
ATOM     21  C   UNL     1       0.900   9.905  18.773  0.00  0.00    +0.000 A 
ATOM     22  C   UNL     1       1.867   9.398  17.868  0.00  0.00    +0.000 A 
ATOM     23  C   UNL     1       2.577   8.229  18.123  0.00  0.00    +0.000 A 
ATOM     24  C   UNL     1       2.363   7.565  19.315  0.00  0.00    +0.000 A 
ATOM     25  F   UNL     1       3.050   6.448  19.580  0.00  0.00    +0.000 F 
ATOM     26  C   UNL     1       1.447   8.049  20.242  0.00  0.00    +0.000 A 
ATOM     27  C   UNL     1       0.696   9.204  19.976  0.00  0.00    +0.000 A 
BRANCH  27  28
ATOM     28  O   UNL     1      -0.162   9.511  20.997  0.00  0.00    +0.000 OA
BRANCH  28  29
ATOM     29  C   UNL     1       0.290  10.282  22.113  0.00  0.00    +0.000 C 
ATOM     30  C   UNL     1      -0.461  11.603  22.289  0.00  0.00    +0.000 C 
ATOM     31  C   UNL     1       0.034   9.408  23.346  0.00  0.00    +0.000 C 
ENDBRANCH  28  29
ENDBRANCH  27  28
ENDBRANCH  10  21
TORSDOF 4
ENDMDL
MODEL 7
REMARK VINA RESULT:      -7.1      5.676      8.705
REMARK  Name = 
REMARK  7 active torsions:
REMARK  status: ('A' for Active; 'I' for Inactive)
REMARK    1  A    between atoms: C_1  and  C_2
REMARK    2  A    between atoms: C_3  and  C_4
REMARK    3  A    between atoms: N_18  and  C_19
REMARK    4  A    between atoms: C_25  and  O_26
REMARK    5  A    between atoms: O_26  and  C_27
REMARK    6  A    between atoms: C_27  and  C_28
REMARK    7  A    between atoms: C_27  and  C_29
REMARK                            x       y       z     vdW  Elec       q    Type
REMARK                         _______ _______ _______ _____ _____    ______ ____
ROOT
ATOM      1  C   UNL     1      -0.123  15.578  18.778  0.00  0.00    +0.000 C 
ATOM      2  C   UNL     1       0.704  14.576  19.529  0.00  0.00    +0.000 A 
ATOM      3  C   UNL     1       2.017  14.798  19.971  0.00  0.00    +0.000 A 
ATOM      4  S   UNL     1       2.487  13.578  21.075  0.00  0.00    +0.000 S 
ATOM      5  C   UNL     1       1.209  12.575  20.613  0.00  0.00    +0.000 A 
ATOM      6  N   UNL     1       1.194  11.311  21.058  0.00  0.00    +0.000 NA
ATOM      7  C   UNL     1       0.107  10.655  20.680  0.00  0.00    +0.000 A 
ATOM      8  N   UNL     1      -0.926  11.153  20.002  0.00  0.00    +0.000 NA
ATOM      9  C   UNL     1      -0.932  12.460  19.623  0.00  0.00    +0.000 A 
ATOM     10  N   UNL     1      -2.142  12.959  19.085  0.00  0.00    +0.000 N 
ATOM     11  C   UNL     1       0.247  13.222  19.855  0.00  0.00    +0.000 A 
ATOM     12  H   UNL     1      -2.112  13.954  18.902  0.00  0.00    +0.000 HD
ENDROOT
BRANCH   3  13
ATOM     13  C   UNL     1       2.868  15.979  19.787  0.00  0.00    +0.000 C 
ATOM     14  O   UNL     1       2.687  16.981  20.482  0.00  0.00    +0.000 OA
ATOM     15  N   UNL     1       3.883  15.990  18.819  0.00  0.00    +0.000 N 
ATOM     16  C   UNL     1       4.205  14.976  17.802  0.00  0.00    +0.000 C 
ATOM     17  C   UNL     1       5.640  14.476  18.019  0.00  0.00    +0.000 C 
ATOM     18  O   UNL     1       6.569  15.574  17.953  0.00  0.00    +0.000 OA
ATOM     19  C   UNL     1       6.268  16.568  18.950  0.00  0.00    +0.000 C 
ATOM     20  C   UNL     1       4.837  17.103  18.794  0.00  0.00    +0.000 C 
ENDBRANCH   3  13
BRANCH  10  21
ATOM     21  C   UNL     1      -3.411  12.623  19.643  0.00  0.00    +0.000 A 
ATOM     22  C   UNL     1      -3.675  12.967  20.994  0.00  0.00    +0.000 A 
ATOM     23  C   UNL     1      -4.911  12.732  21.589  0.00  0.00    +0.000 A 
ATOM     24  C   UNL     1      -5.924  12.185  20.827  0.00  0.00    +0.000 A 
ATOM     25  F   UNL     1      -7.122  11.967  21.381  0.00  0.00    +0.000 F 
ATOM     26  C   UNL     1      -5.714  11.865  19.490  0.00  0.00    +0.000 A 
ATOM     27  C   UNL     1      -4.459  12.059  18.893  0.00  0.00    +0.000 A 
BRANCH  27  28
ATOM     28  O   UNL     1      -4.444  11.670  17.581  0.00  0.00    +0.000 OA
BRANCH  28  29
ATOM     29  C   UNL     1      -3.324  10.957  17.051  0.00  0.00    +0.000 C 
ATOM     30  C   UNL     1      -3.184   9.537  17.602  0.00  0.00    +0.000 C 
ATOM     31  C   UNL     1      -3.569  10.871  15.540  0.00  0.00    +0.000 C 
ENDBRANCH  28  29
ENDBRANCH  27  28
ENDBRANCH  10  21
TORSDOF 4
ENDMDL
MODEL 8
REMARK VINA RESULT:      -7.0      2.910      4.599
REMARK  Name = 
REMARK  7 active torsions:
REMARK  status: ('A' for Active; 'I' for Inactive)
REMARK    1  A    between atoms: C_1  and  C_2
REMARK    2  A    between atoms: C_3  and  C_4
REMARK    3  A    between atoms: N_18  and  C_19
REMARK    4  A    between atoms: C_25  and  O_26
REMARK    5  A    between atoms: O_26  and  C_27
REMARK    6  A    between atoms: C_27  and  C_28
REMARK    7  A    between atoms: C_27  and  C_29
REMARK                            x       y       z     vdW  Elec       q    Type
REMARK                         _______ _______ _______ _____ _____    ______ ____
ROOT
ATOM      1  C   UNL     1       2.170  10.626  18.243  0.00  0.00    +0.000 C 
ATOM      2  C   UNL     1       1.138  10.768  19.322  0.00  0.00    +0.000 A 
ATOM      3  C   UNL     1       0.337  11.903  19.515  0.00  0.00    +0.000 A 
ATOM      4  S   UNL     1      -0.939  11.555  20.602  0.00  0.00    +0.000 S 
ATOM      5  C   UNL     1      -0.181  10.145  21.141  0.00  0.00    +0.000 A 
ATOM      6  N   UNL     1      -0.687   9.516  22.211  0.00  0.00    +0.000 NA
ATOM      7  C   UNL     1      -0.044   8.391  22.487  0.00  0.00    +0.000 A 
ATOM      8  N   UNL     1       0.948   7.849  21.779  0.00  0.00    +0.000 NA
ATOM      9  C   UNL     1       1.398   8.459  20.650  0.00  0.00    +0.000 A 
ATOM     10  N   UNL     1       2.309   7.725  19.853  0.00  0.00    +0.000 N 
ATOM     11  C   UNL     1       0.873   9.744  20.337  0.00  0.00    +0.000 A 
ATOM     12  H   UNL     1       2.542   8.194  18.987  0.00  0.00    +0.000 HD
ENDROOT
BRANCH   3  13
ATOM     13  C   UNL     1       0.335  13.171  18.774  0.00  0.00    +0.000 C 
ATOM     14  O   UNL     1      -0.496  13.362  17.885  0.00  0.00    +0.000 OA
ATOM     15  N   UNL     1       1.278  14.170  19.058  0.00  0.00    +0.000 N 
ATOM     16  C   UNL     1       2.428  14.126  19.975  0.00  0.00    +0.000 C 
ATOM     17  C   UNL     1       2.267  15.216  21.045  0.00  0.00    +0.000 C 
ATOM     18  O   UNL     1       2.161  16.512  20.426  0.00  0.00    +0.000 OA
ATOM     19  C   UNL     1       1.034  16.568  19.533  0.00  0.00    +0.000 C 
ATOM     20  C   UNL     1       1.128  15.492  18.442  0.00  0.00    +0.000 C 
ENDBRANCH   3  13
BRANCH  10  21
ATOM     21  C   UNL     1       2.138   6.332  19.602  0.00  0.00    +0.000 A 
ATOM     22  C   UNL     1       1.316   5.576  20.475  0.00  0.00    +0.000 A 
ATOM     23  C   UNL     1       1.048   4.228  20.258  0.00  0.00    +0.000 A 
ATOM     24  C   UNL     1       1.566   3.619  19.132  0.00  0.00    +0.000 A 
ATOM     25  F   UNL     1       1.304   2.327  18.902  0.00  0.00    +0.000 F 
ATOM     26  C   UNL     1       2.350   4.335  18.234  0.00  0.00    +0.000 A 
ATOM     27  C   UNL     1       2.660   5.683  18.467  0.00  0.00    +0.000 A 
BRANCH  27  28
ATOM     28  O   UNL     1       3.454   6.209  17.484  0.00  0.00    +0.000 OA
BRANCH  28  29
ATOM     29  C   UNL     1       4.653   5.539  17.087  0.00  0.00    +0.000 C 
ATOM     30  C   UNL     1       5.205   6.014  15.742  0.00  0.00    +0.000 C 
ATOM     31  C   UNL     1       5.682   5.859  18.176  0.00  0.00    +0.000 C 
ENDBRANCH  28  29
ENDBRANCH  27  28
ENDBRANCH  10  21
TORSDOF 4
ENDMDL
MODEL 9
REMARK VINA RESULT:      -7.0      5.543      8.401
REMARK  Name = 
REMARK  7 active torsions:
REMARK  status: ('A' for Active; 'I' for Inactive)
REMARK    1  A    between atoms: C_1  and  C_2
REMARK    2  A    between atoms: C_3  and  C_4
REMARK    3  A    between atoms: N_18  and  C_19
REMARK    4  A    between atoms: C_25  and  O_26
REMARK    5  A    between atoms: O_26  and  C_27
REMARK    6  A    between atoms: C_27  and  C_28
REMARK    7  A    between atoms: C_27  and  C_29
REMARK                            x       y       z     vdW  Elec       q    Type
REMARK                         _______ _______ _______ _____ _____    ______ ____
ROOT
ATOM      1  C   UNL     1      -0.187  15.295  18.536  0.00  0.00    +0.000 C 
ATOM      2  C   UNL     1       0.558  14.227  19.280  0.00  0.00    +0.000 A 
ATOM      3  C   UNL     1       1.767  14.428  19.963  0.00  0.00    +0.000 A 
ATOM      4  S   UNL     1       2.116  13.083  20.963  0.00  0.00    +0.000 S 
ATOM      5  C   UNL     1       0.988  12.113  20.164  0.00  0.00    +0.000 A 
ATOM      6  N   UNL     1       0.969  10.800  20.433  0.00  0.00    +0.000 NA
ATOM      7  C   UNL     1      -0.004  10.168  19.794  0.00  0.00    +0.000 A 
ATOM      8  N   UNL     1      -0.938  10.722  19.020  0.00  0.00    +0.000 NA
ATOM      9  C   UNL     1      -0.953  12.067  18.819  0.00  0.00    +0.000 A 
ATOM     10  N   UNL     1      -2.084  12.596  18.152  0.00  0.00    +0.000 N 
ATOM     11  C   UNL     1       0.129  12.827  19.345  0.00  0.00    +0.000 A 
ATOM     12  H   UNL     1      -2.078  13.608  18.108  0.00  0.00    +0.000 HD
ENDROOT
BRANCH   3  13
ATOM     13  C   UNL     1       2.571  15.650  20.082  0.00  0.00    +0.000 C 
ATOM     14  O   UNL     1       2.334  16.457  20.982  0.00  0.00    +0.000 OA
ATOM     15  N   UNL     1       3.604  15.921  19.172  0.00  0.00    +0.000 N 
ATOM     16  C   UNL     1       3.990  15.182  17.960  0.00  0.00    +0.000 C 
ATOM     17  C   UNL     1       5.440  14.698  18.099  0.00  0.00    +0.000 C 
ATOM     18  O   UNL     1       6.323  15.815  18.314  0.00  0.00    +0.000 OA
ATOM     19  C   UNL     1       5.960  16.540  19.504  0.00  0.00    +0.000 C 
ATOM     20  C   UNL     1       4.511  17.044  19.433  0.00  0.00    +0.000 C 
ENDBRANCH   3  13
BRANCH  10  21
ATOM     21  C   UNL     1      -3.406  12.146  18.439  0.00  0.00    +0.000 A 
ATOM     22  C   UNL     1      -3.907  12.293  19.758  0.00  0.00    +0.000 A 
ATOM     23  C   UNL     1      -5.209  11.939  20.098  0.00  0.00    +0.000 A 
ATOM     24  C   UNL     1      -6.052  11.470  19.110  0.00  0.00    +0.000 A 
ATOM     25  F   UNL     1      -7.311  11.140  19.420  0.00  0.00    +0.000 F 
ATOM     26  C   UNL     1      -5.608  11.343  17.799  0.00  0.00    +0.000 A 
ATOM     27  C   UNL     1      -4.285  11.657  17.454  0.00  0.00    +0.000 A 
BRANCH  27  28
ATOM     28  O   UNL     1      -4.034  11.452  16.125  0.00  0.00    +0.000 OA
BRANCH  28  29
ATOM     29  C   UNL     1      -2.981  10.576  15.714  0.00  0.00    +0.000 C 
ATOM     30  C   UNL     1      -2.835   9.336  16.597  0.00  0.00    +0.000 C 
ATOM     31  C   UNL     1      -3.351  10.125  14.297  0.00  0.00    +0.000 C 
ENDBRANCH  28  29
ENDBRANCH  27  28
ENDBRANCH  10  21
TORSDOF 4
ENDMDL
