MODEL 1
REMARK VINA RESULT:      -7.1      0.000      0.000
REMARK  Name = 
REMARK  6 active torsions:
REMARK  status: ('A' for Active; 'I' for Inactive)
REMARK    1  A    between atoms: C_1  and  C_2
REMARK    2  A    between atoms: C_2  and  O_3
REMARK    3  A    between atoms: O_3  and  C_4
REMARK    4  A    between atoms: C_4  and  C_6
REMARK    5  A    between atoms: N_9  and  C_10
REMARK    6  A    between atoms: C_16  and  N_17
REMARK                            x       y       z     vdW  Elec       q    Type
REMARK                         _______ _______ _______ _____ _____    ______ ____
ROOT
ATOM      1  C   UNL     1       2.942   3.887  17.903  0.00  0.00    +0.000 A 
ATOM      2  C   UNL     1       3.972   3.101  17.351  0.00  0.00    +0.000 A 
ATOM      3  N   UNL     1       5.111   3.773  17.187  0.00  0.00    +0.000 NA
ATOM      4  N   UNL     1       4.884   4.983  17.772  0.00  0.00    +0.000 N 
ATOM      5  C   UNL     1       3.548   5.115  18.125  0.00  0.00    +0.000 A 
ENDROOT
BRANCH   4   6
ATOM      6  C   UNL     1       5.988   5.852  18.018  0.00  0.00    +0.000 A 
ATOM      7  C   UNL     1       6.882   5.547  19.053  0.00  0.00    +0.000 A 
ATOM      8  C   UNL     1       8.038   6.314  19.224  0.00  0.00    +0.000 A 
ATOM      9  C   UNL     1       8.290   7.402  18.388  0.00  0.00    +0.000 A 
ATOM     10  C   UNL     1       7.366   7.754  17.408  0.00  0.00    +0.000 A 
ATOM     11  C   UNL     1       6.208   6.995  17.236  0.00  0.00    +0.000 A 
ENDBRANCH   4   6
BRANCH   5  12
ATOM     12  N   UNL     1       2.949   6.290  18.580  0.00  0.00    +0.000 N 
ATOM     13  C   UNL     1       2.544   6.564  19.873  0.00  0.00    +0.000 A 
ATOM     14  C   UNL     1       1.952   7.806  19.915  0.00  0.00    +0.000 A 
ATOM     15  C   UNL     1       2.017   8.338  18.613  0.00  0.00    +0.000 A 
ATOM     16  C   UNL     1       2.634   7.398  17.819  0.00  0.00    +0.000 A 
ENDBRANCH   5  12
BRANCH   1  17
ATOM     17  C   UNL     1       1.557   3.519  18.094  0.00  0.00    +0.000 C 
ATOM     18  O   UNL     1       0.632   3.960  17.427  0.00  0.00    +0.000 OA
BRANCH  17  19
ATOM     19  O   UNL     1       1.394   2.694  19.170  0.00  0.00    +0.000 OA
BRANCH  19  21
ATOM     20  C   UNL     1       2.019   2.997  21.451  0.00  0.00    +0.000 C 
ATOM     21  C   UNL     1       1.009   3.367  20.378  0.00  0.00    +0.000 C 
ENDBRANCH  19  21
ENDBRANCH  17  19
ENDBRANCH   1  17
TORSDOF 5
ENDMDL
MODEL 2
REMARK VINA RESULT:      -7.0      0.181      1.069
REMARK  Name = 
REMARK  6 active torsions:
REMARK  status: ('A' for Active; 'I' for Inactive)
REMARK    1  A    between atoms: C_1  and  C_2
REMARK    2  A    between atoms: C_2  and  O_3
REMARK    3  A    between atoms: O_3  and  C_4
REMARK    4  A    between atoms: C_4  and  C_6
REMARK    5  A    between atoms: N_9  and  C_10
REMARK    6  A    between atoms: C_16  and  N_17
REMARK                            x       y       z     vdW  Elec       q    Type
REMARK                         _______ _______ _______ _____ _____    ______ ____
ROOT
ATOM      1  C   UNL     1       2.999   3.819  17.791  0.00  0.00    +0.000 A 
ATOM      2  C   UNL     1       3.998   3.013  17.212  0.00  0.00    +0.000 A 
ATOM      3  N   UNL     1       5.147   3.661  17.022  0.00  0.00    +0.000 NA
ATOM      4  N   UNL     1       4.960   4.873  17.617  0.00  0.00    +0.000 N 
ATOM      5  C   UNL     1       3.637   5.032  18.002  0.00  0.00    +0.000 A 
ENDROOT
BRANCH   4   6
ATOM      6  C   UNL     1       6.089   5.717  17.839  0.00  0.00    +0.000 A 
ATOM      7  C   UNL     1       6.244   6.872  17.061  0.00  0.00    +0.000 A 
ATOM      8  C   UNL     1       7.270   7.776  17.351  0.00  0.00    +0.000 A 
ATOM      9  C   UNL     1       8.161   7.517  18.393  0.00  0.00    +0.000 A 
ATOM     10  C   UNL     1       8.056   6.333  19.119  0.00  0.00    +0.000 A 
ATOM     11  C   UNL     1       7.037   5.425  18.830  0.00  0.00    +0.000 A 
ENDBRANCH   4   6
BRANCH   5  12
ATOM     12  N   UNL     1       3.074   6.218  18.475  0.00  0.00    +0.000 N 
ATOM     13  C   UNL     1       2.642   6.472  19.764  0.00  0.00    +0.000 A 
ATOM     14  C   UNL     1       2.102   7.736  19.826  0.00  0.00    +0.000 A 
ATOM     15  C   UNL     1       2.230   8.303  18.543  0.00  0.00    +0.000 A 
ATOM     16  C   UNL     1       2.830   7.360  17.739  0.00  0.00    +0.000 A 
ENDBRANCH   5  12
BRANCH   1  17
ATOM     17  C   UNL     1       1.611   3.480  18.015  0.00  0.00    +0.000 C 
ATOM     18  O   UNL     1       0.678   3.969  17.395  0.00  0.00    +0.000 OA
BRANCH  17  19
ATOM     19  O   UNL     1       1.461   2.620  19.065  0.00  0.00    +0.000 OA
BRANCH  19  21
ATOM     20  C   UNL     1       1.956   2.960  21.373  0.00  0.00    +0.000 C 
ATOM     21  C   UNL     1       0.956   3.232  20.262  0.00  0.00    +0.000 C 
ENDBRANCH  19  21
ENDBRANCH  17  19
ENDBRANCH   1  17
TORSDOF 5
ENDMDL
MODEL 3
REMARK VINA RESULT:      -6.8      2.044      5.229
REMARK  Name = 
REMARK  6 active torsions:
REMARK  status: ('A' for Active; 'I' for Inactive)
REMARK    1  A    between atoms: C_1  and  C_2
REMARK    2  A    between atoms: C_2  and  O_3
REMARK    3  A    between atoms: O_3  and  C_4
REMARK    4  A    between atoms: C_4  and  C_6
REMARK    5  A    between atoms: N_9  and  C_10
REMARK    6  A    between atoms: C_16  and  N_17
REMARK                            x       y       z     vdW  Elec       q    Type
REMARK                         _______ _______ _______ _____ _____    ______ ____
ROOT
ATOM      1  C   UNL     1       4.326   5.602  17.826  0.00  0.00    +0.000 A 
ATOM      2  C   UNL     1       4.572   6.824  17.170  0.00  0.00    +0.000 A 
ATOM      3  N   UNL     1       3.670   7.762  17.458  0.00  0.00    +0.000 NA
ATOM      4  N   UNL     1       2.894   7.206  18.431  0.00  0.00    +0.000 N 
ATOM      5  C   UNL     1       3.206   5.865  18.602  0.00  0.00    +0.000 A 
ENDROOT
BRANCH   4   6
ATOM      6  C   UNL     1       1.997   8.040  19.162  0.00  0.00    +0.000 A 
ATOM      7  C   UNL     1       1.366   9.107  18.508  0.00  0.00    +0.000 A 
ATOM      8  C   UNL     1       0.389   9.852  19.173  0.00  0.00    +0.000 A 
ATOM      9  C   UNL     1       0.060   9.559  20.496  0.00  0.00    +0.000 A 
ATOM     10  C   UNL     1       0.739   8.549  21.173  0.00  0.00    +0.000 A 
ATOM     11  C   UNL     1       1.720   7.806  20.516  0.00  0.00    +0.000 A 
ENDBRANCH   4   6
BRANCH   5  12
ATOM     12  N   UNL     1       2.484   4.966  19.387  0.00  0.00    +0.000 N 
ATOM     13  C   UNL     1       1.376   4.235  18.999  0.00  0.00    +0.000 A 
ATOM     14  C   UNL     1       0.915   3.498  20.066  0.00  0.00    +0.000 A 
ATOM     15  C   UNL     1       1.781   3.752  21.147  0.00  0.00    +0.000 A 
ATOM     16  C   UNL     1       2.733   4.645  20.706  0.00  0.00    +0.000 A 
ENDBRANCH   5  12
BRANCH   1  17
ATOM     17  C   UNL     1       5.022   4.347  17.647  0.00  0.00    +0.000 C 
ATOM     18  O   UNL     1       4.661   3.466  16.880  0.00  0.00    +0.000 OA
BRANCH  17  19
ATOM     19  O   UNL     1       6.077   4.225  18.505  0.00  0.00    +0.000 OA
BRANCH  19  21
ATOM     20  C   UNL     1       7.837   5.783  18.908  0.00  0.00    +0.000 C 
ATOM     21  C   UNL     1       7.326   4.696  17.977  0.00  0.00    +0.000 C 
ENDBRANCH  19  21
ENDBRANCH  17  19
ENDBRANCH   1  17
TORSDOF 5
ENDMDL
MODEL 4
REMARK VINA RESULT:      -6.7      2.027      5.087
REMARK  Name = 
REMARK  6 active torsions:
REMARK  status: ('A' for Active; 'I' for Inactive)
REMARK    1  A    between atoms: C_1  and  C_2
REMARK    2  A    between atoms: C_2  and  O_3
REMARK    3  A    between atoms: O_3  and  C_4
REMARK    4  A    between atoms: C_4  and  C_6
REMARK    5  A    between atoms: N_9  and  C_10
REMARK    6  A    between atoms: C_16  and  N_17
REMARK                            x       y       z     vdW  Elec       q    Type
REMARK                         _______ _______ _______ _____ _____    ______ ____
ROOT
ATOM      1  C   UNL     1       4.411   5.578  17.809  0.00  0.00    +0.000 A 
ATOM      2  C   UNL     1       4.681   6.797  17.158  0.00  0.00    +0.000 A 
ATOM      3  N   UNL     1       3.760   7.731  17.395  0.00  0.00    +0.000 NA
ATOM      4  N   UNL     1       2.941   7.176  18.333  0.00  0.00    +0.000 N 
ATOM      5  C   UNL     1       3.254   5.838  18.529  0.00  0.00    +0.000 A 
ENDROOT
BRANCH   4   6
ATOM      6  C   UNL     1       2.004   8.009  19.014  0.00  0.00    +0.000 A 
ATOM      7  C   UNL     1       1.771   7.802  20.380  0.00  0.00    +0.000 A 
ATOM      8  C   UNL     1       0.956   8.689  21.090  0.00  0.00    +0.000 A 
ATOM      9  C   UNL     1       0.349   9.762  20.438  0.00  0.00    +0.000 A 
ATOM     10  C   UNL     1       0.517   9.926  19.065  0.00  0.00    +0.000 A 
ATOM     11  C   UNL     1       1.324   9.040  18.350  0.00  0.00    +0.000 A 
ENDBRANCH   4   6
BRANCH   5  12
ATOM     12  N   UNL     1       2.501   4.939  19.284  0.00  0.00    +0.000 N 
ATOM     13  C   UNL     1       1.427   4.186  18.843  0.00  0.00    +0.000 A 
ATOM     14  C   UNL     1       0.916   3.457  19.893  0.00  0.00    +0.000 A 
ATOM     15  C   UNL     1       1.715   3.740  21.018  0.00  0.00    +0.000 A 
ATOM     16  C   UNL     1       2.677   4.641  20.620  0.00  0.00    +0.000 A 
ENDBRANCH   5  12
BRANCH   1  17
ATOM     17  C   UNL     1       5.124   4.327  17.672  0.00  0.00    +0.000 C 
ATOM     18  O   UNL     1       4.787   3.426  16.918  0.00  0.00    +0.000 OA
BRANCH  17  19
ATOM     19  O   UNL     1       6.162   4.235  18.555  0.00  0.00    +0.000 OA
BRANCH  19  21
ATOM     20  C   UNL     1       7.885   5.830  18.970  0.00  0.00    +0.000 C 
ATOM     21  C   UNL     1       7.414   4.719  18.047  0.00  0.00    +0.000 C 
ENDBRANCH  19  21
ENDBRANCH  17  19
ENDBRANCH   1  17
TORSDOF 5
ENDMDL
MODEL 5
REMARK VINA RESULT:      -6.7      2.395      5.193
REMARK  Name = 
REMARK  6 active torsions:
REMARK  status: ('A' for Active; 'I' for Inactive)
REMARK    1  A    between atoms: C_1  and  C_2
REMARK    2  A    between atoms: C_2  and  O_3
REMARK    3  A    between atoms: O_3  and  C_4
REMARK    4  A    between atoms: C_4  and  C_6
REMARK    5  A    between atoms: N_9  and  C_10
REMARK    6  A    between atoms: C_16  and  N_17
REMARK                            x       y       z     vdW  Elec       q    Type
REMARK                         _______ _______ _______ _____ _____    ______ ____
ROOT
ATOM      1  C   UNL     1       4.544   5.626  17.885  0.00  0.00    +0.000 A 
ATOM      2  C   UNL     1       4.853   6.825  17.214  0.00  0.00    +0.000 A 
ATOM      3  N   UNL     1       3.906   7.755  17.343  0.00  0.00    +0.000 NA
ATOM      4  N   UNL     1       3.021   7.222  18.233  0.00  0.00    +0.000 N 
ATOM      5  C   UNL     1       3.331   5.896  18.500  0.00  0.00    +0.000 A 
ENDROOT
BRANCH   4   6
ATOM      6  C   UNL     1       2.025   8.066  18.808  0.00  0.00    +0.000 A 
ATOM      7  C   UNL     1       1.774   7.991  20.184  0.00  0.00    +0.000 A 
ATOM      8  C   UNL     1       0.896   8.899  20.783  0.00  0.00    +0.000 A 
ATOM      9  C   UNL     1       0.244   9.860  20.011  0.00  0.00    +0.000 A 
ATOM     10  C   UNL     1       0.432   9.889  18.632  0.00  0.00    +0.000 A 
ATOM     11  C   UNL     1       1.303   8.981  18.028  0.00  0.00    +0.000 A 
ENDBRANCH   4   6
BRANCH   5  12
ATOM     12  N   UNL     1       2.529   5.014  19.225  0.00  0.00    +0.000 N 
ATOM     13  C   UNL     1       1.471   4.268  18.737  0.00  0.00    +0.000 A 
ATOM     14  C   UNL     1       0.898   3.558  19.767  0.00  0.00    +0.000 A 
ATOM     15  C   UNL     1       1.639   3.845  20.929  0.00  0.00    +0.000 A 
ATOM     16  C   UNL     1       2.631   4.730  20.572  0.00  0.00    +0.000 A 
ENDBRANCH   5  12
BRANCH   1  17
ATOM     17  C   UNL     1       5.278   4.381  17.849  0.00  0.00    +0.000 C 
ATOM     18  O   UNL     1       6.044   4.012  18.729  0.00  0.00    +0.000 OA
BRANCH  17  19
ATOM     19  O   UNL     1       5.088   3.712  16.674  0.00  0.00    +0.000 OA
BRANCH  19  21
ATOM     20  C   UNL     1       5.598   4.362  14.438  0.00  0.00    +0.000 C 
ATOM     21  C   UNL     1       6.172   3.835  15.742  0.00  0.00    +0.000 C 
ENDBRANCH  19  21
ENDBRANCH  17  19
ENDBRANCH   1  17
TORSDOF 5
ENDMDL
MODEL 6
REMARK VINA RESULT:      -6.7      2.471      5.317
REMARK  Name = 
REMARK  6 active torsions:
REMARK  status: ('A' for Active; 'I' for Inactive)
REMARK    1  A    between atoms: C_1  and  C_2
REMARK    2  A    between atoms: C_2  and  O_3
REMARK    3  A    between atoms: O_3  and  C_4
REMARK    4  A    between atoms: C_4  and  C_6
REMARK    5  A    between atoms: N_9  and  C_10
REMARK    6  A    between atoms: C_16  and  N_17
REMARK                            x       y       z     vdW  Elec       q    Type
REMARK                         _______ _______ _______ _____ _____    ______ ____
ROOT
ATOM      1  C   UNL     1       4.363   5.602  17.913  0.00  0.00    +0.000 A 
ATOM      2  C   UNL     1       4.646   6.805  17.237  0.00  0.00    +0.000 A 
ATOM      3  N   UNL     1       3.739   7.756  17.461  0.00  0.00    +0.000 NA
ATOM      4  N   UNL     1       2.918   7.230  18.414  0.00  0.00    +0.000 N 
ATOM      5  C   UNL     1       3.213   5.892  18.633  0.00  0.00    +0.000 A 
ENDROOT
BRANCH   4   6
ATOM      6  C   UNL     1       1.997   8.089  19.085  0.00  0.00    +0.000 A 
ATOM      7  C   UNL     1       1.362   9.109  18.364  0.00  0.00    +0.000 A 
ATOM      8  C   UNL     1       0.363   9.874  18.972  0.00  0.00    +0.000 A 
ATOM      9  C   UNL     1       0.017   9.648  20.304  0.00  0.00    +0.000 A 
ATOM     10  C   UNL     1       0.698   8.687  21.046  0.00  0.00    +0.000 A 
ATOM     11  C   UNL     1       1.701   7.923  20.446  0.00  0.00    +0.000 A 
ENDBRANCH   4   6
BRANCH   5  12
ATOM     12  N   UNL     1       2.452   5.018  19.409  0.00  0.00    +0.000 N 
ATOM     13  C   UNL     1       2.640   4.723  20.748  0.00  0.00    +0.000 A 
ATOM     14  C   UNL     1       1.720   3.779  21.144  0.00  0.00    +0.000 A 
ATOM     15  C   UNL     1       0.910   3.499  20.026  0.00  0.00    +0.000 A 
ATOM     16  C   UNL     1       1.372   4.270  18.983  0.00  0.00    +0.000 A 
ENDBRANCH   5  12
BRANCH   1  17
ATOM     17  C   UNL     1       5.057   4.339  17.796  0.00  0.00    +0.000 C 
ATOM     18  O   UNL     1       5.664   3.804  18.713  0.00  0.00    +0.000 OA
BRANCH  17  19
ATOM     19  O   UNL     1       5.035   3.863  16.516  0.00  0.00    +0.000 OA
BRANCH  19  21
ATOM     20  C   UNL     1       5.984   4.071  14.339  0.00  0.00    +0.000 C 
ATOM     21  C   UNL     1       6.288   3.970  15.824  0.00  0.00    +0.000 C 
ENDBRANCH  19  21
ENDBRANCH  17  19
ENDBRANCH   1  17
TORSDOF 5
ENDMDL
MODEL 7
REMARK VINA RESULT:      -6.5      3.145      5.645
REMARK  Name = 
REMARK  6 active torsions:
REMARK  status: ('A' for Active; 'I' for Inactive)
REMARK    1  A    between atoms: C_1  and  C_2
REMARK    2  A    between atoms: C_2  and  O_3
REMARK    3  A    between atoms: O_3  and  C_4
REMARK    4  A    between atoms: C_4  and  C_6
REMARK    5  A    between atoms: N_9  and  C_10
REMARK    6  A    between atoms: C_16  and  N_17
REMARK                            x       y       z     vdW  Elec       q    Type
REMARK                         _______ _______ _______ _____ _____    ______ ____
ROOT
ATOM      1  C   UNL     1       5.593   4.496  15.686  0.00  0.00    +0.000 A 
ATOM      2  C   UNL     1       4.424   3.712  15.657  0.00  0.00    +0.000 A 
ATOM      3  N   UNL     1       3.659   3.877  16.736  0.00  0.00    +0.000 NA
ATOM      4  N   UNL     1       4.251   4.892  17.426  0.00  0.00    +0.000 N 
ATOM      5  C   UNL     1       5.477   5.218  16.864  0.00  0.00    +0.000 A 
ENDROOT
BRANCH   4   6
ATOM      6  C   UNL     1       3.539   5.510  18.497  0.00  0.00    +0.000 A 
ATOM      7  C   UNL     1       3.125   6.842  18.367  0.00  0.00    +0.000 A 
ATOM      8  C   UNL     1       2.316   7.420  19.349  0.00  0.00    +0.000 A 
ATOM      9  C   UNL     1       1.944   6.685  20.475  0.00  0.00    +0.000 A 
ATOM     10  C   UNL     1       2.417   5.387  20.645  0.00  0.00    +0.000 A 
ATOM     11  C   UNL     1       3.229   4.807  19.670  0.00  0.00    +0.000 A 
ENDBRANCH   4   6
BRANCH   5  12
ATOM     12  N   UNL     1       6.413   6.086  17.427  0.00  0.00    +0.000 N 
ATOM     13  C   UNL     1       6.609   7.416  17.100  0.00  0.00    +0.000 A 
ATOM     14  C   UNL     1       7.656   7.920  17.836  0.00  0.00    +0.000 A 
ATOM     15  C   UNL     1       8.110   6.882  18.672  0.00  0.00    +0.000 A 
ATOM     16  C   UNL     1       7.333   5.777  18.409  0.00  0.00    +0.000 A 
ENDBRANCH   5  12
BRANCH   1  17
ATOM     17  C   UNL     1       6.696   4.471  14.750  0.00  0.00    +0.000 C 
ATOM     18  O   UNL     1       7.569   5.326  14.696  0.00  0.00    +0.000 OA
BRANCH  17  19
ATOM     19  O   UNL     1       6.594   3.430  13.873  0.00  0.00    +0.000 OA
BRANCH  19  21
ATOM     20  C   UNL     1       5.192   3.207  11.957  0.00  0.00    +0.000 C 
ATOM     21  C   UNL     1       6.469   3.826  12.498  0.00  0.00    +0.000 C 
ENDBRANCH  19  21
ENDBRANCH  17  19
ENDBRANCH   1  17
TORSDOF 5
ENDMDL
MODEL 8
REMARK VINA RESULT:      -6.5      2.875      5.537
REMARK  Name = 
REMARK  6 active torsions:
REMARK  status: ('A' for Active; 'I' for Inactive)
REMARK    1  A    between atoms: C_1  and  C_2
REMARK    2  A    between atoms: C_2  and  O_3
REMARK    3  A    between atoms: O_3  and  C_4
REMARK    4  A    between atoms: C_4  and  C_6
REMARK    5  A    between atoms: N_9  and  C_10
REMARK    6  A    between atoms: C_16  and  N_17
REMARK                            x       y       z     vdW  Elec       q    Type
REMARK                         _______ _______ _______ _____ _____    ______ ____
ROOT
ATOM      1  C   UNL     1       5.584   5.266  16.633  0.00  0.00    +0.000 A 
ATOM      2  C   UNL     1       5.367   6.605  16.253  0.00  0.00    +0.000 A 
ATOM      3  N   UNL     1       4.301   7.148  16.840  0.00  0.00    +0.000 NA
ATOM      4  N   UNL     1       3.885   6.208  17.735  0.00  0.00    +0.000 N 
ATOM      5  C   UNL     1       4.583   5.021  17.561  0.00  0.00    +0.000 A 
ENDROOT
BRANCH   4   6
ATOM      6  C   UNL     1       2.927   6.573  18.728  0.00  0.00    +0.000 A 
ATOM      7  C   UNL     1       2.527   5.622  19.676  0.00  0.00    +0.000 A 
ATOM      8  C   UNL     1       1.691   5.999  20.730  0.00  0.00    +0.000 A 
ATOM      9  C   UNL     1       1.227   7.311  20.826  0.00  0.00    +0.000 A 
ATOM     10  C   UNL     1       1.561   8.240  19.843  0.00  0.00    +0.000 A 
ATOM     11  C   UNL     1       2.391   7.868  18.785  0.00  0.00    +0.000 A 
ENDBRANCH   4   6
BRANCH   5  12
ATOM     12  N   UNL     1       4.282   3.813  18.190  0.00  0.00    +0.000 N 
ATOM     13  C   UNL     1       4.753   3.380  19.416  0.00  0.00    +0.000 A 
ATOM     14  C   UNL     1       4.272   2.116  19.672  0.00  0.00    +0.000 A 
ATOM     15  C   UNL     1       3.449   1.761  18.587  0.00  0.00    +0.000 A 
ATOM     16  C   UNL     1       3.466   2.813  17.699  0.00  0.00    +0.000 A 
ENDBRANCH   5  12
BRANCH   1  17
ATOM     17  C   UNL     1       6.562   4.344  16.099  0.00  0.00    +0.000 C 
ATOM     18  O   UNL     1       7.710   4.249  16.512  0.00  0.00    +0.000 OA
BRANCH  17  19
ATOM     19  O   UNL     1       6.081   3.662  15.019  0.00  0.00    +0.000 OA
BRANCH  19  21
ATOM     20  C   UNL     1       5.752   3.489  12.664  0.00  0.00    +0.000 C 
ATOM     21  C   UNL     1       6.607   4.104  13.759  0.00  0.00    +0.000 C 
ENDBRANCH  19  21
ENDBRANCH  17  19
ENDBRANCH   1  17
TORSDOF 5
ENDMDL
MODEL 9
REMARK VINA RESULT:      -6.4      0.771      1.535
REMARK  Name = 
REMARK  6 active torsions:
REMARK  status: ('A' for Active; 'I' for Inactive)
REMARK    1  A    between atoms: C_1  and  C_2
REMARK    2  A    between atoms: C_2  and  O_3
REMARK    3  A    between atoms: O_3  and  C_4
REMARK    4  A    between atoms: C_4  and  C_6
REMARK    5  A    between atoms: N_9  and  C_10
REMARK    6  A    between atoms: C_16  and  N_17
REMARK                            x       y       z     vdW  Elec       q    Type
REMARK                         _______ _______ _______ _____ _____    ______ ____
ROOT
ATOM      1  C   UNL     1       2.696   3.812  18.652  0.00  0.00    +0.000 A 
ATOM      2  C   UNL     1       3.677   2.856  18.325  0.00  0.00    +0.000 A 
ATOM      3  N   UNL     1       4.826   3.402  17.929  0.00  0.00    +0.000 NA
ATOM      4  N   UNL     1       4.660   4.740  18.133  0.00  0.00    +0.000 N 
ATOM      5  C   UNL     1       3.346   5.025  18.476  0.00  0.00    +0.000 A 
ENDROOT
BRANCH   4   6
ATOM      6  C   UNL     1       5.799   5.597  18.070  0.00  0.00    +0.000 A 
ATOM      7  C   UNL     1       5.838   6.614  17.107  0.00  0.00    +0.000 A 
ATOM      8  C   UNL     1       6.883   7.542  17.115  0.00  0.00    +0.000 A 
ATOM      9  C   UNL     1       7.906   7.441  18.059  0.00  0.00    +0.000 A 
ATOM     10  C   UNL     1       7.910   6.386  18.968  0.00  0.00    +0.000 A 
ATOM     11  C   UNL     1       6.872   5.454  18.961  0.00  0.00    +0.000 A 
ENDBRANCH   4   6
BRANCH   5  12
ATOM     12  N   UNL     1       2.801   6.305  18.578  0.00  0.00    +0.000 N 
ATOM     13  C   UNL     1       2.452   7.141  17.533  0.00  0.00    +0.000 A 
ATOM     14  C   UNL     1       1.996   8.338  18.035  0.00  0.00    +0.000 A 
ATOM     15  C   UNL     1       2.032   8.237  19.439  0.00  0.00    +0.000 A 
ATOM     16  C   UNL     1       2.521   6.987  19.746  0.00  0.00    +0.000 A 
ENDBRANCH   5  12
BRANCH   1  17
ATOM     17  C   UNL     1       1.310   3.574  18.993  0.00  0.00    +0.000 C 
ATOM     18  O   UNL     1       0.513   3.005  18.261  0.00  0.00    +0.000 OA
BRANCH  17  19
ATOM     19  O   UNL     1       0.976   4.145  20.187  0.00  0.00    +0.000 OA
BRANCH  19  21
ATOM     20  C   UNL     1       1.415   2.423  21.777  0.00  0.00    +0.000 C 
ATOM     21  C   UNL     1       1.843   3.791  21.275  0.00  0.00    +0.000 C 
ENDBRANCH  19  21
ENDBRANCH  17  19
ENDBRANCH   1  17
TORSDOF 5
ENDMDL
