MODEL 1
REMARK VINA RESULT:      -6.9      0.000      0.000
REMARK  Name = 
REMARK  7 active torsions:
REMARK  status: ('A' for Active; 'I' for Inactive)
REMARK    1  A    between atoms: C_1  and  O_2
REMARK    2  A    between atoms: O_2  and  C_3
REMARK    3  A    between atoms: C_6  and  C_7
REMARK    4  A    between atoms: N_14  and  C_15
REMARK    5  A    between atoms: C_15  and  C_16
REMARK    6  A    between atoms: C_16  and  C_17
REMARK    7  A    between atoms: C_17  and  N_18
REMARK                            x       y       z     vdW  Elec       q    Type
REMARK                         _______ _______ _______ _____ _____    ______ ____
ROOT
ATOM      1  C   UNL     1       3.872   5.525  19.393  0.00  0.00    +0.000 C 
ATOM      2  C   UNL     1       3.339   4.221  20.009  0.00  0.00    +0.000 C 
ATOM      3  C   UNL     1       2.279   4.702  20.982  0.00  0.00    +0.000 C 
ATOM      4  C   UNL     1       1.711   5.948  20.318  0.00  0.00    +0.000 C 
ATOM      5  N   UNL     1       2.669   6.352  19.294  0.00  0.00    +0.000 N 
ATOM      6  C   UNL     1       2.632   7.555  18.615  0.00  0.00    +0.000 C 
ATOM      7  O   UNL     1       3.534   7.973  17.903  0.00  0.00    +0.000 OA
ATOM      8  N   UNL     1       1.468   8.270  18.809  0.00  0.00    +0.000 N 
ATOM      9  H   UNL     1       0.722   7.854  19.331  0.00  0.00    +0.000 HD
ENDROOT
BRANCH   1  13
ATOM     10  C   UNL     1       6.284   4.532  15.939  0.00  0.00    +0.000 A 
ATOM     11  C   UNL     1       4.958   4.101  16.008  0.00  0.00    +0.000 A 
ATOM     12  C   UNL     1       4.148   4.455  17.093  0.00  0.00    +0.000 A 
ATOM     13  C   UNL     1       4.665   5.223  18.143  0.00  0.00    +0.000 A 
ATOM     14  C   UNL     1       6.002   5.643  18.066  0.00  0.00    +0.000 A 
ATOM     15  C   UNL     1       6.806   5.302  16.974  0.00  0.00    +0.000 A 
BRANCH  10  17
ATOM     16  C   UNL     1       6.256   3.974  13.644  0.00  0.00    +0.000 C 
ATOM     17  O   UNL     1       6.996   4.092  14.856  0.00  0.00    +0.000 OA
ENDBRANCH  10  17
ENDBRANCH   1  13
BRANCH   8  18
ATOM     18  C   UNL     1       1.180   9.512  18.113  0.00  0.00    +0.000 C 
BRANCH  18  19
ATOM     19  C   UNL     1       0.199  10.369  18.905  0.00  0.00    +0.000 C 
BRANCH  19  20
ATOM     20  C   UNL     1       0.905  11.104  20.041  0.00  0.00    +0.000 C 
BRANCH  20  21
ATOM     21  N   UNL     1       0.448  10.664  21.345  0.00  0.00    +0.000 N 
ATOM     22  C   UNL     1       0.808   9.508  21.976  0.00  0.00    +0.000 A 
ATOM     23  C   UNL     1       0.141   9.541  23.180  0.00  0.00    +0.000 A 
ATOM     24  N   UNL     1      -0.629  10.672  23.277  0.00  0.00    +0.000 NA
ATOM     25  C   UNL     1      -0.433  11.323  22.153  0.00  0.00    +0.000 A 
ENDBRANCH  20  21
ENDBRANCH  19  20
ENDBRANCH  18  19
ENDBRANCH   8  18
TORSDOF 6
ENDMDL
MODEL 2
REMARK VINA RESULT:      -6.9      4.957      7.327
REMARK  Name = 
REMARK  7 active torsions:
REMARK  status: ('A' for Active; 'I' for Inactive)
REMARK    1  A    between atoms: C_1  and  O_2
REMARK    2  A    between atoms: O_2  and  C_3
REMARK    3  A    between atoms: C_6  and  C_7
REMARK    4  A    between atoms: N_14  and  C_15
REMARK    5  A    between atoms: C_15  and  C_16
REMARK    6  A    between atoms: C_16  and  C_17
REMARK    7  A    between atoms: C_17  and  N_18
REMARK                            x       y       z     vdW  Elec       q    Type
REMARK                         _______ _______ _______ _____ _____    ______ ____
ROOT
ATOM      1  C   UNL     1       4.931   4.768  15.855  0.00  0.00    +0.000 C 
ATOM      2  C   UNL     1       5.284   3.703  14.803  0.00  0.00    +0.000 C 
ATOM      3  C   UNL     1       6.395   4.356  14.004  0.00  0.00    +0.000 C 
ATOM      4  C   UNL     1       7.127   5.214  15.026  0.00  0.00    +0.000 C 
ATOM      5  N   UNL     1       6.234   5.354  16.173  0.00  0.00    +0.000 N 
ATOM      6  C   UNL     1       6.434   6.232  17.221  0.00  0.00    +0.000 C 
ATOM      7  O   UNL     1       5.599   6.485  18.077  0.00  0.00    +0.000 OA
ATOM      8  N   UNL     1       7.682   6.819  17.227  0.00  0.00    +0.000 N 
ATOM      9  H   UNL     1       8.364   6.521  16.558  0.00  0.00    +0.000 HD
ENDROOT
BRANCH   1  13
ATOM     10  C   UNL     1       2.759   3.025  19.169  0.00  0.00    +0.000 A 
ATOM     11  C   UNL     1       2.343   4.242  18.627  0.00  0.00    +0.000 A 
ATOM     12  C   UNL     1       3.001   4.796  17.524  0.00  0.00    +0.000 A 
ATOM     13  C   UNL     1       4.110   4.152  16.963  0.00  0.00    +0.000 A 
ATOM     14  C   UNL     1       4.525   2.931  17.521  0.00  0.00    +0.000 A 
ATOM     15  C   UNL     1       3.856   2.372  18.614  0.00  0.00    +0.000 A 
BRANCH  10  17
ATOM     16  C   UNL     1       1.018   3.455  20.706  0.00  0.00    +0.000 C 
ATOM     17  O   UNL     1       2.070   2.598  20.271  0.00  0.00    +0.000 OA
ENDBRANCH  10  17
ENDBRANCH   1  13
BRANCH   8  18
ATOM     18  C   UNL     1       8.136   7.697  18.292  0.00  0.00    +0.000 C 
BRANCH  18  19
ATOM     19  C   UNL     1       8.255   9.136  17.803  0.00  0.00    +0.000 C 
BRANCH  19  20
ATOM     20  C   UNL     1       8.937  10.017  18.847  0.00  0.00    +0.000 C 
BRANCH  20  21
ATOM     21  N   UNL     1       9.489  11.225  18.267  0.00  0.00    +0.000 N 
ATOM     22  C   UNL     1       8.828  12.406  18.086  0.00  0.00    +0.000 A 
ATOM     23  C   UNL     1       9.762  13.250  17.526  0.00  0.00    +0.000 A 
ATOM     24  N   UNL     1      10.955  12.600  17.343  0.00  0.00    +0.000 NA
ATOM     25  C   UNL     1      10.758  11.380  17.787  0.00  0.00    +0.000 A 
ENDBRANCH  20  21
ENDBRANCH  19  20
ENDBRANCH  18  19
ENDBRANCH   8  18
TORSDOF 6
ENDMDL
MODEL 3
REMARK VINA RESULT:      -6.8      1.445      2.246
REMARK  Name = 
REMARK  7 active torsions:
REMARK  status: ('A' for Active; 'I' for Inactive)
REMARK    1  A    between atoms: C_1  and  O_2
REMARK    2  A    between atoms: O_2  and  C_3
REMARK    3  A    between atoms: C_6  and  C_7
REMARK    4  A    between atoms: N_14  and  C_15
REMARK    5  A    between atoms: C_15  and  C_16
REMARK    6  A    between atoms: C_16  and  C_17
REMARK    7  A    between atoms: C_17  and  N_18
REMARK                            x       y       z     vdW  Elec       q    Type
REMARK                         _______ _______ _______ _____ _____    ______ ____
ROOT
ATOM      1  C   UNL     1       4.541   3.918  19.471  0.00  0.00    +0.000 C 
ATOM      2  C   UNL     1       4.109   2.447  19.595  0.00  0.00    +0.000 C 
ATOM      3  C   UNL     1       3.186   2.455  20.800  0.00  0.00    +0.000 C 
ATOM      4  C   UNL     1       2.522   3.824  20.744  0.00  0.00    +0.000 C 
ATOM      5  N   UNL     1       3.328   4.645  19.847  0.00  0.00    +0.000 N 
ATOM      6  C   UNL     1       3.187   6.012  19.694  0.00  0.00    +0.000 C 
ATOM      7  O   UNL     1       3.980   6.724  19.094  0.00  0.00    +0.000 OA
ATOM      8  N   UNL     1       2.054   6.526  20.289  0.00  0.00    +0.000 N 
ATOM      9  H   UNL     1       1.390   5.898  20.697  0.00  0.00    +0.000 HD
ENDROOT
BRANCH   1  13
ATOM     10  C   UNL     1       6.456   4.451  15.625  0.00  0.00    +0.000 A 
ATOM     11  C   UNL     1       5.118   4.058  15.688  0.00  0.00    +0.000 A 
ATOM     12  C   UNL     1       4.467   3.930  16.920  0.00  0.00    +0.000 A 
ATOM     13  C   UNL     1       5.158   4.164  18.114  0.00  0.00    +0.000 A 
ATOM     14  C   UNL     1       6.506   4.551  18.040  0.00  0.00    +0.000 A 
ATOM     15  C   UNL     1       7.150   4.694  16.807  0.00  0.00    +0.000 A 
BRANCH  10  17
ATOM     16  C   UNL     1       6.252   3.854  13.349  0.00  0.00    +0.000 C 
ATOM     17  O   UNL     1       7.002   4.504  14.372  0.00  0.00    +0.000 OA
ENDBRANCH  10  17
ENDBRANCH   1  13
BRANCH   8  18
ATOM     18  C   UNL     1       1.662   7.919  20.167  0.00  0.00    +0.000 C 
BRANCH  18  19
ATOM     19  C   UNL     1       1.161   8.466  21.499  0.00  0.00    +0.000 C 
BRANCH  19  20
ATOM     20  C   UNL     1      -0.219   9.101  21.349  0.00  0.00    +0.000 C 
BRANCH  20  21
ATOM     21  N   UNL     1      -0.197  10.262  20.483  0.00  0.00    +0.000 N 
ATOM     22  C   UNL     1       0.522  11.405  20.687  0.00  0.00    +0.000 A 
ATOM     23  C   UNL     1       0.237  12.200  19.599  0.00  0.00    +0.000 A 
ATOM     24  N   UNL     1      -0.653  11.577  18.763  0.00  0.00    +0.000 NA
ATOM     25  C   UNL     1      -0.905  10.417  19.326  0.00  0.00    +0.000 A 
ENDBRANCH  20  21
ENDBRANCH  19  20
ENDBRANCH  18  19
ENDBRANCH   8  18
TORSDOF 6
ENDMDL
MODEL 4
REMARK VINA RESULT:      -6.8      1.941      2.578
REMARK  Name = 
REMARK  7 active torsions:
REMARK  status: ('A' for Active; 'I' for Inactive)
REMARK    1  A    between atoms: C_1  and  O_2
REMARK    2  A    between atoms: O_2  and  C_3
REMARK    3  A    between atoms: C_6  and  C_7
REMARK    4  A    between atoms: N_14  and  C_15
REMARK    5  A    between atoms: C_15  and  C_16
REMARK    6  A    between atoms: C_16  and  C_17
REMARK    7  A    between atoms: C_17  and  N_18
REMARK                            x       y       z     vdW  Elec       q    Type
REMARK                         _______ _______ _______ _____ _____    ______ ____
ROOT
ATOM      1  C   UNL     1       4.229   3.682  18.372  0.00  0.00    +0.000 C 
ATOM      2  C   UNL     1       3.534   2.352  18.040  0.00  0.00    +0.000 C 
ATOM      3  C   UNL     1       2.345   2.334  18.981  0.00  0.00    +0.000 C 
ATOM      4  C   UNL     1       1.962   3.801  19.117  0.00  0.00    +0.000 C 
ATOM      5  N   UNL     1       3.103   4.578  18.642  0.00  0.00    +0.000 N 
ATOM      6  C   UNL     1       3.243   5.943  18.800  0.00  0.00    +0.000 C 
ATOM      7  O   UNL     1       4.275   6.561  18.577  0.00  0.00    +0.000 OA
ATOM      8  N   UNL     1       2.099   6.575  19.242  0.00  0.00    +0.000 N 
ATOM      9  H   UNL     1       1.254   6.045  19.332  0.00  0.00    +0.000 HD
ENDROOT
BRANCH   1  13
ATOM     10  C   UNL     1       6.927   4.904  15.215  0.00  0.00    +0.000 A 
ATOM     11  C   UNL     1       7.394   4.796  16.527  0.00  0.00    +0.000 A 
ATOM     12  C   UNL     1       6.550   4.354  17.552  0.00  0.00    +0.000 A 
ATOM     13  C   UNL     1       5.212   4.041  17.283  0.00  0.00    +0.000 A 
ATOM     14  C   UNL     1       4.751   4.162  15.962  0.00  0.00    +0.000 A 
ATOM     15  C   UNL     1       5.600   4.588  14.936  0.00  0.00    +0.000 A 
BRANCH  10  17
ATOM     16  C   UNL     1       7.534   5.087  12.940  0.00  0.00    +0.000 C 
ATOM     17  O   UNL     1       7.825   5.386  14.302  0.00  0.00    +0.000 OA
ENDBRANCH  10  17
ENDBRANCH   1  13
BRANCH   8  18
ATOM     18  C   UNL     1       1.997   8.017  19.381  0.00  0.00    +0.000 C 
BRANCH  18  19
ATOM     19  C   UNL     1       1.807   8.686  18.025  0.00  0.00    +0.000 C 
BRANCH  19  20
ATOM     20  C   UNL     1       1.748  10.205  18.164  0.00  0.00    +0.000 C 
BRANCH  20  21
ATOM     21  N   UNL     1       0.496  10.654  18.740  0.00  0.00    +0.000 N 
ATOM     22  C   UNL     1       0.353  11.395  19.878  0.00  0.00    +0.000 A 
ATOM     23  C   UNL     1      -1.005  11.586  20.005  0.00  0.00    +0.000 A 
ATOM     24  N   UNL     1      -1.681  10.959  18.991  0.00  0.00    +0.000 NA
ATOM     25  C   UNL     1      -0.752  10.397  18.251  0.00  0.00    +0.000 A 
ENDBRANCH  20  21
ENDBRANCH  19  20
ENDBRANCH  18  19
ENDBRANCH   8  18
TORSDOF 6
ENDMDL
MODEL 5
REMARK VINA RESULT:      -6.7      1.102      1.718
REMARK  Name = 
REMARK  7 active torsions:
REMARK  status: ('A' for Active; 'I' for Inactive)
REMARK    1  A    between atoms: C_1  and  O_2
REMARK    2  A    between atoms: O_2  and  C_3
REMARK    3  A    between atoms: C_6  and  C_7
REMARK    4  A    between atoms: N_14  and  C_15
REMARK    5  A    between atoms: C_15  and  C_16
REMARK    6  A    between atoms: C_16  and  C_17
REMARK    7  A    between atoms: C_17  and  N_18
REMARK                            x       y       z     vdW  Elec       q    Type
REMARK                         _______ _______ _______ _____ _____    ______ ____
ROOT
ATOM      1  C   UNL     1       4.708   4.624  18.524  0.00  0.00    +0.000 C 
ATOM      2  C   UNL     1       4.199   3.237  18.951  0.00  0.00    +0.000 C 
ATOM      3  C   UNL     1       3.235   3.551  20.079  0.00  0.00    +0.000 C 
ATOM      4  C   UNL     1       2.642   4.898  19.691  0.00  0.00    +0.000 C 
ATOM      5  N   UNL     1       3.521   5.466  18.672  0.00  0.00    +0.000 N 
ATOM      6  C   UNL     1       3.454   6.768  18.215  0.00  0.00    +0.000 C 
ATOM      7  O   UNL     1       4.302   7.296  17.510  0.00  0.00    +0.000 OA
ATOM      8  N   UNL     1       2.326   7.448  18.628  0.00  0.00    +0.000 N 
ATOM      9  H   UNL     1       1.618   6.954  19.134  0.00  0.00    +0.000 HD
ENDROOT
BRANCH   1  13
ATOM     10  C   UNL     1       6.516   4.543  14.591  0.00  0.00    +0.000 A 
ATOM     11  C   UNL     1       7.284   4.895  15.703  0.00  0.00    +0.000 A 
ATOM     12  C   UNL     1       6.731   4.877  16.988  0.00  0.00    +0.000 A 
ATOM     13  C   UNL     1       5.386   4.536  17.176  0.00  0.00    +0.000 A 
ATOM     14  C   UNL     1       4.621   4.192  16.050  0.00  0.00    +0.000 A 
ATOM     15  C   UNL     1       5.180   4.194  14.768  0.00  0.00    +0.000 A 
BRANCH  10  17
ATOM     16  C   UNL     1       6.713   3.705  12.392  0.00  0.00    +0.000 C 
ATOM     17  O   UNL     1       7.147   4.635  13.380  0.00  0.00    +0.000 OA
ENDBRANCH  10  17
ENDBRANCH   1  13
BRANCH   8  18
ATOM     18  C   UNL     1       2.009   8.793  18.183  0.00  0.00    +0.000 C 
BRANCH  18  19
ATOM     19  C   UNL     1       0.803   9.349  18.932  0.00  0.00    +0.000 C 
BRANCH  19  20
ATOM     20  C   UNL     1       1.212  10.486  19.865  0.00  0.00    +0.000 C 
BRANCH  20  21
ATOM     21  N   UNL     1       0.645  10.338  21.190  0.00  0.00    +0.000 N 
ATOM     22  C   UNL     1      -0.492  10.939  21.651  0.00  0.00    +0.000 A 
ATOM     23  C   UNL     1      -0.632  10.483  22.943  0.00  0.00    +0.000 A 
ATOM     24  N   UNL     1       0.402   9.648  23.278  0.00  0.00    +0.000 NA
ATOM     25  C   UNL     1       1.161   9.588  22.207  0.00  0.00    +0.000 A 
ENDBRANCH  20  21
ENDBRANCH  19  20
ENDBRANCH  18  19
ENDBRANCH   8  18
TORSDOF 6
ENDMDL
MODEL 6
REMARK VINA RESULT:      -6.7      4.985      7.307
REMARK  Name = 
REMARK  7 active torsions:
REMARK  status: ('A' for Active; 'I' for Inactive)
REMARK    1  A    between atoms: C_1  and  O_2
REMARK    2  A    between atoms: O_2  and  C_3
REMARK    3  A    between atoms: C_6  and  C_7
REMARK    4  A    between atoms: N_14  and  C_15
REMARK    5  A    between atoms: C_15  and  C_16
REMARK    6  A    between atoms: C_16  and  C_17
REMARK    7  A    between atoms: C_17  and  N_18
REMARK                            x       y       z     vdW  Elec       q    Type
REMARK                         _______ _______ _______ _____ _____    ______ ____
ROOT
ATOM      1  C   UNL     1       4.864   4.528  16.085  0.00  0.00    +0.000 C 
ATOM      2  C   UNL     1       5.520   3.350  15.347  0.00  0.00    +0.000 C 
ATOM      3  C   UNL     1       6.556   4.023  14.466  0.00  0.00    +0.000 C 
ATOM      4  C   UNL     1       7.000   5.230  15.280  0.00  0.00    +0.000 C 
ATOM      5  N   UNL     1       5.988   5.436  16.312  0.00  0.00    +0.000 N 
ATOM      6  C   UNL     1       5.908   6.553  17.121  0.00  0.00    +0.000 C 
ATOM      7  O   UNL     1       4.959   6.813  17.846  0.00  0.00    +0.000 OA
ATOM      8  N   UNL     1       7.011   7.379  17.043  0.00  0.00    +0.000 N 
ATOM      9  H   UNL     1       7.800   7.088  16.502  0.00  0.00    +0.000 HD
ENDROOT
BRANCH   1  13
ATOM     10  C   UNL     1       2.497   2.929  19.338  0.00  0.00    +0.000 A 
ATOM     11  C   UNL     1       3.887   2.799  19.360  0.00  0.00    +0.000 A 
ATOM     12  C   UNL     1       4.672   3.354  18.343  0.00  0.00    +0.000 A 
ATOM     13  C   UNL     1       4.073   4.023  17.269  0.00  0.00    +0.000 A 
ATOM     14  C   UNL     1       2.674   4.140  17.254  0.00  0.00    +0.000 A 
ATOM     15  C   UNL     1       1.891   3.599  18.279  0.00  0.00    +0.000 A 
BRANCH  10  17
ATOM     16  C   UNL     1       1.679   3.084  21.549  0.00  0.00    +0.000 C 
ATOM     17  O   UNL     1       1.826   2.313  20.360  0.00  0.00    +0.000 OA
ENDBRANCH  10  17
ENDBRANCH   1  13
BRANCH   8  18
ATOM     18  C   UNL     1       7.176   8.555  17.880  0.00  0.00    +0.000 C 
BRANCH  18  19
ATOM     19  C   UNL     1       8.536   9.205  17.649  0.00  0.00    +0.000 C 
BRANCH  19  20
ATOM     20  C   UNL     1       8.989   9.985  18.880  0.00  0.00    +0.000 C 
BRANCH  20  21
ATOM     21  N   UNL     1       9.669  11.215  18.529  0.00  0.00    +0.000 N 
ATOM     22  C   UNL     1       9.156  12.234  17.779  0.00  0.00    +0.000 A 
ATOM     23  C   UNL     1      10.156  13.180  17.736  0.00  0.00    +0.000 A 
ATOM     24  N   UNL     1      11.263  12.746  18.417  0.00  0.00    +0.000 NA
ATOM     25  C   UNL     1      10.946  11.555  18.874  0.00  0.00    +0.000 A 
ENDBRANCH  20  21
ENDBRANCH  19  20
ENDBRANCH  18  19
ENDBRANCH   8  18
TORSDOF 6
ENDMDL
MODEL 7
REMARK VINA RESULT:      -6.7      1.556      2.380
REMARK  Name = 
REMARK  7 active torsions:
REMARK  status: ('A' for Active; 'I' for Inactive)
REMARK    1  A    between atoms: C_1  and  O_2
REMARK    2  A    between atoms: O_2  and  C_3
REMARK    3  A    between atoms: C_6  and  C_7
REMARK    4  A    between atoms: N_14  and  C_15
REMARK    5  A    between atoms: C_15  and  C_16
REMARK    6  A    between atoms: C_16  and  C_17
REMARK    7  A    between atoms: C_17  and  N_18
REMARK                            x       y       z     vdW  Elec       q    Type
REMARK                         _______ _______ _______ _____ _____    ______ ____
ROOT
ATOM      1  C   UNL     1       4.072   3.602  18.660  0.00  0.00    +0.000 C 
ATOM      2  C   UNL     1       3.370   2.326  18.168  0.00  0.00    +0.000 C 
ATOM      3  C   UNL     1       2.220   2.161  19.143  0.00  0.00    +0.000 C 
ATOM      4  C   UNL     1       1.837   3.590  19.502  0.00  0.00    +0.000 C 
ATOM      5  N   UNL     1       2.955   4.438  19.100  0.00  0.00    +0.000 N 
ATOM      6  C   UNL     1       3.095   5.769  19.446  0.00  0.00    +0.000 C 
ATOM      7  O   UNL     1       4.114   6.422  19.274  0.00  0.00    +0.000 OA
ATOM      8  N   UNL     1       1.967   6.318  20.019  0.00  0.00    +0.000 N 
ATOM      9  H   UNL     1       1.129   5.773  20.065  0.00  0.00    +0.000 HD
ENDROOT
BRANCH   1  13
ATOM     10  C   UNL     1       6.877   4.901  15.630  0.00  0.00    +0.000 A 
ATOM     11  C   UNL     1       5.540   4.683  15.293  0.00  0.00    +0.000 A 
ATOM     12  C   UNL     1       4.608   4.312  16.268  0.00  0.00    +0.000 A 
ATOM     13  C   UNL     1       5.009   4.123  17.596  0.00  0.00    +0.000 A 
ATOM     14  C   UNL     1       6.359   4.337  17.923  0.00  0.00    +0.000 A 
ATOM     15  C   UNL     1       7.285   4.723  16.949  0.00  0.00    +0.000 A 
BRANCH  10  17
ATOM     16  C   UNL     1       7.296   4.746  13.311  0.00  0.00    +0.000 C 
ATOM     17  O   UNL     1       7.709   5.218  14.590  0.00  0.00    +0.000 OA
ENDBRANCH  10  17
ENDBRANCH   1  13
BRANCH   8  18
ATOM     18  C   UNL     1       1.864   7.725  20.367  0.00  0.00    +0.000 C 
BRANCH  18  19
ATOM     19  C   UNL     1       0.707   7.969  21.330  0.00  0.00    +0.000 C 
BRANCH  19  20
ATOM     20  C   UNL     1       0.654   9.430  21.767  0.00  0.00    +0.000 C 
BRANCH  20  21
ATOM     21  N   UNL     1       0.322  10.318  20.671  0.00  0.00    +0.000 N 
ATOM     22  C   UNL     1      -0.704  10.154  19.785  0.00  0.00    +0.000 A 
ATOM     23  C   UNL     1      -0.628  11.248  18.952  0.00  0.00    +0.000 A 
ATOM     24  N   UNL     1       0.430  12.049  19.297  0.00  0.00    +0.000 NA
ATOM     25  C   UNL     1       0.991  11.458  20.328  0.00  0.00    +0.000 A 
ENDBRANCH  20  21
ENDBRANCH  19  20
ENDBRANCH  18  19
ENDBRANCH   8  18
TORSDOF 6
ENDMDL
MODEL 8
REMARK VINA RESULT:      -6.7      1.520      2.253
REMARK  Name = 
REMARK  7 active torsions:
REMARK  status: ('A' for Active; 'I' for Inactive)
REMARK    1  A    between atoms: C_1  and  O_2
REMARK    2  A    between atoms: O_2  and  C_3
REMARK    3  A    between atoms: C_6  and  C_7
REMARK    4  A    between atoms: N_14  and  C_15
REMARK    5  A    between atoms: C_15  and  C_16
REMARK    6  A    between atoms: C_16  and  C_17
REMARK    7  A    between atoms: C_17  and  N_18
REMARK                            x       y       z     vdW  Elec       q    Type
REMARK                         _______ _______ _______ _____ _____    ______ ____
ROOT
ATOM      1  C   UNL     1       3.744   3.570  18.886  0.00  0.00    +0.000 C 
ATOM      2  C   UNL     1       2.949   2.337  18.426  0.00  0.00    +0.000 C 
ATOM      3  C   UNL     1       1.734   2.345  19.334  0.00  0.00    +0.000 C 
ATOM      4  C   UNL     1       1.473   3.823  19.584  0.00  0.00    +0.000 C 
ATOM      5  N   UNL     1       2.690   4.534  19.205  0.00  0.00    +0.000 N 
ATOM      6  C   UNL     1       2.940   5.865  19.481  0.00  0.00    +0.000 C 
ATOM      7  O   UNL     1       4.026   6.407  19.336  0.00  0.00    +0.000 OA
ATOM      8  N   UNL     1       1.840   6.555  19.948  0.00  0.00    +0.000 N 
ATOM      9  H   UNL     1       0.951   6.095  19.972  0.00  0.00    +0.000 HD
ENDROOT
BRANCH   1  13
ATOM     10  C   UNL     1       6.611   4.791  15.882  0.00  0.00    +0.000 A 
ATOM     11  C   UNL     1       6.990   4.739  17.225  0.00  0.00    +0.000 A 
ATOM     12  C   UNL     1       6.092   4.298  18.204  0.00  0.00    +0.000 A 
ATOM     13  C   UNL     1       4.787   3.931  17.855  0.00  0.00    +0.000 A 
ATOM     14  C   UNL     1       4.415   3.995  16.503  0.00  0.00    +0.000 A 
ATOM     15  C   UNL     1       5.318   4.421  15.524  0.00  0.00    +0.000 A 
BRANCH  10  17
ATOM     16  C   UNL     1       7.345   4.959  13.644  0.00  0.00    +0.000 C 
ATOM     17  O   UNL     1       7.554   5.276  15.017  0.00  0.00    +0.000 OA
ENDBRANCH  10  17
ENDBRANCH   1  13
BRANCH   8  18
ATOM     18  C   UNL     1       1.856   7.984  20.206  0.00  0.00    +0.000 C 
BRANCH  18  19
ATOM     19  C   UNL     1       1.134   8.314  21.508  0.00  0.00    +0.000 C 
BRANCH  19  20
ATOM     20  C   UNL     1      -0.205   8.993  21.236  0.00  0.00    +0.000 C 
BRANCH  20  21
ATOM     21  N   UNL     1      -0.176  10.408  21.550  0.00  0.00    +0.000 N 
ATOM     22  C   UNL     1      -1.036  11.067  22.381  0.00  0.00    +0.000 A 
ATOM     23  C   UNL     1      -0.600  12.373  22.376  0.00  0.00    +0.000 A 
ATOM     24  N   UNL     1       0.480  12.521  21.545  0.00  0.00    +0.000 NA
ATOM     25  C   UNL     1       0.706  11.324  21.052  0.00  0.00    +0.000 A 
ENDBRANCH  20  21
ENDBRANCH  19  20
ENDBRANCH  18  19
ENDBRANCH   8  18
TORSDOF 6
ENDMDL
MODEL 9
REMARK VINA RESULT:      -6.7      1.804      2.807
REMARK  Name = 
REMARK  7 active torsions:
REMARK  status: ('A' for Active; 'I' for Inactive)
REMARK    1  A    between atoms: C_1  and  O_2
REMARK    2  A    between atoms: O_2  and  C_3
REMARK    3  A    between atoms: C_6  and  C_7
REMARK    4  A    between atoms: N_14  and  C_15
REMARK    5  A    between atoms: C_15  and  C_16
REMARK    6  A    between atoms: C_16  and  C_17
REMARK    7  A    between atoms: C_17  and  N_18
REMARK                            x       y       z     vdW  Elec       q    Type
REMARK                         _______ _______ _______ _____ _____    ______ ____
ROOT
ATOM      1  C   UNL     1       3.950   5.321  19.446  0.00  0.00    +0.000 C 
ATOM      2  C   UNL     1       3.251   4.111  20.087  0.00  0.00    +0.000 C 
ATOM      3  C   UNL     1       2.206   4.747  20.985  0.00  0.00    +0.000 C 
ATOM      4  C   UNL     1       1.808   6.014  20.243  0.00  0.00    +0.000 C 
ATOM      5  N   UNL     1       2.851   6.267  19.253  0.00  0.00    +0.000 N 
ATOM      6  C   UNL     1       2.975   7.434  18.524  0.00  0.00    +0.000 C 
ATOM      7  O   UNL     1       3.949   7.721  17.841  0.00  0.00    +0.000 OA
ATOM      8  N   UNL     1       1.888   8.277  18.629  0.00  0.00    +0.000 N 
ATOM      9  H   UNL     1       1.078   7.967  19.129  0.00  0.00    +0.000 HD
ENDROOT
BRANCH   1  13
ATOM     10  C   UNL     1       6.173   4.218  15.899  0.00  0.00    +0.000 A 
ATOM     11  C   UNL     1       6.846   4.724  17.012  0.00  0.00    +0.000 A 
ATOM     12  C   UNL     1       6.151   5.038  18.185  0.00  0.00    +0.000 A 
ATOM     13  C   UNL     1       4.762   4.879  18.251  0.00  0.00    +0.000 A 
ATOM     14  C   UNL     1       4.094   4.377  17.122  0.00  0.00    +0.000 A 
ATOM     15  C   UNL     1       4.792   4.049  15.956  0.00  0.00    +0.000 A 
BRANCH  10  17
ATOM     16  C   UNL     1       6.238   3.915  13.557  0.00  0.00    +0.000 C 
ATOM     17  O   UNL     1       6.944   3.985  14.793  0.00  0.00    +0.000 OA
ENDBRANCH  10  17
ENDBRANCH   1  13
BRANCH   8  18
ATOM     18  C   UNL     1       1.769   9.509  17.869  0.00  0.00    +0.000 C 
BRANCH  18  19
ATOM     19  C   UNL     1       1.024  10.574  18.666  0.00  0.00    +0.000 C 
BRANCH  19  20
ATOM     20  C   UNL     1      -0.305  10.039  19.191  0.00  0.00    +0.000 C 
BRANCH  20  21
ATOM     21  N   UNL     1      -1.425  10.451  18.369  0.00  0.00    +0.000 N 
ATOM     22  C   UNL     1      -2.290  11.474  18.639  0.00  0.00    +0.000 A 
ATOM     23  C   UNL     1      -3.160  11.491  17.571  0.00  0.00    +0.000 A 
ATOM     24  N   UNL     1      -2.858  10.491  16.683  0.00  0.00    +0.000 NA
ATOM     25  C   UNL     1      -1.817   9.874  17.195  0.00  0.00    +0.000 A 
ENDBRANCH  20  21
ENDBRANCH  19  20
ENDBRANCH  18  19
ENDBRANCH   8  18
TORSDOF 6
ENDMDL
