MODEL 1
REMARK VINA RESULT:      -9.7      0.000      0.000
REMARK  Name = 
REMARK  3 active torsions:
REMARK  status: ('A' for Active; 'I' for Inactive)
REMARK    1  A    between atoms: C_5  and  C_6
REMARK    2  A    between atoms: C_12  and  C_13
REMARK    3  A    between atoms: C_16  and  C_17
REMARK                            x       y       z     vdW  Elec       q    Type
REMARK                         _______ _______ _______ _____ _____    ______ ____
ROOT
ATOM      1  C   UNL     1       1.597   9.625  19.008  0.00  0.00    +0.000 A 
ATOM      2  C   UNL     1       1.990   8.881  17.897  0.00  0.00    +0.000 A 
ATOM      3  C   UNL     1       2.170   7.496  17.994  0.00  0.00    +0.000 A 
ATOM      4  C   UNL     1       1.984   6.808  19.207  0.00  0.00    +0.000 A 
ATOM      5  C   UNL     1       1.572   7.572  20.311  0.00  0.00    +0.000 A 
ATOM      6  C   UNL     1       1.389   8.957  20.217  0.00  0.00    +0.000 A 
ENDROOT
BRANCH   4   7
ATOM      7  C   UNL     1       2.183   5.286  19.311  0.00  0.00    +0.000 C 
ATOM      8  C   UNL     1       3.662   4.906  19.637  0.00  0.00    +0.000 C 
ATOM      9  C   UNL     1       3.856   3.385  19.699  0.00  0.00    +0.000 C 
ATOM     10  C   UNL     1       2.957   2.805  20.795  0.00  0.00    +0.000 C 
ATOM     11  C   UNL     1       1.489   3.112  20.476  0.00  0.00    +0.000 C 
ATOM     12  C   UNL     1       1.118   2.503  19.114  0.00  0.00    +0.000 C 
ATOM     13  C   UNL     1       2.008   3.099  18.012  0.00  0.00    +0.000 C 
ATOM     14  C   UNL     1       3.477   2.783  18.336  0.00  0.00    +0.000 C 
ATOM     15  C   UNL     1       1.808   4.627  17.955  0.00  0.00    +0.000 C 
ATOM     16  C   UNL     1       1.291   4.636  20.415  0.00  0.00    +0.000 C 
ENDBRANCH   4   7
BRANCH   1  23
ATOM     17  C   UNL     1      -1.233  12.778  20.794  0.00  0.00    +0.000 A 
ATOM     18  C   UNL     1      -1.006  14.075  20.316  0.00  0.00    +0.000 A 
ATOM     19  C   UNL     1       0.026  14.323  19.411  0.00  0.00    +0.000 A 
ATOM     20  C   UNL     1       0.760  13.207  19.045  0.00  0.00    +0.000 A 
ATOM     21  O   UNL     1       1.808  13.176  18.183  0.00  0.00    +0.000 OA
ATOM     22  C   UNL     1       2.207  11.878  18.109  0.00  0.00    +0.000 A 
ATOM     23  C   UNL     1       1.420  11.064  18.905  0.00  0.00    +0.000 A 
ATOM     24  C   UNL     1       0.488  11.937  19.535  0.00  0.00    +0.000 A 
ATOM     25  N   UNL     1      -0.509  11.691  20.425  0.00  0.00    +0.000 NA
BRANCH  17  30
ATOM     26  C   UNL     1      -3.699  12.752  21.674  0.00  0.00    +0.000 A 
ATOM     27  N   UNL     1      -4.348  12.389  22.784  0.00  0.00    +0.000 NA
ATOM     28  N   UNL     1      -3.369  11.933  23.582  0.00  0.00    +0.000 N 
ATOM     29  C   UNL     1      -2.132  11.997  23.014  0.00  0.00    +0.000 A 
ATOM     30  C   UNL     1      -2.304  12.531  21.751  0.00  0.00    +0.000 A 
ATOM     31  H   UNL     1      -3.620  11.590  24.503  0.00  0.00    +0.000 HD
ENDBRANCH  17  30
ENDBRANCH   1  23
TORSDOF 3
ENDMDL
MODEL 2
REMARK VINA RESULT:      -9.7      0.109      1.766
REMARK  Name = 
REMARK  3 active torsions:
REMARK  status: ('A' for Active; 'I' for Inactive)
REMARK    1  A    between atoms: C_5  and  C_6
REMARK    2  A    between atoms: C_12  and  C_13
REMARK    3  A    between atoms: C_16  and  C_17
REMARK                            x       y       z     vdW  Elec       q    Type
REMARK                         _______ _______ _______ _____ _____    ______ ____
ROOT
ATOM      1  C   UNL     1       1.662   9.628  18.951  0.00  0.00    +0.000 A 
ATOM      2  C   UNL     1       1.440   8.975  20.162  0.00  0.00    +0.000 A 
ATOM      3  C   UNL     1       1.607   7.589  20.266  0.00  0.00    +0.000 A 
ATOM      4  C   UNL     1       1.983   6.803  19.162  0.00  0.00    +0.000 A 
ATOM      5  C   UNL     1       2.219   7.480  17.955  0.00  0.00    +0.000 A 
ATOM      6  C   UNL     1       2.055   8.866  17.847  0.00  0.00    +0.000 A 
ENDROOT
BRANCH   4   7
ATOM      7  C   UNL     1       2.165   5.280  19.280  0.00  0.00    +0.000 C 
ATOM      8  C   UNL     1       1.774   4.535  17.964  0.00  0.00    +0.000 C 
ATOM      9  C   UNL     1       1.922   3.015  18.107  0.00  0.00    +0.000 C 
ATOM     10  C   UNL     1       3.380   2.678  18.435  0.00  0.00    +0.000 C 
ATOM     11  C   UNL     1       3.782   3.349  19.754  0.00  0.00    +0.000 C 
ATOM     12  C   UNL     1       2.861   2.859  20.884  0.00  0.00    +0.000 C 
ATOM     13  C   UNL     1       1.401   3.213  20.563  0.00  0.00    +0.000 C 
ATOM     14  C   UNL     1       1.004   2.534  19.243  0.00  0.00    +0.000 C 
ATOM     15  C   UNL     1       1.259   4.742  20.421  0.00  0.00    +0.000 C 
ATOM     16  C   UNL     1       3.635   4.873  19.613  0.00  0.00    +0.000 C 
ENDBRANCH   4   7
BRANCH   1  23
ATOM     17  C   UNL     1      -1.162  12.775  20.755  0.00  0.00    +0.000 A 
ATOM     18  C   UNL     1      -0.945  14.072  20.271  0.00  0.00    +0.000 A 
ATOM     19  C   UNL     1       0.077  14.320  19.354  0.00  0.00    +0.000 A 
ATOM     20  C   UNL     1       0.811  13.207  18.985  0.00  0.00    +0.000 A 
ATOM     21  O   UNL     1       1.852  13.176  18.113  0.00  0.00    +0.000 OA
ATOM     22  C   UNL     1       2.254  11.880  18.039  0.00  0.00    +0.000 A 
ATOM     23  C   UNL     1       1.479  11.065  18.845  0.00  0.00    +0.000 A 
ATOM     24  C   UNL     1       0.550  11.937  19.482  0.00  0.00    +0.000 A 
ATOM     25  N   UNL     1      -0.438  11.690  20.382  0.00  0.00    +0.000 NA
BRANCH  17  30
ATOM     26  C   UNL     1      -2.186  12.047  23.053  0.00  0.00    +0.000 A 
ATOM     27  N   UNL     1      -3.397  11.956  23.610  0.00  0.00    +0.000 NA
ATOM     28  N   UNL     1      -4.220  12.377  22.637  0.00  0.00    +0.000 N 
ATOM     29  C   UNL     1      -3.571  12.728  21.491  0.00  0.00    +0.000 A 
ATOM     30  C   UNL     1      -2.223  12.527  21.723  0.00  0.00    +0.000 A 
ATOM     31  H   UNL     1      -5.217  12.400  22.826  0.00  0.00    +0.000 HD
ENDBRANCH  17  30
ENDBRANCH   1  23
TORSDOF 3
ENDMDL
MODEL 3
REMARK VINA RESULT:      -9.7      2.850      3.980
REMARK  Name = 
REMARK  3 active torsions:
REMARK  status: ('A' for Active; 'I' for Inactive)
REMARK    1  A    between atoms: C_5  and  C_6
REMARK    2  A    between atoms: C_12  and  C_13
REMARK    3  A    between atoms: C_16  and  C_17
REMARK                            x       y       z     vdW  Elec       q    Type
REMARK                         _______ _______ _______ _____ _____    ______ ____
ROOT
ATOM      1  C   UNL     1       1.076   9.144  20.028  0.00  0.00    +0.000 A 
ATOM      2  C   UNL     1       1.370   8.014  20.789  0.00  0.00    +0.000 A 
ATOM      3  C   UNL     1       2.152   6.981  20.258  0.00  0.00    +0.000 A 
ATOM      4  C   UNL     1       2.651   7.029  18.944  0.00  0.00    +0.000 A 
ATOM      5  C   UNL     1       2.359   8.183  18.199  0.00  0.00    +0.000 A 
ATOM      6  C   UNL     1       1.580   9.219  18.727  0.00  0.00    +0.000 A 
ENDROOT
BRANCH   4   7
ATOM      7  C   UNL     1       3.508   5.892  18.363  0.00  0.00    +0.000 C 
ATOM      8  C   UNL     1       2.639   4.773  17.707  0.00  0.00    +0.000 C 
ATOM      9  C   UNL     1       3.503   3.626  17.168  0.00  0.00    +0.000 C 
ATOM     10  C   UNL     1       4.464   4.172  16.107  0.00  0.00    +0.000 C 
ATOM     11  C   UNL     1       5.373   5.236  16.732  0.00  0.00    +0.000 C 
ATOM     12  C   UNL     1       6.168   4.619  17.894  0.00  0.00    +0.000 C 
ATOM     13  C   UNL     1       5.205   4.087  18.966  0.00  0.00    +0.000 C 
ATOM     14  C   UNL     1       4.300   3.017  18.334  0.00  0.00    +0.000 C 
ATOM     15  C   UNL     1       4.340   5.244  19.504  0.00  0.00    +0.000 C 
ATOM     16  C   UNL     1       4.510   6.388  17.273  0.00  0.00    +0.000 C 
ENDBRANCH   4   7
BRANCH   1  23
ATOM     17  C   UNL     1      -2.633  11.524  18.717  0.00  0.00    +0.000 A 
ATOM     18  C   UNL     1      -3.016  12.518  19.628  0.00  0.00    +0.000 A 
ATOM     19  C   UNL     1      -2.315  12.689  20.821  0.00  0.00    +0.000 A 
ATOM     20  C   UNL     1      -1.248  11.825  20.999  0.00  0.00    +0.000 A 
ATOM     21  O   UNL     1      -0.408  11.785  22.065  0.00  0.00    +0.000 OA
ATOM     22  C   UNL     1       0.494  10.802  21.808  0.00  0.00    +0.000 A 
ATOM     23  C   UNL     1       0.257  10.210  20.579  0.00  0.00    +0.000 A 
ATOM     24  C   UNL     1      -0.897  10.864  20.061  0.00  0.00    +0.000 A 
ATOM     25  N   UNL     1      -1.582  10.685  18.900  0.00  0.00    +0.000 NA
BRANCH  17  30
ATOM     26  C   UNL     1      -2.974  10.915  16.193  0.00  0.00    +0.000 A 
ATOM     27  N   UNL     1      -3.978  10.886  15.312  0.00  0.00    +0.000 NA
ATOM     28  N   UNL     1      -5.035  11.296  16.029  0.00  0.00    +0.000 N 
ATOM     29  C   UNL     1      -4.732  11.583  17.327  0.00  0.00    +0.000 A 
ATOM     30  C   UNL     1      -3.380  11.343  17.479  0.00  0.00    +0.000 A 
ATOM     31  H   UNL     1      -5.937  11.356  15.567  0.00  0.00    +0.000 HD
ENDBRANCH  17  30
ENDBRANCH   1  23
TORSDOF 3
ENDMDL
MODEL 4
REMARK VINA RESULT:      -9.7      0.064      1.375
REMARK  Name = 
REMARK  3 active torsions:
REMARK  status: ('A' for Active; 'I' for Inactive)
REMARK    1  A    between atoms: C_5  and  C_6
REMARK    2  A    between atoms: C_12  and  C_13
REMARK    3  A    between atoms: C_16  and  C_17
REMARK                            x       y       z     vdW  Elec       q    Type
REMARK                         _______ _______ _______ _____ _____    ______ ____
ROOT
ATOM      1  C   UNL     1       1.623   9.627  18.984  0.00  0.00    +0.000 A 
ATOM      2  C   UNL     1       2.035   8.896  17.871  0.00  0.00    +0.000 A 
ATOM      3  C   UNL     1       2.208   7.509  17.953  0.00  0.00    +0.000 A 
ATOM      4  C   UNL     1       1.995   6.805  19.151  0.00  0.00    +0.000 A 
ATOM      5  C   UNL     1       1.562   7.555  20.257  0.00  0.00    +0.000 A 
ATOM      6  C   UNL     1       1.386   8.942  20.179  0.00  0.00    +0.000 A 
ENDROOT
BRANCH   4   7
ATOM      7  C   UNL     1       2.186   5.281  19.238  0.00  0.00    +0.000 C 
ATOM      8  C   UNL     1       1.307   4.638  20.357  0.00  0.00    +0.000 C 
ATOM      9  C   UNL     1       1.536   3.125  20.459  0.00  0.00    +0.000 C 
ATOM     10  C   UNL     1       1.172   2.467  19.124  0.00  0.00    +0.000 C 
ATOM     11  C   UNL     1       2.057   3.035  18.009  0.00  0.00    +0.000 C 
ATOM     12  C   UNL     1       3.536   2.774  18.340  0.00  0.00    +0.000 C 
ATOM     13  C   UNL     1       3.906   3.449  19.670  0.00  0.00    +0.000 C 
ATOM     14  C   UNL     1       3.017   2.871  20.783  0.00  0.00    +0.000 C 
ATOM     15  C   UNL     1       3.673   4.969  19.559  0.00  0.00    +0.000 C 
ATOM     16  C   UNL     1       1.829   4.553  17.903  0.00  0.00    +0.000 C 
ENDBRANCH   4   7
BRANCH   1  23
ATOM     17  C   UNL     1      -1.181  12.775  20.818  0.00  0.00    +0.000 A 
ATOM     18  C   UNL     1      -0.949  14.076  20.353  0.00  0.00    +0.000 A 
ATOM     19  C   UNL     1       0.079  14.328  19.445  0.00  0.00    +0.000 A 
ATOM     20  C   UNL     1       0.805  13.212  19.063  0.00  0.00    +0.000 A 
ATOM     21  O   UNL     1       1.850  13.184  18.196  0.00  0.00    +0.000 OA
ATOM     22  C   UNL     1       2.240  11.886  18.106  0.00  0.00    +0.000 A 
ATOM     23  C   UNL     1       1.453  11.067  18.897  0.00  0.00    +0.000 A 
ATOM     24  C   UNL     1       0.529  11.938  19.542  0.00  0.00    +0.000 A 
ATOM     25  N   UNL     1      -0.466  11.688  20.433  0.00  0.00    +0.000 NA
BRANCH  17  30
ATOM     26  C   UNL     1      -3.641  12.771  21.717  0.00  0.00    +0.000 A 
ATOM     27  N   UNL     1      -4.287  12.392  22.823  0.00  0.00    +0.000 NA
ATOM     28  N   UNL     1      -3.311  11.899  23.601  0.00  0.00    +0.000 N 
ATOM     29  C   UNL     1      -2.077  11.955  23.025  0.00  0.00    +0.000 A 
ATOM     30  C   UNL     1      -2.250  12.523  21.777  0.00  0.00    +0.000 A 
ATOM     31  H   UNL     1      -3.561  11.538  24.516  0.00  0.00    +0.000 HD
ENDBRANCH  17  30
ENDBRANCH   1  23
TORSDOF 3
ENDMDL
MODEL 5
REMARK VINA RESULT:      -9.7      0.071      1.384
REMARK  Name = 
REMARK  3 active torsions:
REMARK  status: ('A' for Active; 'I' for Inactive)
REMARK    1  A    between atoms: C_5  and  C_6
REMARK    2  A    between atoms: C_12  and  C_13
REMARK    3  A    between atoms: C_16  and  C_17
REMARK                            x       y       z     vdW  Elec       q    Type
REMARK                         _______ _______ _______ _____ _____    ______ ____
ROOT
ATOM      1  C   UNL     1       1.602   9.626  19.040  0.00  0.00    +0.000 A 
ATOM      2  C   UNL     1       2.032   8.902  17.930  0.00  0.00    +0.000 A 
ATOM      3  C   UNL     1       2.220   7.516  18.011  0.00  0.00    +0.000 A 
ATOM      4  C   UNL     1       2.003   6.808  19.207  0.00  0.00    +0.000 A 
ATOM      5  C   UNL     1       1.553   7.552  20.310  0.00  0.00    +0.000 A 
ATOM      6  C   UNL     1       1.362   8.936  20.232  0.00  0.00    +0.000 A 
ENDROOT
BRANCH   4   7
ATOM      7  C   UNL     1       2.211   5.286  19.292  0.00  0.00    +0.000 C 
ATOM      8  C   UNL     1       1.820   4.562  17.965  0.00  0.00    +0.000 C 
ATOM      9  C   UNL     1       1.994   3.042  18.076  0.00  0.00    +0.000 C 
ATOM     10  C   UNL     1       3.460   2.722  18.385  0.00  0.00    +0.000 C 
ATOM     11  C   UNL     1       3.862   3.372  19.713  0.00  0.00    +0.000 C 
ATOM     12  C   UNL     1       2.960   2.846  20.841  0.00  0.00    +0.000 C 
ATOM     13  C   UNL     1       1.491   3.183  20.541  0.00  0.00    +0.000 C 
ATOM     14  C   UNL     1       1.094   2.523  19.210  0.00  0.00    +0.000 C 
ATOM     15  C   UNL     1       1.324   4.711  20.430  0.00  0.00    +0.000 C 
ATOM     16  C   UNL     1       3.690   4.897  19.605  0.00  0.00    +0.000 C 
ENDBRANCH   4   7
BRANCH   1  23
ATOM     17  C   UNL     1      -1.255  12.739  20.852  0.00  0.00    +0.000 A 
ATOM     18  C   UNL     1      -1.033  14.044  20.392  0.00  0.00    +0.000 A 
ATOM     19  C   UNL     1       0.002  14.309  19.495  0.00  0.00    +0.000 A 
ATOM     20  C   UNL     1       0.744  13.202  19.118  0.00  0.00    +0.000 A 
ATOM     21  O   UNL     1       1.797  13.187  18.261  0.00  0.00    +0.000 OA
ATOM     22  C   UNL     1       2.203  11.893  18.173  0.00  0.00    +0.000 A 
ATOM     23  C   UNL     1       1.417  11.064  18.954  0.00  0.00    +0.000 A 
ATOM     24  C   UNL     1       0.477  11.924  19.591  0.00  0.00    +0.000 A 
ATOM     25  N   UNL     1      -0.523  11.661  20.473  0.00  0.00    +0.000 NA
BRANCH  17  30
ATOM     26  C   UNL     1      -3.731  12.643  21.701  0.00  0.00    +0.000 A 
ATOM     27  N   UNL     1      -4.380  12.281  22.811  0.00  0.00    +0.000 NA
ATOM     28  N   UNL     1      -3.397  11.877  23.630  0.00  0.00    +0.000 N 
ATOM     29  C   UNL     1      -2.155  11.974  23.077  0.00  0.00    +0.000 A 
ATOM     30  C   UNL     1      -2.329  12.474  21.800  0.00  0.00    +0.000 A 
ATOM     31  H   UNL     1      -3.648  11.545  24.556  0.00  0.00    +0.000 HD
ENDBRANCH  17  30
ENDBRANCH   1  23
TORSDOF 3
ENDMDL
MODEL 6
REMARK VINA RESULT:      -9.6      0.093      1.764
REMARK  Name = 
REMARK  3 active torsions:
REMARK  status: ('A' for Active; 'I' for Inactive)
REMARK    1  A    between atoms: C_5  and  C_6
REMARK    2  A    between atoms: C_12  and  C_13
REMARK    3  A    between atoms: C_16  and  C_17
REMARK                            x       y       z     vdW  Elec       q    Type
REMARK                         _______ _______ _______ _____ _____    ______ ____
ROOT
ATOM      1  C   UNL     1       1.672   9.623  18.967  0.00  0.00    +0.000 A 
ATOM      2  C   UNL     1       1.428   8.963  20.170  0.00  0.00    +0.000 A 
ATOM      3  C   UNL     1       1.588   7.575  20.266  0.00  0.00    +0.000 A 
ATOM      4  C   UNL     1       1.978   6.795  19.162  0.00  0.00    +0.000 A 
ATOM      5  C   UNL     1       2.236   7.480  17.964  0.00  0.00    +0.000 A 
ATOM      6  C   UNL     1       2.079   8.868  17.864  0.00  0.00    +0.000 A 
ENDROOT
BRANCH   4   7
ATOM      7  C   UNL     1       2.153   5.271  19.271  0.00  0.00    +0.000 C 
ATOM      8  C   UNL     1       1.249   4.652  20.384  0.00  0.00    +0.000 C 
ATOM      9  C   UNL     1       1.460   3.137  20.510  0.00  0.00    +0.000 C 
ATOM     10  C   UNL     1       1.112   2.466  19.178  0.00  0.00    +0.000 C 
ATOM     11  C   UNL     1       2.021   3.011  18.071  0.00  0.00    +0.000 C 
ATOM     12  C   UNL     1       3.491   2.738  18.428  0.00  0.00    +0.000 C 
ATOM     13  C   UNL     1       3.846   3.427  19.755  0.00  0.00    +0.000 C 
ATOM     14  C   UNL     1       2.934   2.873  20.861  0.00  0.00    +0.000 C 
ATOM     15  C   UNL     1       3.631   4.948  19.622  0.00  0.00    +0.000 C 
ATOM     16  C   UNL     1       1.810   4.529  17.941  0.00  0.00    +0.000 C 
ENDBRANCH   4   7
BRANCH   1  23
ATOM     17  C   UNL     1      -1.135  12.775  20.790  0.00  0.00    +0.000 A 
ATOM     18  C   UNL     1      -0.911  14.073  20.312  0.00  0.00    +0.000 A 
ATOM     19  C   UNL     1       0.111  14.321  19.396  0.00  0.00    +0.000 A 
ATOM     20  C   UNL     1       0.840  13.206  19.020  0.00  0.00    +0.000 A 
ATOM     21  O   UNL     1       1.879  13.175  18.148  0.00  0.00    +0.000 OA
ATOM     22  C   UNL     1       2.275  11.877  18.067  0.00  0.00    +0.000 A 
ATOM     23  C   UNL     1       1.496  11.062  18.869  0.00  0.00    +0.000 A 
ATOM     24  C   UNL     1       0.572  11.935  19.511  0.00  0.00    +0.000 A 
ATOM     25  N   UNL     1      -0.417  11.688  20.410  0.00  0.00    +0.000 NA
BRANCH  17  30
ATOM     26  C   UNL     1      -2.165  12.001  23.069  0.00  0.00    +0.000 A 
ATOM     27  N   UNL     1      -3.375  11.928  23.632  0.00  0.00    +0.000 NA
ATOM     28  N   UNL     1      -4.191  12.409  22.680  0.00  0.00    +0.000 N 
ATOM     29  C   UNL     1      -3.539  12.778  21.542  0.00  0.00    +0.000 A 
ATOM     30  C   UNL     1      -2.197  12.527  21.757  0.00  0.00    +0.000 A 
ATOM     31  H   UNL     1      -5.185  12.457  22.878  0.00  0.00    +0.000 HD
ENDBRANCH  17  30
ENDBRANCH   1  23
TORSDOF 3
ENDMDL
MODEL 7
REMARK VINA RESULT:      -9.6      2.749      3.647
REMARK  Name = 
REMARK  3 active torsions:
REMARK  status: ('A' for Active; 'I' for Inactive)
REMARK    1  A    between atoms: C_5  and  C_6
REMARK    2  A    between atoms: C_12  and  C_13
REMARK    3  A    between atoms: C_16  and  C_17
REMARK                            x       y       z     vdW  Elec       q    Type
REMARK                         _______ _______ _______ _____ _____    ______ ____
ROOT
ATOM      1  C   UNL     1       1.099   9.128  20.152  0.00  0.00    +0.000 A 
ATOM      2  C   UNL     1       1.366   7.996  20.920  0.00  0.00    +0.000 A 
ATOM      3  C   UNL     1       2.100   6.930  20.386  0.00  0.00    +0.000 A 
ATOM      4  C   UNL     1       2.577   6.947  19.063  0.00  0.00    +0.000 A 
ATOM      5  C   UNL     1       2.313   8.103  18.310  0.00  0.00    +0.000 A 
ATOM      6  C   UNL     1       1.581   9.172  18.841  0.00  0.00    +0.000 A 
ENDROOT
BRANCH   4   7
ATOM      7  C   UNL     1       3.382   5.774  18.480  0.00  0.00    +0.000 C 
ATOM      8  C   UNL     1       4.188   5.008  19.577  0.00  0.00    +0.000 C 
ATOM      9  C   UNL     1       5.018   3.865  18.978  0.00  0.00    +0.000 C 
ATOM     10  C   UNL     1       4.082   2.870  18.285  0.00  0.00    +0.000 C 
ATOM     11  C   UNL     1       3.314   3.577  17.162  0.00  0.00    +0.000 C 
ATOM     12  C   UNL     1       4.308   4.160  16.144  0.00  0.00    +0.000 C 
ATOM     13  C   UNL     1       5.236   5.172  16.835  0.00  0.00    +0.000 C 
ATOM     14  C   UNL     1       6.005   4.455  17.956  0.00  0.00    +0.000 C 
ATOM     15  C   UNL     1       4.395   6.317  17.434  0.00  0.00    +0.000 C 
ATOM     16  C   UNL     1       2.480   4.722  17.760  0.00  0.00    +0.000 C 
ENDBRANCH   4   7
BRANCH   1  23
ATOM     17  C   UNL     1      -2.578  11.592  18.907  0.00  0.00    +0.000 A 
ATOM     18  C   UNL     1      -2.904  12.613  19.808  0.00  0.00    +0.000 A 
ATOM     19  C   UNL     1      -2.162  12.787  20.976  0.00  0.00    +0.000 A 
ATOM     20  C   UNL     1      -1.115  11.895  21.139  0.00  0.00    +0.000 A 
ATOM     21  O   UNL     1      -0.245  11.850  22.180  0.00  0.00    +0.000 OA
ATOM     22  C   UNL     1       0.620  10.836  21.915  0.00  0.00    +0.000 A 
ATOM     23  C   UNL     1       0.328  10.228  20.707  0.00  0.00    +0.000 A 
ATOM     24  C   UNL     1      -0.822  10.906  20.210  0.00  0.00    +0.000 A 
ATOM     25  N   UNL     1      -1.547  10.726  19.075  0.00  0.00    +0.000 NA
BRANCH  17  30
ATOM     26  C   UNL     1      -3.002  11.010  16.388  0.00  0.00    +0.000 A 
ATOM     27  N   UNL     1      -4.038  10.968  15.546  0.00  0.00    +0.000 NA
ATOM     28  N   UNL     1      -5.077  11.340  16.310  0.00  0.00    +0.000 N 
ATOM     29  C   UNL     1      -4.731  11.616  17.599  0.00  0.00    +0.000 A 
ATOM     30  C   UNL     1      -3.368  11.409  17.696  0.00  0.00    +0.000 A 
ATOM     31  H   UNL     1      -5.997  11.384  15.884  0.00  0.00    +0.000 HD
ENDBRANCH  17  30
ENDBRANCH   1  23
TORSDOF 3
ENDMDL
MODEL 8
REMARK VINA RESULT:      -9.6      2.881      3.799
REMARK  Name = 
REMARK  3 active torsions:
REMARK  status: ('A' for Active; 'I' for Inactive)
REMARK    1  A    between atoms: C_5  and  C_6
REMARK    2  A    between atoms: C_12  and  C_13
REMARK    3  A    between atoms: C_16  and  C_17
REMARK                            x       y       z     vdW  Elec       q    Type
REMARK                         _______ _______ _______ _____ _____    ______ ____
ROOT
ATOM      1  C   UNL     1       1.059   9.111  20.030  0.00  0.00    +0.000 A 
ATOM      2  C   UNL     1       1.353   7.991  20.805  0.00  0.00    +0.000 A 
ATOM      3  C   UNL     1       2.153   6.961  20.295  0.00  0.00    +0.000 A 
ATOM      4  C   UNL     1       2.672   7.003  18.989  0.00  0.00    +0.000 A 
ATOM      5  C   UNL     1       2.379   8.147  18.229  0.00  0.00    +0.000 A 
ATOM      6  C   UNL     1       1.581   9.180  18.736  0.00  0.00    +0.000 A 
ENDROOT
BRANCH   4   7
ATOM      7  C   UNL     1       3.550   5.870  18.432  0.00  0.00    +0.000 C 
ATOM      8  C   UNL     1       4.582   6.386  17.379  0.00  0.00    +0.000 C 
ATOM      9  C   UNL     1       5.425   5.241  16.802  0.00  0.00    +0.000 C 
ATOM     10  C   UNL     1       6.195   4.559  17.937  0.00  0.00    +0.000 C 
ATOM     11  C   UNL     1       5.209   3.990  18.963  0.00  0.00    +0.000 C 
ATOM     12  C   UNL     1       4.277   2.978  18.278  0.00  0.00    +0.000 C 
ATOM     13  C   UNL     1       3.490   3.665  17.151  0.00  0.00    +0.000 C 
ATOM     14  C   UNL     1       4.486   4.229  16.124  0.00  0.00    +0.000 C 
ATOM     15  C   UNL     1       2.646   4.814  17.738  0.00  0.00    +0.000 C 
ATOM     16  C   UNL     1       4.363   5.136  19.544  0.00  0.00    +0.000 C 
ENDBRANCH   4   7
BRANCH   1  23
ATOM     17  C   UNL     1      -2.615  11.484  18.614  0.00  0.00    +0.000 A 
ATOM     18  C   UNL     1      -3.029  12.474  19.515  0.00  0.00    +0.000 A 
ATOM     19  C   UNL     1      -2.365  12.644  20.730  0.00  0.00    +0.000 A 
ATOM     20  C   UNL     1      -1.301  11.782  20.938  0.00  0.00    +0.000 A 
ATOM     21  O   UNL     1      -0.495  11.741  22.029  0.00  0.00    +0.000 OA
ATOM     22  C   UNL     1       0.418  10.761  21.796  0.00  0.00    +0.000 A 
ATOM     23  C   UNL     1       0.220  10.173  20.559  0.00  0.00    +0.000 A 
ATOM     24  C   UNL     1      -0.919  10.825  20.008  0.00  0.00    +0.000 A 
ATOM     25  N   UNL     1      -1.568  10.648  18.827  0.00  0.00    +0.000 NA
BRANCH  17  30
ATOM     26  C   UNL     1      -2.865  10.956  16.061  0.00  0.00    +0.000 A 
ATOM     27  N   UNL     1      -3.847  10.897  15.157  0.00  0.00    +0.000 NA
ATOM     28  N   UNL     1      -4.943  11.209  15.866  0.00  0.00    +0.000 N 
ATOM     29  C   UNL     1      -4.686  11.462  17.180  0.00  0.00    +0.000 A 
ATOM     30  C   UNL     1      -3.324  11.304  17.353  0.00  0.00    +0.000 A 
ATOM     31  H   UNL     1      -5.838  11.228  15.386  0.00  0.00    +0.000 HD
ENDBRANCH  17  30
ENDBRANCH   1  23
TORSDOF 3
ENDMDL
MODEL 9
REMARK VINA RESULT:      -9.6      2.485      3.184
REMARK  Name = 
REMARK  3 active torsions:
REMARK  status: ('A' for Active; 'I' for Inactive)
REMARK    1  A    between atoms: C_5  and  C_6
REMARK    2  A    between atoms: C_12  and  C_13
REMARK    3  A    between atoms: C_16  and  C_17
REMARK                            x       y       z     vdW  Elec       q    Type
REMARK                         _______ _______ _______ _____ _____    ______ ____
ROOT
ATOM      1  C   UNL     1       1.116   8.935  20.279  0.00  0.00    +0.000 A 
ATOM      2  C   UNL     1       1.079   7.859  21.163  0.00  0.00    +0.000 A 
ATOM      3  C   UNL     1       1.612   6.617  20.797  0.00  0.00    +0.000 A 
ATOM      4  C   UNL     1       2.184   6.400  19.530  0.00  0.00    +0.000 A 
ATOM      5  C   UNL     1       2.229   7.501  18.660  0.00  0.00    +0.000 A 
ATOM      6  C   UNL     1       1.698   8.745  19.022  0.00  0.00    +0.000 A 
ENDROOT
BRANCH   4   7
ATOM      7  C   UNL     1       2.769   5.035  19.132  0.00  0.00    +0.000 C 
ATOM      8  C   UNL     1       4.331   5.047  19.101  0.00  0.00    +0.000 C 
ATOM      9  C   UNL     1       4.901   3.692  18.664  0.00  0.00    +0.000 C 
ATOM     10  C   UNL     1       4.447   2.611  19.651  0.00  0.00    +0.000 C 
ATOM     11  C   UNL     1       2.917   2.532  19.665  0.00  0.00    +0.000 C 
ATOM     12  C   UNL     1       2.404   2.204  18.253  0.00  0.00    +0.000 C 
ATOM     13  C   UNL     1       2.843   3.298  17.266  0.00  0.00    +0.000 C 
ATOM     14  C   UNL     1       4.378   3.368  17.255  0.00  0.00    +0.000 C 
ATOM     15  C   UNL     1       2.266   4.657  17.711  0.00  0.00    +0.000 C 
ATOM     16  C   UNL     1       2.342   3.890  20.103  0.00  0.00    +0.000 C 
ENDBRANCH   4   7
BRANCH   1  23
ATOM     17  C   UNL     1      -2.252  11.680  18.777  0.00  0.00    +0.000 A 
ATOM     18  C   UNL     1      -2.363  12.880  19.491  0.00  0.00    +0.000 A 
ATOM     19  C   UNL     1      -1.521  13.137  20.573  0.00  0.00    +0.000 A 
ATOM     20  C   UNL     1      -0.603  12.138  20.847  0.00  0.00    +0.000 A 
ATOM     21  O   UNL     1       0.325  12.141  21.837  0.00  0.00    +0.000 OA
ATOM     22  C   UNL     1       1.016  10.976  21.722  0.00  0.00    +0.000 A 
ATOM     23  C   UNL     1       0.553  10.220  20.659  0.00  0.00    +0.000 A 
ATOM     24  C   UNL     1      -0.522  10.970  20.100  0.00  0.00    +0.000 A 
ATOM     25  N   UNL     1      -1.346  10.709  19.052  0.00  0.00    +0.000 NA
BRANCH  17  30
ATOM     26  C   UNL     1      -2.886  11.041  16.317  0.00  0.00    +0.000 A 
ATOM     27  N   UNL     1      -3.997  10.894  15.590  0.00  0.00    +0.000 NA
ATOM     28  N   UNL     1      -4.979  11.174  16.462  0.00  0.00    +0.000 N 
ATOM     29  C   UNL     1      -4.525  11.491  17.707  0.00  0.00    +0.000 A 
ATOM     30  C   UNL     1      -3.146  11.414  17.657  0.00  0.00    +0.000 A 
ATOM     31  H   UNL     1      -5.939  11.126  16.137  0.00  0.00    +0.000 HD
ENDBRANCH  17  30
ENDBRANCH   1  23
TORSDOF 3
ENDMDL
