MODEL 1
REMARK VINA RESULT:      -7.9      0.000      0.000
REMARK  Name = 
REMARK  8 active torsions:
REMARK  status: ('A' for Active; 'I' for Inactive)
REMARK    1  A    between atoms: C_1  and  C_2
REMARK    2  A    between atoms: C_8  and  C_9
REMARK    3  A    between atoms: C_9  and  N_10
REMARK    4  A    between atoms: N_13  and  C_14
REMARK    5  A    between atoms: C_14  and  C_15
REMARK    6  A    between atoms: C_15  and  C_16
REMARK    7  A    between atoms: C_16  and  O_18
REMARK    8  A    between atoms: N_26  and  C_27
REMARK                            x       y       z     vdW  Elec       q    Type
REMARK                         _______ _______ _______ _____ _____    ______ ____
ROOT
ATOM      1  N   UNL     1       2.820   6.021  18.978  0.00  0.00    +0.000 N 
ATOM      2  C   UNL     1       3.983   5.925  18.184  0.00  0.00    +0.000 A 
ATOM      3  O   UNL     1       4.786   6.820  17.961  0.00  0.00    +0.000 OA
ATOM      4  N   UNL     1       4.102   4.569  17.792  0.00  0.00    +0.000 N 
ATOM      5  C   UNL     1       3.029   3.850  18.342  0.00  0.00    +0.000 A 
ATOM      6  C   UNL     1       2.746   2.499  18.307  0.00  0.00    +0.000 A 
ATOM      7  C   UNL     1       1.654   2.051  19.056  0.00  0.00    +0.000 A 
ATOM      8  C   UNL     1       0.867   2.951  19.801  0.00  0.00    +0.000 A 
ATOM      9  C   UNL     1       1.154   4.320  19.809  0.00  0.00    +0.000 A 
ATOM     10  C   UNL     1       2.244   4.743  19.077  0.00  0.00    +0.000 A 
ENDROOT
BRANCH   1  11
ATOM     11  C   UNL     1       2.590   7.098  19.923  0.00  0.00    +0.000 C 
BRANCH  11  19
ATOM     12  C   UNL     1      -0.868  10.331  23.213  0.00  0.00    +0.000 C 
ATOM     13  C   UNL     1      -0.313  10.105  21.850  0.00  0.00    +0.000 A 
ATOM     14  C   UNL     1      -0.712  10.644  20.650  0.00  0.00    +0.000 A 
ATOM     15  C   UNL     1       0.075  10.059  19.623  0.00  0.00    +0.000 A 
ATOM     16  C   UNL     1       0.104  10.253  18.230  0.00  0.00    +0.000 A 
ATOM     17  C   UNL     1       0.949   9.478  17.444  0.00  0.00    +0.000 A 
ATOM     18  C   UNL     1       1.717   8.478  18.028  0.00  0.00    +0.000 A 
ATOM     19  C   UNL     1       1.721   8.231  19.422  0.00  0.00    +0.000 A 
ATOM     20  C   UNL     1       0.926   9.108  20.216  0.00  0.00    +0.000 A 
ATOM     21  N   UNL     1       0.790   9.312  21.586  0.00  0.00    +0.000 N 
ATOM     22  C   UNL     1       1.733   8.938  22.617  0.00  0.00    +0.000 C 
ENDBRANCH  11  19
ENDBRANCH   1  11
BRANCH   4  23
ATOM     23  C   UNL     1       5.281   3.976  17.182  0.00  0.00    +0.000 C 
BRANCH  23  24
ATOM     24  C   UNL     1       5.507   4.501  15.763  0.00  0.00    +0.000 C 
BRANCH  24  25
ATOM     25  C   UNL     1       6.860   5.136  15.601  0.00  0.00    +0.000 C 
ATOM     26  O   UNL     1       7.457   5.260  14.546  0.00  0.00    +0.000 OA
BRANCH  25  27
ATOM     27  O   UNL     1       7.375   5.547  16.784  0.00  0.00    +0.000 OA
ATOM     28  H   UNL     1       8.197   6.067  16.697  0.00  0.00    +0.000 HD
ENDBRANCH  25  27
ENDBRANCH  24  25
ENDBRANCH  23  24
ENDBRANCH   4  23
TORSDOF 6
ENDMDL
MODEL 2
REMARK VINA RESULT:      -7.6      5.601      9.776
REMARK  Name = 
REMARK  8 active torsions:
REMARK  status: ('A' for Active; 'I' for Inactive)
REMARK    1  A    between atoms: C_1  and  C_2
REMARK    2  A    between atoms: C_8  and  C_9
REMARK    3  A    between atoms: C_9  and  N_10
REMARK    4  A    between atoms: N_13  and  C_14
REMARK    5  A    between atoms: C_14  and  C_15
REMARK    6  A    between atoms: C_15  and  C_16
REMARK    7  A    between atoms: C_16  and  O_18
REMARK    8  A    between atoms: N_26  and  C_27
REMARK                            x       y       z     vdW  Elec       q    Type
REMARK                         _______ _______ _______ _____ _____    ______ ____
ROOT
ATOM      1  N   UNL     1      -2.563  11.787  19.437  0.00  0.00    +0.000 N 
ATOM      2  C   UNL     1      -3.718  12.433  19.930  0.00  0.00    +0.000 A 
ATOM      3  O   UNL     1      -3.809  13.058  20.977  0.00  0.00    +0.000 OA
ATOM      4  N   UNL     1      -4.713  12.315  18.929  0.00  0.00    +0.000 N 
ATOM      5  C   UNL     1      -4.172  11.611  17.842  0.00  0.00    +0.000 A 
ATOM      6  C   UNL     1      -4.719  11.308  16.611  0.00  0.00    +0.000 A 
ATOM      7  C   UNL     1      -3.888  10.690  15.672  0.00  0.00    +0.000 A 
ATOM      8  C   UNL     1      -2.551  10.373  15.984  0.00  0.00    +0.000 A 
ATOM      9  C   UNL     1      -2.018  10.667  17.244  0.00  0.00    +0.000 A 
ATOM     10  C   UNL     1      -2.846  11.292  18.153  0.00  0.00    +0.000 A 
ENDROOT
BRANCH   1  11
ATOM     11  C   UNL     1      -1.227  12.061  19.931  0.00  0.00    +0.000 C 
BRANCH  11  19
ATOM     12  C   UNL     1       2.343   7.737  18.592  0.00  0.00    +0.000 C 
ATOM     13  C   UNL     1       1.631   8.462  19.680  0.00  0.00    +0.000 A 
ATOM     14  C   UNL     1       1.447   8.095  20.992  0.00  0.00    +0.000 A 
ATOM     15  C   UNL     1       0.634   9.079  21.614  0.00  0.00    +0.000 A 
ATOM     16  C   UNL     1       0.156   9.214  22.929  0.00  0.00    +0.000 A 
ATOM     17  C   UNL     1      -0.695  10.266  23.247  0.00  0.00    +0.000 A 
ATOM     18  C   UNL     1      -1.115  11.145  22.257  0.00  0.00    +0.000 A 
ATOM     19  C   UNL     1      -0.675  11.051  20.914  0.00  0.00    +0.000 A 
ATOM     20  C   UNL     1       0.278  10.028  20.636  0.00  0.00    +0.000 A 
ATOM     21  N   UNL     1       1.064   9.715  19.532  0.00  0.00    +0.000 N 
ATOM     22  C   UNL     1       1.426  10.601  18.447  0.00  0.00    +0.000 C 
ENDBRANCH  11  19
ENDBRANCH   1  11
BRANCH   4  23
ATOM     23  C   UNL     1      -5.969  13.048  18.910  0.00  0.00    +0.000 C 
BRANCH  23  24
ATOM     24  C   UNL     1      -7.093  12.260  19.583  0.00  0.00    +0.000 C 
BRANCH  24  25
ATOM     25  C   UNL     1      -7.233  12.601  21.041  0.00  0.00    +0.000 C 
ATOM     26  O   UNL     1      -7.898  13.520  21.487  0.00  0.00    +0.000 OA
BRANCH  25  27
ATOM     27  O   UNL     1      -6.505  11.777  21.830  0.00  0.00    +0.000 OA
ATOM     28  H   UNL     1      -6.152  12.208  22.631  0.00  0.00    +0.000 HD
ENDBRANCH  25  27
ENDBRANCH  24  25
ENDBRANCH  23  24
ENDBRANCH   4  23
TORSDOF 6
ENDMDL
MODEL 3
REMARK VINA RESULT:      -7.3      5.000      8.785
REMARK  Name = 
REMARK  8 active torsions:
REMARK  status: ('A' for Active; 'I' for Inactive)
REMARK    1  A    between atoms: C_1  and  C_2
REMARK    2  A    between atoms: C_8  and  C_9
REMARK    3  A    between atoms: C_9  and  N_10
REMARK    4  A    between atoms: N_13  and  C_14
REMARK    5  A    between atoms: C_14  and  C_15
REMARK    6  A    between atoms: C_15  and  C_16
REMARK    7  A    between atoms: C_16  and  O_18
REMARK    8  A    between atoms: N_26  and  C_27
REMARK                            x       y       z     vdW  Elec       q    Type
REMARK                         _______ _______ _______ _____ _____    ______ ____
ROOT
ATOM      1  N   UNL     1      -2.308  12.641  19.782  0.00  0.00    +0.000 N 
ATOM      2  C   UNL     1      -2.469  11.952  18.559  0.00  0.00    +0.000 A 
ATOM      3  O   UNL     1      -1.575  11.598  17.803  0.00  0.00    +0.000 OA
ATOM      4  N   UNL     1      -3.847  11.650  18.436  0.00  0.00    +0.000 N 
ATOM      5  C   UNL     1      -4.515  12.146  19.566  0.00  0.00    +0.000 A 
ATOM      6  C   UNL     1      -5.840  12.039  19.940  0.00  0.00    +0.000 A 
ATOM      7  C   UNL     1      -6.196  12.537  21.197  0.00  0.00    +0.000 A 
ATOM      8  C   UNL     1      -5.239  13.141  22.035  0.00  0.00    +0.000 A 
ATOM      9  C   UNL     1      -3.904  13.261  21.633  0.00  0.00    +0.000 A 
ATOM     10  C   UNL     1      -3.566  12.749  20.397  0.00  0.00    +0.000 A 
ENDROOT
BRANCH   1  11
ATOM     11  C   UNL     1      -1.043  12.727  20.485  0.00  0.00    +0.000 C 
BRANCH  11  19
ATOM     12  C   UNL     1       2.190   8.594  18.096  0.00  0.00    +0.000 C 
ATOM     13  C   UNL     1       1.517   9.080  19.332  0.00  0.00    +0.000 A 
ATOM     14  C   UNL     1       1.276   8.411  20.509  0.00  0.00    +0.000 A 
ATOM     15  C   UNL     1       0.534   9.272  21.360  0.00  0.00    +0.000 A 
ATOM     16  C   UNL     1       0.041   9.112  22.667  0.00  0.00    +0.000 A 
ATOM     17  C   UNL     1      -0.728  10.118  23.241  0.00  0.00    +0.000 A 
ATOM     18  C   UNL     1      -1.055  11.249  22.504  0.00  0.00    +0.000 A 
ATOM     19  C   UNL     1      -0.596  11.459  21.181  0.00  0.00    +0.000 A 
ATOM     20  C   UNL     1       0.276  10.463  20.654  0.00  0.00    +0.000 A 
ATOM     21  N   UNL     1       1.057  10.373  19.506  0.00  0.00    +0.000 N 
ATOM     22  C   UNL     1       1.513  11.470  18.680  0.00  0.00    +0.000 C 
ENDBRANCH  11  19
ENDBRANCH   1  11
BRANCH   4  23
ATOM     23  C   UNL     1      -4.417  10.735  17.461  0.00  0.00    +0.000 C 
BRANCH  23  24
ATOM     24  C   UNL     1      -4.284  11.273  16.035  0.00  0.00    +0.000 C 
BRANCH  24  25
ATOM     25  C   UNL     1      -3.532  10.327  15.139  0.00  0.00    +0.000 C 
ATOM     26  O   UNL     1      -3.794  10.109  13.970  0.00  0.00    +0.000 OA
BRANCH  25  27
ATOM     27  O   UNL     1      -2.519   9.706  15.789  0.00  0.00    +0.000 OA
ATOM     28  H   UNL     1      -2.381  10.026  16.701  0.00  0.00    +0.000 HD
ENDBRANCH  25  27
ENDBRANCH  24  25
ENDBRANCH  23  24
ENDBRANCH   4  23
TORSDOF 6
ENDMDL
MODEL 4
REMARK VINA RESULT:      -7.0      2.428      5.247
REMARK  Name = 
REMARK  8 active torsions:
REMARK  status: ('A' for Active; 'I' for Inactive)
REMARK    1  A    between atoms: C_1  and  C_2
REMARK    2  A    between atoms: C_8  and  C_9
REMARK    3  A    between atoms: C_9  and  N_10
REMARK    4  A    between atoms: N_13  and  C_14
REMARK    5  A    between atoms: C_14  and  C_15
REMARK    6  A    between atoms: C_15  and  C_16
REMARK    7  A    between atoms: C_16  and  O_18
REMARK    8  A    between atoms: N_26  and  C_27
REMARK                            x       y       z     vdW  Elec       q    Type
REMARK                         _______ _______ _______ _____ _____    ______ ____
ROOT
ATOM      1  N   UNL     1       4.641   3.919  17.359  0.00  0.00    +0.000 N 
ATOM      2  C   UNL     1       5.583   4.299  18.340  0.00  0.00    +0.000 A 
ATOM      3  O   UNL     1       5.471   4.154  19.550  0.00  0.00    +0.000 OA
ATOM      4  N   UNL     1       6.727   4.771  17.650  0.00  0.00    +0.000 N 
ATOM      5  C   UNL     1       6.485   4.678  16.271  0.00  0.00    +0.000 A 
ATOM      6  C   UNL     1       7.312   4.946  15.198  0.00  0.00    +0.000 A 
ATOM      7  C   UNL     1       6.829   4.643  13.922  0.00  0.00    +0.000 A 
ATOM      8  C   UNL     1       5.540   4.103  13.743  0.00  0.00    +0.000 A 
ATOM      9  C   UNL     1       4.705   3.858  14.839  0.00  0.00    +0.000 A 
ATOM     10  C   UNL     1       5.203   4.148  16.092  0.00  0.00    +0.000 A 
ENDROOT
BRANCH   1  11
ATOM     11  C   UNL     1       3.555   2.993  17.618  0.00  0.00    +0.000 C 
BRANCH  11  19
ATOM     12  C   UNL     1       2.038   8.145  19.712  0.00  0.00    +0.000 C 
ATOM     13  C   UNL     1       1.959   6.668  19.882  0.00  0.00    +0.000 A 
ATOM     14  C   UNL     1       1.535   5.941  20.969  0.00  0.00    +0.000 A 
ATOM     15  C   UNL     1       1.723   4.564  20.677  0.00  0.00    +0.000 A 
ATOM     16  C   UNL     1       1.448   3.397  21.412  0.00  0.00    +0.000 A 
ATOM     17  C   UNL     1       1.806   2.157  20.895  0.00  0.00    +0.000 A 
ATOM     18  C   UNL     1       2.484   2.078  19.685  0.00  0.00    +0.000 A 
ATOM     19  C   UNL     1       2.796   3.219  18.907  0.00  0.00    +0.000 A 
ATOM     20  C   UNL     1       2.326   4.468  19.408  0.00  0.00    +0.000 A 
ATOM     21  N   UNL     1       2.270   5.757  18.888  0.00  0.00    +0.000 N 
ATOM     22  C   UNL     1       2.330   6.132  17.492  0.00  0.00    +0.000 C 
ENDBRANCH  11  19
ENDBRANCH   1  11
BRANCH   4  23
ATOM     23  C   UNL     1       8.023   5.025  18.258  0.00  0.00    +0.000 C 
BRANCH  23  24
ATOM     24  C   UNL     1       7.999   6.275  19.138  0.00  0.00    +0.000 C 
BRANCH  24  25
ATOM     25  C   UNL     1       8.162   7.537  18.337  0.00  0.00    +0.000 C 
ATOM     26  O   UNL     1       7.734   7.715  17.210  0.00  0.00    +0.000 OA
BRANCH  25  27
ATOM     27  O   UNL     1       8.876   8.475  19.003  0.00  0.00    +0.000 OA
ATOM     28  H   UNL     1       8.327   9.092  19.524  0.00  0.00    +0.000 HD
ENDBRANCH  25  27
ENDBRANCH  24  25
ENDBRANCH  23  24
ENDBRANCH   4  23
TORSDOF 6
ENDMDL
MODEL 5
REMARK VINA RESULT:      -6.8      5.599      9.773
REMARK  Name = 
REMARK  8 active torsions:
REMARK  status: ('A' for Active; 'I' for Inactive)
REMARK    1  A    between atoms: C_1  and  C_2
REMARK    2  A    between atoms: C_8  and  C_9
REMARK    3  A    between atoms: C_9  and  N_10
REMARK    4  A    between atoms: N_13  and  C_14
REMARK    5  A    between atoms: C_14  and  C_15
REMARK    6  A    between atoms: C_15  and  C_16
REMARK    7  A    between atoms: C_16  and  O_18
REMARK    8  A    between atoms: N_26  and  C_27
REMARK                            x       y       z     vdW  Elec       q    Type
REMARK                         _______ _______ _______ _____ _____    ______ ____
ROOT
ATOM      1  N   UNL     1      -2.388  11.944  19.849  0.00  0.00    +0.000 N 
ATOM      2  C   UNL     1      -3.401  12.741  20.426  0.00  0.00    +0.000 A 
ATOM      3  O   UNL     1      -3.304  13.416  21.441  0.00  0.00    +0.000 OA
ATOM      4  N   UNL     1      -4.508  12.699  19.544  0.00  0.00    +0.000 N 
ATOM      5  C   UNL     1      -4.174  11.891  18.446  0.00  0.00    +0.000 A 
ATOM      6  C   UNL     1      -4.885  11.604  17.298  0.00  0.00    +0.000 A 
ATOM      7  C   UNL     1      -4.238  10.853  16.312  0.00  0.00    +0.000 A 
ATOM      8  C   UNL     1      -2.919  10.396  16.497  0.00  0.00    +0.000 A 
ATOM      9  C   UNL     1      -2.219  10.677  17.675  0.00  0.00    +0.000 A 
ATOM     10  C   UNL     1      -2.866  11.432  18.631  0.00  0.00    +0.000 A 
ENDROOT
BRANCH   1  11
ATOM     11  C   UNL     1      -0.983  12.079  20.185  0.00  0.00    +0.000 C 
BRANCH  11  19
ATOM     12  C   UNL     1       2.359   7.888  18.062  0.00  0.00    +0.000 C 
ATOM     13  C   UNL     1       1.747   8.486  19.281  0.00  0.00    +0.000 A 
ATOM     14  C   UNL     1       1.646   7.961  20.547  0.00  0.00    +0.000 A 
ATOM     15  C   UNL     1       0.907   8.875  21.344  0.00  0.00    +0.000 A 
ATOM     16  C   UNL     1       0.528   8.854  22.698  0.00  0.00    +0.000 A 
ATOM     17  C   UNL     1      -0.269   9.874  23.205  0.00  0.00    +0.000 A 
ATOM     18  C   UNL     1      -0.733  10.878  22.364  0.00  0.00    +0.000 A 
ATOM     19  C   UNL     1      -0.392  10.944  20.992  0.00  0.00    +0.000 A 
ATOM     20  C   UNL     1       0.509   9.946  20.520  0.00  0.00    +0.000 A 
ATOM     21  N   UNL     1       1.206   9.758  19.331  0.00  0.00    +0.000 N 
ATOM     22  C   UNL     1       1.516  10.766  18.340  0.00  0.00    +0.000 C 
ENDBRANCH  11  19
ENDBRANCH   1  11
BRANCH   4  23
ATOM     23  C   UNL     1      -5.668  13.573  19.618  0.00  0.00    +0.000 C 
BRANCH  23  24
ATOM     24  C   UNL     1      -6.691  13.070  20.637  0.00  0.00    +0.000 C 
BRANCH  24  25
ATOM     25  C   UNL     1      -7.490  11.908  20.114  0.00  0.00    +0.000 C 
ATOM     26  O   UNL     1      -7.746  10.893  20.737  0.00  0.00    +0.000 OA
BRANCH  25  27
ATOM     27  O   UNL     1      -7.887  12.099  18.833  0.00  0.00    +0.000 OA
ATOM     28  H   UNL     1      -7.482  11.478  18.198  0.00  0.00    +0.000 HD
ENDBRANCH  25  27
ENDBRANCH  24  25
ENDBRANCH  23  24
ENDBRANCH   4  23
TORSDOF 6
ENDMDL
MODEL 6
REMARK VINA RESULT:      -6.7      5.934     10.018
REMARK  Name = 
REMARK  8 active torsions:
REMARK  status: ('A' for Active; 'I' for Inactive)
REMARK    1  A    between atoms: C_1  and  C_2
REMARK    2  A    between atoms: C_8  and  C_9
REMARK    3  A    between atoms: C_9  and  N_10
REMARK    4  A    between atoms: N_13  and  C_14
REMARK    5  A    between atoms: C_14  and  C_15
REMARK    6  A    between atoms: C_15  and  C_16
REMARK    7  A    between atoms: C_16  and  O_18
REMARK    8  A    between atoms: N_26  and  C_27
REMARK                            x       y       z     vdW  Elec       q    Type
REMARK                         _______ _______ _______ _____ _____    ______ ____
ROOT
ATOM      1  N   UNL     1      -2.852  12.019  19.798  0.00  0.00    +0.000 N 
ATOM      2  C   UNL     1      -4.043  12.552  20.338  0.00  0.00    +0.000 A 
ATOM      3  O   UNL     1      -4.168  13.094  21.428  0.00  0.00    +0.000 OA
ATOM      4  N   UNL     1      -5.036  12.442  19.334  0.00  0.00    +0.000 N 
ATOM      5  C   UNL     1      -4.457  11.854  18.198  0.00  0.00    +0.000 A 
ATOM      6  C   UNL     1      -4.991  11.605  16.949  0.00  0.00    +0.000 A 
ATOM      7  C   UNL     1      -4.128  11.110  15.967  0.00  0.00    +0.000 A 
ATOM      8  C   UNL     1      -2.771  10.860  16.253  0.00  0.00    +0.000 A 
ATOM      9  C   UNL     1      -2.250  11.097  17.530  0.00  0.00    +0.000 A 
ATOM     10  C   UNL     1      -3.111  11.600  18.482  0.00  0.00    +0.000 A 
ENDROOT
BRANCH   1  11
ATOM     11  C   UNL     1      -1.534  12.343  20.309  0.00  0.00    +0.000 C 
BRANCH  11  19
ATOM     12  C   UNL     1       2.140   8.417  18.229  0.00  0.00    +0.000 C 
ATOM     13  C   UNL     1       1.473   8.968  19.441  0.00  0.00    +0.000 A 
ATOM     14  C   UNL     1       1.400   8.439  20.708  0.00  0.00    +0.000 A 
ATOM     15  C   UNL     1       0.586   9.295  21.495  0.00  0.00    +0.000 A 
ATOM     16  C   UNL     1       0.196   9.248  22.845  0.00  0.00    +0.000 A 
ATOM     17  C   UNL     1      -0.682  10.205  23.342  0.00  0.00    +0.000 A 
ATOM     18  C   UNL     1      -1.214  11.168  22.494  0.00  0.00    +0.000 A 
ATOM     19  C   UNL     1      -0.865  11.258  21.124  0.00  0.00    +0.000 A 
ATOM     20  C   UNL     1       0.115  10.331  20.665  0.00  0.00    +0.000 A 
ATOM     21  N   UNL     1       0.835  10.196  19.482  0.00  0.00    +0.000 N 
ATOM     22  C   UNL     1       1.077  11.222  18.491  0.00  0.00    +0.000 C 
ENDBRANCH  11  19
ENDBRANCH   1  11
BRANCH   4  23
ATOM     23  C   UNL     1      -6.336  13.091  19.369  0.00  0.00    +0.000 C 
BRANCH  23  24
ATOM     24  C   UNL     1      -6.245  14.561  18.958  0.00  0.00    +0.000 C 
BRANCH  24  25
ATOM     25  C   UNL     1      -6.937  14.828  17.649  0.00  0.00    +0.000 C 
ATOM     26  O   UNL     1      -7.575  14.009  17.011  0.00  0.00    +0.000 OA
BRANCH  25  27
ATOM     27  O   UNL     1      -6.753  16.101  17.226  0.00  0.00    +0.000 OA
ATOM     28  H   UNL     1      -7.194  16.770  17.784  0.00  0.00    +0.000 HD
ENDBRANCH  25  27
ENDBRANCH  24  25
ENDBRANCH  23  24
ENDBRANCH   4  23
TORSDOF 6
ENDMDL
MODEL 7
REMARK VINA RESULT:      -6.7      6.885      9.314
REMARK  Name = 
REMARK  8 active torsions:
REMARK  status: ('A' for Active; 'I' for Inactive)
REMARK    1  A    between atoms: C_1  and  C_2
REMARK    2  A    between atoms: C_8  and  C_9
REMARK    3  A    between atoms: C_9  and  N_10
REMARK    4  A    between atoms: N_13  and  C_14
REMARK    5  A    between atoms: C_14  and  C_15
REMARK    6  A    between atoms: C_15  and  C_16
REMARK    7  A    between atoms: C_16  and  O_18
REMARK    8  A    between atoms: N_26  and  C_27
REMARK                            x       y       z     vdW  Elec       q    Type
REMARK                         _______ _______ _______ _____ _____    ______ ____
ROOT
ATOM      1  N   UNL     1      -4.263  12.254  18.375  0.00  0.00    +0.000 N 
ATOM      2  C   UNL     1      -3.302  12.202  19.409  0.00  0.00    +0.000 A 
ATOM      3  O   UNL     1      -3.409  12.689  20.526  0.00  0.00    +0.000 OA
ATOM      4  N   UNL     1      -2.244  11.382  18.946  0.00  0.00    +0.000 N 
ATOM      5  C   UNL     1      -2.557  10.940  17.651  0.00  0.00    +0.000 A 
ATOM      6  C   UNL     1      -1.883  10.070  16.815  0.00  0.00    +0.000 A 
ATOM      7  C   UNL     1      -2.506   9.721  15.614  0.00  0.00    +0.000 A 
ATOM      8  C   UNL     1      -3.763  10.253  15.266  0.00  0.00    +0.000 A 
ATOM      9  C   UNL     1      -4.423  11.149  16.114  0.00  0.00    +0.000 A 
ATOM     10  C   UNL     1      -3.802  11.471  17.303  0.00  0.00    +0.000 A 
ENDROOT
BRANCH   1  11
ATOM     11  C   UNL     1      -5.654  12.596  18.600  0.00  0.00    +0.000 C 
BRANCH  11  19
ATOM     12  C   UNL     1      -7.593  13.724  23.911  0.00  0.00    +0.000 C 
ATOM     13  C   UNL     1      -7.551  12.744  22.791  0.00  0.00    +0.000 A 
ATOM     14  C   UNL     1      -7.916  11.419  22.783  0.00  0.00    +0.000 A 
ATOM     15  C   UNL     1      -7.615  10.887  21.502  0.00  0.00    +0.000 A 
ATOM     16  C   UNL     1      -7.795   9.609  20.944  0.00  0.00    +0.000 A 
ATOM     17  C   UNL     1      -7.335   9.348  19.658  0.00  0.00    +0.000 A 
ATOM     18  C   UNL     1      -6.651  10.329  18.952  0.00  0.00    +0.000 A 
ATOM     19  C   UNL     1      -6.432  11.630  19.467  0.00  0.00    +0.000 A 
ATOM     20  C   UNL     1      -7.004  11.904  20.743  0.00  0.00    +0.000 A 
ATOM     21  N   UNL     1      -7.164  13.060  21.501  0.00  0.00    +0.000 N 
ATOM     22  C   UNL     1      -7.132  14.424  21.019  0.00  0.00    +0.000 C 
ENDBRANCH  11  19
ENDBRANCH   1  11
BRANCH   4  23
ATOM     23  C   UNL     1      -1.172  10.855  19.774  0.00  0.00    +0.000 C 
BRANCH  23  24
ATOM     24  C   UNL     1       0.041  11.787  19.790  0.00  0.00    +0.000 C 
BRANCH  24  25
ATOM     25  C   UNL     1       0.757  11.764  21.111  0.00  0.00    +0.000 C 
ATOM     26  O   UNL     1       0.596  10.930  21.984  0.00  0.00    +0.000 OA
BRANCH  25  27
ATOM     27  O   UNL     1       1.607  12.810  21.248  0.00  0.00    +0.000 OA
ATOM     28  H   UNL     1       2.475  12.566  21.622  0.00  0.00    +0.000 HD
ENDBRANCH  25  27
ENDBRANCH  24  25
ENDBRANCH  23  24
ENDBRANCH   4  23
TORSDOF 6
ENDMDL
MODEL 8
REMARK VINA RESULT:      -6.7      2.837      6.958
REMARK  Name = 
REMARK  8 active torsions:
REMARK  status: ('A' for Active; 'I' for Inactive)
REMARK    1  A    between atoms: C_1  and  C_2
REMARK    2  A    between atoms: C_8  and  C_9
REMARK    3  A    between atoms: C_9  and  N_10
REMARK    4  A    between atoms: N_13  and  C_14
REMARK    5  A    between atoms: C_14  and  C_15
REMARK    6  A    between atoms: C_15  and  C_16
REMARK    7  A    between atoms: C_16  and  O_18
REMARK    8  A    between atoms: N_26  and  C_27
REMARK                            x       y       z     vdW  Elec       q    Type
REMARK                         _______ _______ _______ _____ _____    ______ ____
ROOT
ATOM      1  N   UNL     1       1.670   8.709  18.980  0.00  0.00    +0.000 N 
ATOM      2  C   UNL     1       1.742   9.984  18.377  0.00  0.00    +0.000 A 
ATOM      3  O   UNL     1       2.103  10.228  17.234  0.00  0.00    +0.000 OA
ATOM      4  N   UNL     1       1.206  10.909  19.307  0.00  0.00    +0.000 N 
ATOM      5  C   UNL     1       0.812  10.207  20.457  0.00  0.00    +0.000 A 
ATOM      6  C   UNL     1       0.176  10.649  21.601  0.00  0.00    +0.000 A 
ATOM      7  C   UNL     1      -0.201   9.684  22.540  0.00  0.00    +0.000 A 
ATOM      8  C   UNL     1       0.077   8.320  22.331  0.00  0.00    +0.000 A 
ATOM      9  C   UNL     1       0.741   7.890  21.176  0.00  0.00    +0.000 A 
ATOM     10  C   UNL     1       1.092   8.852  20.252  0.00  0.00    +0.000 A 
ENDROOT
BRANCH   1  11
ATOM     11  C   UNL     1       1.689   7.471  18.224  0.00  0.00    +0.000 C 
BRANCH  11  19
ATOM     12  C   UNL     1       3.064   2.585  20.957  0.00  0.00    +0.000 C 
ATOM     13  C   UNL     1       3.506   3.631  19.994  0.00  0.00    +0.000 A 
ATOM     14  C   UNL     1       4.763   3.873  19.493  0.00  0.00    +0.000 A 
ATOM     15  C   UNL     1       4.693   5.030  18.672  0.00  0.00    +0.000 A 
ATOM     16  C   UNL     1       5.662   5.705  17.908  0.00  0.00    +0.000 A 
ATOM     17  C   UNL     1       5.319   6.877  17.243  0.00  0.00    +0.000 A 
ATOM     18  C   UNL     1       4.042   7.406  17.379  0.00  0.00    +0.000 A 
ATOM     19  C   UNL     1       3.030   6.776  18.143  0.00  0.00    +0.000 A 
ATOM     20  C   UNL     1       3.375   5.524  18.729  0.00  0.00    +0.000 A 
ATOM     21  N   UNL     1       2.651   4.533  19.386  0.00  0.00    +0.000 N 
ATOM     22  C   UNL     1       1.222   4.316  19.320  0.00  0.00    +0.000 C 
ENDBRANCH  11  19
ENDBRANCH   1  11
BRANCH   4  23
ATOM     23  C   UNL     1       0.855  12.287  19.007  0.00  0.00    +0.000 C 
BRANCH  23  24
ATOM     24  C   UNL     1       1.906  13.265  19.532  0.00  0.00    +0.000 C 
BRANCH  24  25
ATOM     25  C   UNL     1       2.907  13.645  18.476  0.00  0.00    +0.000 C 
ATOM     26  O   UNL     1       3.922  14.291  18.669  0.00  0.00    +0.000 OA
BRANCH  25  27
ATOM     27  O   UNL     1       2.544  13.205  17.248  0.00  0.00    +0.000 OA
ATOM     28  H   UNL     1       2.064  13.869  16.717  0.00  0.00    +0.000 HD
ENDBRANCH  25  27
ENDBRANCH  24  25
ENDBRANCH  23  24
ENDBRANCH   4  23
TORSDOF 6
ENDMDL
MODEL 9
REMARK VINA RESULT:      -6.6      2.888      7.234
REMARK  Name = 
REMARK  8 active torsions:
REMARK  status: ('A' for Active; 'I' for Inactive)
REMARK    1  A    between atoms: C_1  and  C_2
REMARK    2  A    between atoms: C_8  and  C_9
REMARK    3  A    between atoms: C_9  and  N_10
REMARK    4  A    between atoms: N_13  and  C_14
REMARK    5  A    between atoms: C_14  and  C_15
REMARK    6  A    between atoms: C_15  and  C_16
REMARK    7  A    between atoms: C_16  and  O_18
REMARK    8  A    between atoms: N_26  and  C_27
REMARK                            x       y       z     vdW  Elec       q    Type
REMARK                         _______ _______ _______ _____ _____    ______ ____
ROOT
ATOM      1  N   UNL     1       1.670   8.759  18.993  0.00  0.00    +0.000 N 
ATOM      2  C   UNL     1       1.743  10.016  18.352  0.00  0.00    +0.000 A 
ATOM      3  O   UNL     1       2.085  10.223  17.196  0.00  0.00    +0.000 OA
ATOM      4  N   UNL     1       1.236  10.973  19.265  0.00  0.00    +0.000 N 
ATOM      5  C   UNL     1       0.857  10.308  20.443  0.00  0.00    +0.000 A 
ATOM      6  C   UNL     1       0.249  10.790  21.585  0.00  0.00    +0.000 A 
ATOM      7  C   UNL     1      -0.120   9.857  22.559  0.00  0.00    +0.000 A 
ATOM      8  C   UNL     1       0.139   8.484  22.384  0.00  0.00    +0.000 A 
ATOM      9  C   UNL     1       0.776   8.014  21.230  0.00  0.00    +0.000 A 
ATOM     10  C   UNL     1       1.119   8.945  20.272  0.00  0.00    +0.000 A 
ENDROOT
BRANCH   1  11
ATOM     11  C   UNL     1       1.661   7.500  18.273  0.00  0.00    +0.000 C 
BRANCH  11  19
ATOM     12  C   UNL     1       3.032   2.602  20.986  0.00  0.00    +0.000 C 
ATOM     13  C   UNL     1       3.470   3.645  20.019  0.00  0.00    +0.000 A 
ATOM     14  C   UNL     1       4.722   3.878  19.502  0.00  0.00    +0.000 A 
ATOM     15  C   UNL     1       4.652   5.035  18.683  0.00  0.00    +0.000 A 
ATOM     16  C   UNL     1       5.616   5.703  17.907  0.00  0.00    +0.000 A 
ATOM     17  C   UNL     1       5.275   6.878  17.246  0.00  0.00    +0.000 A 
ATOM     18  C   UNL     1       4.004   7.417  17.399  0.00  0.00    +0.000 A 
ATOM     19  C   UNL     1       2.996   6.795  18.175  0.00  0.00    +0.000 A 
ATOM     20  C   UNL     1       3.339   5.539  18.756  0.00  0.00    +0.000 A 
ATOM     21  N   UNL     1       2.615   4.554  19.421  0.00  0.00    +0.000 N 
ATOM     22  C   UNL     1       1.184   4.348  19.373  0.00  0.00    +0.000 C 
ENDBRANCH  11  19
ENDBRANCH   1  11
BRANCH   4  23
ATOM     23  C   UNL     1       0.893  12.345  18.932  0.00  0.00    +0.000 C 
BRANCH  23  24
ATOM     24  C   UNL     1      -0.604  12.611  19.096  0.00  0.00    +0.000 C 
BRANCH  24  25
ATOM     25  C   UNL     1      -1.430  11.830  18.112  0.00  0.00    +0.000 C 
ATOM     26  O   UNL     1      -1.994  10.776  18.348  0.00  0.00    +0.000 OA
BRANCH  25  27
ATOM     27  O   UNL     1      -1.466  12.421  16.894  0.00  0.00    +0.000 OA
ATOM     28  H   UNL     1      -2.365  12.658  16.597  0.00  0.00    +0.000 HD
ENDBRANCH  25  27
ENDBRANCH  24  25
ENDBRANCH  23  24
ENDBRANCH   4  23
TORSDOF 6
ENDMDL
