MODEL 1
REMARK VINA RESULT:      -6.6      0.000      0.000
REMARK  Name = 
REMARK  6 active torsions:
REMARK  status: ('A' for Active; 'I' for Inactive)
REMARK    1  A    between atoms: C_1  and  N_2
REMARK    2  A    between atoms: N_4  and  C_5
REMARK    3  A    between atoms: N_9  and  C_10
REMARK    4  A    between atoms: C_10  and  C_11
REMARK    5  A    between atoms: C_17  and  O_18
REMARK    6  A    between atoms: C_19  and  C_20
REMARK                            x       y       z     vdW  Elec       q    Type
REMARK                         _______ _______ _______ _____ _____    ______ ____
ROOT
ATOM      1  C   UNL     1       1.462   8.861  19.901  0.00  0.00    +0.000 C 
ATOM      2  N   UNL     1       0.704  10.003  19.452  0.00  0.00    +0.000 N 
ATOM      3  C   UNL     1       0.035   9.997  18.171  0.00  0.00    +0.000 C 
ATOM      4  N   UNL     1      -1.362  10.336  18.361  0.00  0.00    +0.000 N 
ATOM      5  C   UNL     1      -2.353   9.726  17.509  0.00  0.00    +0.000 C 
ATOM      6  C   UNL     1      -1.651  11.328  19.222  0.00  0.00    +0.000 A 
ATOM      7  N   UNL     1      -2.842  11.960  19.374  0.00  0.00    +0.000 NA
ATOM      8  C   UNL     1      -2.674  12.743  20.429  0.00  0.00    +0.000 A 
ATOM      9  N   UNL     1      -3.568  13.565  21.070  0.00  0.00    +0.000 N 
ATOM     10  C   UNL     1      -3.116  14.349  22.141  0.00  0.00    +0.000 A 
ATOM     11  C   UNL     1      -1.843  14.361  22.588  0.00  0.00    +0.000 A 
ATOM     12  C   UNL     1      -0.860  13.471  21.920  0.00  0.00    +0.000 A 
ATOM     13  O   UNL     1       0.326  13.434  22.201  0.00  0.00    +0.000 OA
ATOM     14  N   UNL     1      -1.362  12.683  20.892  0.00  0.00    +0.000 N 
ATOM     15  C   UNL     1      -0.726  11.723  20.147  0.00  0.00    +0.000 A 
ATOM     16  C   UNL     1       0.525  11.057  20.338  0.00  0.00    +0.000 C 
ATOM     17  O   UNL     1       1.314  11.244  21.259  0.00  0.00    +0.000 OA
ENDROOT
BRANCH  11  18
ATOM     18  C   UNL     1      -1.303  15.213  23.726  0.00  0.00    +0.000 C 
ATOM     19  C   UNL     1      -1.339  16.699  23.416  0.00  0.00    +0.000 C 
ATOM     20  C   UNL     1      -1.618  17.635  24.340  0.00  0.00    +0.000 C 
ATOM     21  C   UNL     1      -1.866  17.325  25.787  0.00  0.00    +0.000 C 
ATOM     22  C   UNL     1      -1.560  15.870  26.155  0.00  0.00    +0.000 C 
ATOM     23  C   UNL     1      -2.027  14.909  25.062  0.00  0.00    +0.000 C 
ENDBRANCH  11  18
BRANCH  10  24
ATOM     24  O   UNL     1      -4.041  15.156  22.766  0.00  0.00    +0.000 OA
ATOM     25  H   UNL     1      -4.104  14.827  23.680  0.00  0.00    +0.000 HD
ENDBRANCH  10  24
BRANCH   9  26
ATOM     26  C   UNL     1      -4.830  13.839  20.342  0.00  0.00    +0.000 C 
BRANCH  26  27
ATOM     27  C   UNL     1      -5.997  12.917  20.674  0.00  0.00    +0.000 A 
ATOM     28  C   UNL     1      -6.348  11.860  19.807  0.00  0.00    +0.000 A 
ATOM     29  C   UNL     1      -7.298  10.902  20.189  0.00  0.00    +0.000 A 
ATOM     30  C   UNL     1      -7.912  10.985  21.436  0.00  0.00    +0.000 A 
ATOM     31  C   UNL     1      -7.592  12.032  22.293  0.00  0.00    +0.000 A 
ATOM     32  C   UNL     1      -6.645  12.986  21.912  0.00  0.00    +0.000 A 
ENDBRANCH  26  27
ENDBRANCH   9  26
TORSDOF 4
ENDMDL
MODEL 2
REMARK VINA RESULT:      -6.6      8.324     11.507
REMARK  Name = 
REMARK  6 active torsions:
REMARK  status: ('A' for Active; 'I' for Inactive)
REMARK    1  A    between atoms: C_1  and  N_2
REMARK    2  A    between atoms: N_4  and  C_5
REMARK    3  A    between atoms: N_9  and  C_10
REMARK    4  A    between atoms: C_10  and  C_11
REMARK    5  A    between atoms: C_17  and  O_18
REMARK    6  A    between atoms: C_19  and  C_20
REMARK                            x       y       z     vdW  Elec       q    Type
REMARK                         _______ _______ _______ _____ _____    ______ ____
ROOT
ATOM      1  C   UNL     1       3.731  16.115  17.895  0.00  0.00    +0.000 C 
ATOM      2  N   UNL     1       4.615  16.335  19.013  0.00  0.00    +0.000 N 
ATOM      3  C   UNL     1       4.275  17.270  20.061  0.00  0.00    +0.000 C 
ATOM      4  N   UNL     1       4.358  16.600  21.344  0.00  0.00    +0.000 N 
ATOM      5  C   UNL     1       3.438  16.972  22.390  0.00  0.00    +0.000 C 
ATOM      6  C   UNL     1       5.398  15.772  21.548  0.00  0.00    +0.000 A 
ATOM      7  N   UNL     1       5.799  15.235  22.728  0.00  0.00    +0.000 NA
ATOM      8  C   UNL     1       6.757  14.382  22.400  0.00  0.00    +0.000 A 
ATOM      9  N   UNL     1       7.479  13.518  23.187  0.00  0.00    +0.000 N 
ATOM     10  C   UNL     1       8.497  12.756  22.597  0.00  0.00    +0.000 A 
ATOM     11  C   UNL     1       8.829  12.817  21.291  0.00  0.00    +0.000 A 
ATOM     12  C   UNL     1       8.056  13.734  20.415  0.00  0.00    +0.000 A 
ATOM     13  O   UNL     1       8.298  13.913  19.234  0.00  0.00    +0.000 OA
ATOM     14  N   UNL     1       7.031  14.438  21.035  0.00  0.00    +0.000 N 
ATOM     15  C   UNL     1       6.108  15.290  20.485  0.00  0.00    +0.000 A 
ATOM     16  C   UNL     1       5.741  15.529  19.123  0.00  0.00    +0.000 C 
ATOM     17  O   UNL     1       6.223  14.986  18.135  0.00  0.00    +0.000 OA
ENDROOT
BRANCH  11  18
ATOM     18  C   UNL     1       9.940  12.031  20.613  0.00  0.00    +0.000 C 
ATOM     19  C   UNL     1       9.464  11.281  19.381  0.00  0.00    +0.000 C 
ATOM     20  C   UNL     1      10.212  11.135  18.274  0.00  0.00    +0.000 C 
ATOM     21  C   UNL     1      11.620  11.642  18.152  0.00  0.00    +0.000 C 
ATOM     22  C   UNL     1      12.197  12.149  19.476  0.00  0.00    +0.000 C 
ATOM     23  C   UNL     1      11.155  12.932  20.275  0.00  0.00    +0.000 C 
ENDBRANCH  11  18
BRANCH  10  24
ATOM     24  O   UNL     1       9.194  11.894  23.414  0.00  0.00    +0.000 OA
ATOM     25  H   UNL     1       9.434  12.413  24.202  0.00  0.00    +0.000 HD
ENDBRANCH  10  24
BRANCH   9  26
ATOM     26  C   UNL     1       7.380  13.743  24.650  0.00  0.00    +0.000 C 
BRANCH  26  27
ATOM     27  C   UNL     1       6.327  12.914  25.375  0.00  0.00    +0.000 A 
ATOM     28  C   UNL     1       6.124  11.557  25.041  0.00  0.00    +0.000 A 
ATOM     29  C   UNL     1       5.289  10.743  25.819  0.00  0.00    +0.000 A 
ATOM     30  C   UNL     1       4.644  11.268  26.936  0.00  0.00    +0.000 A 
ATOM     31  C   UNL     1       4.818  12.607  27.266  0.00  0.00    +0.000 A 
ATOM     32  C   UNL     1       5.650  13.418  26.490  0.00  0.00    +0.000 A 
ENDBRANCH  26  27
ENDBRANCH   9  26
TORSDOF 4
ENDMDL
MODEL 3
REMARK VINA RESULT:      -6.5      4.640     10.520
REMARK  Name = 
REMARK  6 active torsions:
REMARK  status: ('A' for Active; 'I' for Inactive)
REMARK    1  A    between atoms: C_1  and  N_2
REMARK    2  A    between atoms: N_4  and  C_5
REMARK    3  A    between atoms: N_9  and  C_10
REMARK    4  A    between atoms: C_10  and  C_11
REMARK    5  A    between atoms: C_17  and  O_18
REMARK    6  A    between atoms: C_19  and  C_20
REMARK                            x       y       z     vdW  Elec       q    Type
REMARK                         _______ _______ _______ _____ _____    ______ ____
ROOT
ATOM      1  C   UNL     1       0.148  12.680  21.870  0.00  0.00    +0.000 C 
ATOM      2  N   UNL     1       0.190  11.908  20.652  0.00  0.00    +0.000 N 
ATOM      3  C   UNL     1       0.296  12.553  19.363  0.00  0.00    +0.000 C 
ATOM      4  N   UNL     1       1.420  11.992  18.640  0.00  0.00    +0.000 N 
ATOM      5  C   UNL     1       2.188  12.845  17.767  0.00  0.00    +0.000 C 
ATOM      6  C   UNL     1       1.596  10.660  18.698  0.00  0.00    +0.000 A 
ATOM      7  N   UNL     1       2.419   9.907  17.925  0.00  0.00    +0.000 NA
ATOM      8  C   UNL     1       2.358   8.694  18.452  0.00  0.00    +0.000 A 
ATOM      9  N   UNL     1       3.033   7.548  18.111  0.00  0.00    +0.000 N 
ATOM     10  C   UNL     1       2.736   6.360  18.795  0.00  0.00    +0.000 A 
ATOM     11  C   UNL     1       1.812   6.259  19.773  0.00  0.00    +0.000 A 
ATOM     12  C   UNL     1       1.078   7.487  20.169  0.00  0.00    +0.000 A 
ATOM     13  O   UNL     1       0.187   7.509  21.002  0.00  0.00    +0.000 OA
ATOM     14  N   UNL     1       1.434   8.647  19.494  0.00  0.00    +0.000 N 
ATOM     15  C   UNL     1       0.994   9.932  19.686  0.00  0.00    +0.000 A 
ATOM     16  C   UNL     1       0.257  10.525  20.759  0.00  0.00    +0.000 C 
ATOM     17  O   UNL     1      -0.151   9.952  21.763  0.00  0.00    +0.000 OA
ENDROOT
BRANCH  11  18
ATOM     18  C   UNL     1       1.438   4.990  20.522  0.00  0.00    +0.000 C 
ATOM     19  C   UNL     1       0.883   3.910  19.610  0.00  0.00    +0.000 C 
ATOM     20  C   UNL     1       1.136   2.601  19.783  0.00  0.00    +0.000 C 
ATOM     21  C   UNL     1       1.940   2.055  20.927  0.00  0.00    +0.000 C 
ATOM     22  C   UNL     1       2.264   3.105  21.993  0.00  0.00    +0.000 C 
ATOM     23  C   UNL     1       2.624   4.450  21.360  0.00  0.00    +0.000 C 
ENDBRANCH  11  18
BRANCH  10  24
ATOM     24  O   UNL     1       3.437   5.231  18.432  0.00  0.00    +0.000 OA
ATOM     25  H   UNL     1       2.843   4.726  17.850  0.00  0.00    +0.000 HD
ENDBRANCH  10  24
BRANCH   9  26
ATOM     26  C   UNL     1       3.735   7.576  16.805  0.00  0.00    +0.000 C 
BRANCH  26  27
ATOM     27  C   UNL     1       5.026   6.769  16.733  0.00  0.00    +0.000 A 
ATOM     28  C   UNL     1       6.092   7.034  17.619  0.00  0.00    +0.000 A 
ATOM     29  C   UNL     1       7.205   6.185  17.680  0.00  0.00    +0.000 A 
ATOM     30  C   UNL     1       7.274   5.063  16.858  0.00  0.00    +0.000 A 
ATOM     31  C   UNL     1       6.241   4.799  15.965  0.00  0.00    +0.000 A 
ATOM     32  C   UNL     1       5.132   5.646  15.905  0.00  0.00    +0.000 A 
ENDBRANCH  26  27
ENDBRANCH   9  26
TORSDOF 4
ENDMDL
MODEL 4
REMARK VINA RESULT:      -6.4      3.018      6.376
REMARK  Name = 
REMARK  6 active torsions:
REMARK  status: ('A' for Active; 'I' for Inactive)
REMARK    1  A    between atoms: C_1  and  N_2
REMARK    2  A    between atoms: N_4  and  C_5
REMARK    3  A    between atoms: N_9  and  C_10
REMARK    4  A    between atoms: C_10  and  C_11
REMARK    5  A    between atoms: C_17  and  O_18
REMARK    6  A    between atoms: C_19  and  C_20
REMARK                            x       y       z     vdW  Elec       q    Type
REMARK                         _______ _______ _______ _____ _____    ______ ____
ROOT
ATOM      1  C   UNL     1      -3.521  16.918  25.035  0.00  0.00    +0.000 C 
ATOM      2  N   UNL     1      -2.790  15.707  24.750  0.00  0.00    +0.000 N 
ATOM      3  C   UNL     1      -3.222  14.433  25.278  0.00  0.00    +0.000 C 
ATOM      4  N   UNL     1      -3.354  13.486  24.189  0.00  0.00    +0.000 N 
ATOM      5  C   UNL     1      -4.390  12.484  24.254  0.00  0.00    +0.000 C 
ATOM      6  C   UNL     1      -2.400  13.488  23.240  0.00  0.00    +0.000 A 
ATOM      7  N   UNL     1      -2.197  12.552  22.280  0.00  0.00    +0.000 NA
ATOM      8  C   UNL     1      -1.252  13.064  21.507  0.00  0.00    +0.000 A 
ATOM      9  N   UNL     1      -0.695  12.575  20.350  0.00  0.00    +0.000 N 
ATOM     10  C   UNL     1       0.351  13.290  19.750  0.00  0.00    +0.000 A 
ATOM     11  C   UNL     1       0.865  14.437  20.240  0.00  0.00    +0.000 A 
ATOM     12  C   UNL     1       0.273  14.993  21.483  0.00  0.00    +0.000 A 
ATOM     13  O   UNL     1       0.686  15.992  22.047  0.00  0.00    +0.000 OA
ATOM     14  N   UNL     1      -0.787  14.274  22.019  0.00  0.00    +0.000 N 
ATOM     15  C   UNL     1      -1.576  14.570  23.102  0.00  0.00    +0.000 A 
ATOM     16  C   UNL     1      -1.737  15.779  23.847  0.00  0.00    +0.000 C 
ATOM     17  O   UNL     1      -1.153  16.839  23.647  0.00  0.00    +0.000 OA
ENDROOT
BRANCH  11  18
ATOM     18  C   UNL     1       2.015  15.230  19.639  0.00  0.00    +0.000 C 
ATOM     19  C   UNL     1       3.206  14.359  19.280  0.00  0.00    +0.000 C 
ATOM     20  C   UNL     1       3.969  14.570  18.193  0.00  0.00    +0.000 C 
ATOM     21  C   UNL     1       3.768  15.719  17.249  0.00  0.00    +0.000 C 
ATOM     22  C   UNL     1       2.753  16.748  17.755  0.00  0.00    +0.000 C 
ATOM     23  C   UNL     1       1.556  16.069  18.420  0.00  0.00    +0.000 C 
ENDBRANCH  11  18
BRANCH  10  24
ATOM     24  O   UNL     1       0.880  12.775  18.587  0.00  0.00    +0.000 OA
ATOM     25  H   UNL     1       0.567  13.358  17.873  0.00  0.00    +0.000 HD
ENDBRANCH  10  24
BRANCH   9  26
ATOM     26  C   UNL     1      -0.984  11.153  20.046  0.00  0.00    +0.000 C 
BRANCH  26  27
ATOM     27  C   UNL     1      -1.872  10.906  18.832  0.00  0.00    +0.000 A 
ATOM     28  C   UNL     1      -3.079  11.618  18.667  0.00  0.00    +0.000 A 
ATOM     29  C   UNL     1      -3.808  11.529  17.473  0.00  0.00    +0.000 A 
ATOM     30  C   UNL     1      -3.348  10.729  16.431  0.00  0.00    +0.000 A 
ATOM     31  C   UNL     1      -2.172  10.005  16.586  0.00  0.00    +0.000 A 
ATOM     32  C   UNL     1      -1.445  10.094  17.776  0.00  0.00    +0.000 A 
ENDBRANCH  26  27
ENDBRANCH   9  26
TORSDOF 4
ENDMDL
MODEL 5
REMARK VINA RESULT:      -6.4      8.233     12.058
REMARK  Name = 
REMARK  6 active torsions:
REMARK  status: ('A' for Active; 'I' for Inactive)
REMARK    1  A    between atoms: C_1  and  N_2
REMARK    2  A    between atoms: N_4  and  C_5
REMARK    3  A    between atoms: N_9  and  C_10
REMARK    4  A    between atoms: C_10  and  C_11
REMARK    5  A    between atoms: C_17  and  O_18
REMARK    6  A    between atoms: C_19  and  C_20
REMARK                            x       y       z     vdW  Elec       q    Type
REMARK                         _______ _______ _______ _____ _____    ______ ____
ROOT
ATOM      1  C   UNL     1       4.155  16.629  18.369  0.00  0.00    +0.000 C 
ATOM      2  N   UNL     1       4.839  16.518  19.635  0.00  0.00    +0.000 N 
ATOM      3  C   UNL     1       4.329  17.172  20.818  0.00  0.00    +0.000 C 
ATOM      4  N   UNL     1       4.194  16.196  21.882  0.00  0.00    +0.000 N 
ATOM      5  C   UNL     1       3.112  16.332  22.824  0.00  0.00    +0.000 C 
ATOM      6  C   UNL     1       5.183  15.296  22.031  0.00  0.00    +0.000 A 
ATOM      7  N   UNL     1       5.379  14.461  23.082  0.00  0.00    +0.000 NA
ATOM      8  C   UNL     1       6.377  13.676  22.705  0.00  0.00    +0.000 A 
ATOM      9  N   UNL     1       6.954  12.609  23.350  0.00  0.00    +0.000 N 
ATOM     10  C   UNL     1       8.055  11.976  22.756  0.00  0.00    +0.000 A 
ATOM     11  C   UNL     1       8.602  12.351  21.582  0.00  0.00    +0.000 A 
ATOM     12  C   UNL     1       7.989  13.494  20.858  0.00  0.00    +0.000 A 
ATOM     13  O   UNL     1       8.427  13.955  19.818  0.00  0.00    +0.000 OA
ATOM     14  N   UNL     1       6.877  14.063  21.464  0.00  0.00    +0.000 N 
ATOM     15  C   UNL     1       6.061  15.069  21.009  0.00  0.00    +0.000 A 
ATOM     16  C   UNL     1       5.929  15.661  19.714  0.00  0.00    +0.000 C 
ATOM     17  O   UNL     1       6.569  15.364  18.711  0.00  0.00    +0.000 OA
ENDROOT
BRANCH  11  18
ATOM     18  C   UNL     1       9.810  11.713  20.914  0.00  0.00    +0.000 C 
ATOM     19  C   UNL     1       9.453  10.972  19.638  0.00  0.00    +0.000 C 
ATOM     20  C   UNL     1      10.247  10.951  18.553  0.00  0.00    +0.000 C 
ATOM     21  C   UNL     1      11.598  11.604  18.502  0.00  0.00    +0.000 C 
ATOM     22  C   UNL     1      12.077  12.110  19.865  0.00  0.00    +0.000 C 
ATOM     23  C   UNL     1      10.935  12.747  20.656  0.00  0.00    +0.000 C 
ENDBRANCH  11  18
BRANCH  10  24
ATOM     24  O   UNL     1       8.603  10.905  23.427  0.00  0.00    +0.000 OA
ATOM     25  H   UNL     1       9.541  11.128  23.558  0.00  0.00    +0.000 HD
ENDBRANCH  10  24
BRANCH   9  26
ATOM     26  C   UNL     1       6.611  12.460  24.785  0.00  0.00    +0.000 C 
BRANCH  26  27
ATOM     27  C   UNL     1       7.257  13.470  25.726  0.00  0.00    +0.000 A 
ATOM     28  C   UNL     1       6.464  14.298  26.549  0.00  0.00    +0.000 A 
ATOM     29  C   UNL     1       7.048  15.097  27.541  0.00  0.00    +0.000 A 
ATOM     30  C   UNL     1       8.428  15.086  27.725  0.00  0.00    +0.000 A 
ATOM     31  C   UNL     1       9.225  14.292  26.909  0.00  0.00    +0.000 A 
ATOM     32  C   UNL     1       8.642  13.495  25.920  0.00  0.00    +0.000 A 
ENDBRANCH  26  27
ENDBRANCH   9  26
TORSDOF 4
ENDMDL
MODEL 6
REMARK VINA RESULT:      -6.4      1.813      5.129
REMARK  Name = 
REMARK  6 active torsions:
REMARK  status: ('A' for Active; 'I' for Inactive)
REMARK    1  A    between atoms: C_1  and  N_2
REMARK    2  A    between atoms: N_4  and  C_5
REMARK    3  A    between atoms: N_9  and  C_10
REMARK    4  A    between atoms: C_10  and  C_11
REMARK    5  A    between atoms: C_17  and  O_18
REMARK    6  A    between atoms: C_19  and  C_20
REMARK                            x       y       z     vdW  Elec       q    Type
REMARK                         _______ _______ _______ _____ _____    ______ ____
ROOT
ATOM      1  C   UNL     1      -7.450  13.026  17.749  0.00  0.00    +0.000 C 
ATOM      2  N   UNL     1      -6.398  12.359  18.478  0.00  0.00    +0.000 N 
ATOM      3  C   UNL     1      -5.772  11.164  17.958  0.00  0.00    +0.000 C 
ATOM      4  N   UNL     1      -4.335  11.355  17.926  0.00  0.00    +0.000 N 
ATOM      5  C   UNL     1      -3.571  10.745  16.866  0.00  0.00    +0.000 C 
ATOM      6  C   UNL     1      -3.763  11.962  18.981  0.00  0.00    +0.000 A 
ATOM      7  N   UNL     1      -2.439  12.030  19.269  0.00  0.00    +0.000 NA
ATOM      8  C   UNL     1      -2.363  12.847  20.308  0.00  0.00    +0.000 A 
ATOM      9  N   UNL     1      -1.264  13.323  20.980  0.00  0.00    +0.000 N 
ATOM     10  C   UNL     1      -1.459  14.136  22.105  0.00  0.00    +0.000 A 
ATOM     11  C   UNL     1      -2.669  14.484  22.588  0.00  0.00    +0.000 A 
ATOM     12  C   UNL     1      -3.875  13.993  21.872  0.00  0.00    +0.000 A 
ATOM     13  O   UNL     1      -5.018  14.198  22.244  0.00  0.00    +0.000 OA
ATOM     14  N   UNL     1      -3.632  13.225  20.741  0.00  0.00    +0.000 N 
ATOM     15  C   UNL     1      -4.526  12.700  19.842  0.00  0.00    +0.000 A 
ATOM     16  C   UNL     1      -5.914  12.968  19.628  0.00  0.00    +0.000 C 
ATOM     17  O   UNL     1      -6.606  13.762  20.257  0.00  0.00    +0.000 OA
ENDROOT
BRANCH  11  18
ATOM     18  C   UNL     1      -2.929  15.340  23.818  0.00  0.00    +0.000 C 
ATOM     19  C   UNL     1      -2.148  14.875  25.034  0.00  0.00    +0.000 C 
ATOM     20  C   UNL     1      -1.622  15.721  25.936  0.00  0.00    +0.000 C 
ATOM     21  C   UNL     1      -1.797  17.211  25.878  0.00  0.00    +0.000 C 
ATOM     22  C   UNL     1      -2.807  17.660  24.819  0.00  0.00    +0.000 C 
ATOM     23  C   UNL     1      -2.670  16.841  23.535  0.00  0.00    +0.000 C 
ENDBRANCH  11  18
BRANCH  10  24
ATOM     24  O   UNL     1      -0.334  14.602  22.749  0.00  0.00    +0.000 OA
ATOM     25  H   UNL     1       0.018  13.844  23.248  0.00  0.00    +0.000 HD
ENDBRANCH  10  24
BRANCH   9  26
ATOM     26  C   UNL     1       0.017  12.632  20.693  0.00  0.00    +0.000 C 
BRANCH  26  27
ATOM     27  C   UNL     1       0.092  11.174  21.128  0.00  0.00    +0.000 A 
ATOM     28  C   UNL     1       0.689  10.203  20.296  0.00  0.00    +0.000 A 
ATOM     29  C   UNL     1       0.922   8.902  20.761  0.00  0.00    +0.000 A 
ATOM     30  C   UNL     1       0.562   8.549  22.059  0.00  0.00    +0.000 A 
ATOM     31  C   UNL     1      -0.046   9.487  22.884  0.00  0.00    +0.000 A 
ATOM     32  C   UNL     1      -0.278  10.784  22.420  0.00  0.00    +0.000 A 
ENDBRANCH  26  27
ENDBRANCH   9  26
TORSDOF 4
ENDMDL
MODEL 7
REMARK VINA RESULT:      -6.2      2.929      5.994
REMARK  Name = 
REMARK  6 active torsions:
REMARK  status: ('A' for Active; 'I' for Inactive)
REMARK    1  A    between atoms: C_1  and  N_2
REMARK    2  A    between atoms: N_4  and  C_5
REMARK    3  A    between atoms: N_9  and  C_10
REMARK    4  A    between atoms: C_10  and  C_11
REMARK    5  A    between atoms: C_17  and  O_18
REMARK    6  A    between atoms: C_19  and  C_20
REMARK                            x       y       z     vdW  Elec       q    Type
REMARK                         _______ _______ _______ _____ _____    ______ ____
ROOT
ATOM      1  C   UNL     1      -2.646  16.605  24.970  0.00  0.00    +0.000 C 
ATOM      2  N   UNL     1      -2.234  15.264  24.633  0.00  0.00    +0.000 N 
ATOM      3  C   UNL     1      -3.049  14.123  24.984  0.00  0.00    +0.000 C 
ATOM      4  N   UNL     1      -3.297  13.331  23.795  0.00  0.00    +0.000 N 
ATOM      5  C   UNL     1      -4.562  12.651  23.658  0.00  0.00    +0.000 C 
ATOM      6  C   UNL     1      -2.270  13.139  22.948  0.00  0.00    +0.000 A 
ATOM      7  N   UNL     1      -2.209  12.255  21.921  0.00  0.00    +0.000 NA
ATOM      8  C   UNL     1      -1.075  12.541  21.299  0.00  0.00    +0.000 A 
ATOM      9  N   UNL     1      -0.534  12.004  20.157  0.00  0.00    +0.000 N 
ATOM     10  C   UNL     1       0.730  12.444  19.737  0.00  0.00    +0.000 A 
ATOM     11  C   UNL     1       1.467  13.366  20.389  0.00  0.00    +0.000 A 
ATOM     12  C   UNL     1       0.899  13.972  21.620  0.00  0.00    +0.000 A 
ATOM     13  O   UNL     1       1.492  14.774  22.321  0.00  0.00    +0.000 OA
ATOM     14  N   UNL     1      -0.371  13.536  21.975  0.00  0.00    +0.000 N 
ATOM     15  C   UNL     1      -1.178  13.958  23.001  0.00  0.00    +0.000 A 
ATOM     16  C   UNL     1      -1.099  15.108  23.848  0.00  0.00    +0.000 C 
ATOM     17  O   UNL     1      -0.235  15.977  23.815  0.00  0.00    +0.000 OA
ENDROOT
BRANCH  11  18
ATOM     18  C   UNL     1       2.850  13.853  19.986  0.00  0.00    +0.000 C 
ATOM     19  C   UNL     1       2.805  15.087  19.102  0.00  0.00    +0.000 C 
ATOM     20  C   UNL     1       3.704  16.082  19.183  0.00  0.00    +0.000 C 
ATOM     21  C   UNL     1       4.885  16.060  20.109  0.00  0.00    +0.000 C 
ATOM     22  C   UNL     1       5.089  14.707  20.797  0.00  0.00    +0.000 C 
ATOM     23  C   UNL     1       3.755  14.092  21.221  0.00  0.00    +0.000 C 
ENDBRANCH  11  18
BRANCH  10  24
ATOM     24  O   UNL     1       1.239  11.889  18.583  0.00  0.00    +0.000 OA
ATOM     25  H   UNL     1       0.525  11.337  18.218  0.00  0.00    +0.000 HD
ENDBRANCH  10  24
BRANCH   9  26
ATOM     26  C   UNL     1      -1.151  10.742  19.682  0.00  0.00    +0.000 C 
BRANCH  26  27
ATOM     27  C   UNL     1      -1.999  10.857  18.421  0.00  0.00    +0.000 A 
ATOM     28  C   UNL     1      -1.694  10.090  17.276  0.00  0.00    +0.000 A 
ATOM     29  C   UNL     1      -2.567  10.054  16.180  0.00  0.00    +0.000 A 
ATOM     30  C   UNL     1      -3.753  10.784  16.208  0.00  0.00    +0.000 A 
ATOM     31  C   UNL     1      -4.058  11.560  17.320  0.00  0.00    +0.000 A 
ATOM     32  C   UNL     1      -3.187  11.595  18.412  0.00  0.00    +0.000 A 
ENDBRANCH  26  27
ENDBRANCH   9  26
TORSDOF 4
ENDMDL
MODEL 8
REMARK VINA RESULT:      -6.2      3.176      4.899
REMARK  Name = 
REMARK  6 active torsions:
REMARK  status: ('A' for Active; 'I' for Inactive)
REMARK    1  A    between atoms: C_1  and  N_2
REMARK    2  A    between atoms: N_4  and  C_5
REMARK    3  A    between atoms: N_9  and  C_10
REMARK    4  A    between atoms: C_10  and  C_11
REMARK    5  A    between atoms: C_17  and  O_18
REMARK    6  A    between atoms: C_19  and  C_20
REMARK                            x       y       z     vdW  Elec       q    Type
REMARK                         _______ _______ _______ _____ _____    ______ ____
ROOT
ATOM      1  C   UNL     1       1.517   9.581  19.005  0.00  0.00    +0.000 C 
ATOM      2  N   UNL     1       0.468  10.265  19.722  0.00  0.00    +0.000 N 
ATOM      3  C   UNL     1      -0.318   9.583  20.725  0.00  0.00    +0.000 C 
ATOM      4  N   UNL     1      -0.277  10.342  21.960  0.00  0.00    +0.000 N 
ATOM      5  C   UNL     1      -0.295   9.635  23.216  0.00  0.00    +0.000 C 
ATOM      6  C   UNL     1      -0.383  11.680  21.873  0.00  0.00    +0.000 A 
ATOM      7  N   UNL     1      -0.603  12.552  22.889  0.00  0.00    +0.000 NA
ATOM      8  C   UNL     1      -0.478  13.749  22.337  0.00  0.00    +0.000 A 
ATOM      9  N   UNL     1      -0.540  14.996  22.908  0.00  0.00    +0.000 N 
ATOM     10  C   UNL     1      -0.438  16.124  22.081  0.00  0.00    +0.000 A 
ATOM     11  C   UNL     1      -0.289  16.070  20.741  0.00  0.00    +0.000 A 
ATOM     12  C   UNL     1      -0.207  14.733  20.100  0.00  0.00    +0.000 A 
ATOM     13  O   UNL     1      -0.125  14.559  18.896  0.00  0.00    +0.000 OA
ATOM     14  N   UNL     1      -0.271  13.647  20.963  0.00  0.00    +0.000 N 
ATOM     15  C   UNL     1      -0.149  12.309  20.683  0.00  0.00    +0.000 A 
ATOM     16  C   UNL     1       0.322  11.630  19.515  0.00  0.00    +0.000 C 
ATOM     17  O   UNL     1       0.718  12.155  18.480  0.00  0.00    +0.000 OA
ENDROOT
BRANCH  11  18
ATOM     18  C   UNL     1      -0.201  17.264  19.803  0.00  0.00    +0.000 C 
ATOM     19  C   UNL     1       1.108  17.312  19.035  0.00  0.00    +0.000 C 
ATOM     20  C   UNL     1       1.196  17.724  17.758  0.00  0.00    +0.000 C 
ATOM     21  C   UNL     1       0.027  18.237  16.969  0.00  0.00    +0.000 C 
ATOM     22  C   UNL     1      -1.230  18.449  17.819  0.00  0.00    +0.000 C 
ATOM     23  C   UNL     1      -1.411  17.323  18.837  0.00  0.00    +0.000 C 
ENDBRANCH  11  18
BRANCH  10  24
ATOM     24  O   UNL     1      -0.496  17.359  22.688  0.00  0.00    +0.000 OA
ATOM     25  H   UNL     1       0.428  17.626  22.832  0.00  0.00    +0.000 HD
ENDBRANCH  10  24
BRANCH   9  26
ATOM     26  C   UNL     1      -1.089  15.049  24.285  0.00  0.00    +0.000 C 
BRANCH  26  27
ATOM     27  C   UNL     1      -2.576  15.365  24.391  0.00  0.00    +0.000 A 
ATOM     28  C   UNL     1      -3.018  16.541  25.033  0.00  0.00    +0.000 A 
ATOM     29  C   UNL     1      -4.364  16.929  24.978  0.00  0.00    +0.000 A 
ATOM     30  C   UNL     1      -5.287  16.150  24.286  0.00  0.00    +0.000 A 
ATOM     31  C   UNL     1      -4.871  14.978  23.665  0.00  0.00    +0.000 A 
ATOM     32  C   UNL     1      -3.529  14.592  23.720  0.00  0.00    +0.000 A 
ENDBRANCH  26  27
ENDBRANCH   9  26
TORSDOF 4
ENDMDL
MODEL 9
REMARK VINA RESULT:      -6.2      3.486      6.525
REMARK  Name = 
REMARK  6 active torsions:
REMARK  status: ('A' for Active; 'I' for Inactive)
REMARK    1  A    between atoms: C_1  and  N_2
REMARK    2  A    between atoms: N_4  and  C_5
REMARK    3  A    between atoms: N_9  and  C_10
REMARK    4  A    between atoms: C_10  and  C_11
REMARK    5  A    between atoms: C_17  and  O_18
REMARK    6  A    between atoms: C_19  and  C_20
REMARK                            x       y       z     vdW  Elec       q    Type
REMARK                         _______ _______ _______ _____ _____    ______ ____
ROOT
ATOM      1  C   UNL     1       2.404  17.605  16.963  0.00  0.00    +0.000 C 
ATOM      2  N   UNL     1       1.773  16.975  18.097  0.00  0.00    +0.000 N 
ATOM      3  C   UNL     1       0.820  17.692  18.914  0.00  0.00    +0.000 C 
ATOM      4  N   UNL     1      -0.405  16.922  19.004  0.00  0.00    +0.000 N 
ATOM      5  C   UNL     1      -1.666  17.617  19.074  0.00  0.00    +0.000 C 
ATOM      6  C   UNL     1      -0.294  15.592  19.179  0.00  0.00    +0.000 A 
ATOM      7  N   UNL     1      -1.280  14.726  19.520  0.00  0.00    +0.000 NA
ATOM      8  C   UNL     1      -0.724  13.528  19.422  0.00  0.00    +0.000 A 
ATOM      9  N   UNL     1      -1.273  12.282  19.595  0.00  0.00    +0.000 N 
ATOM     10  C   UNL     1      -0.441  11.157  19.496  0.00  0.00    +0.000 A 
ATOM     11  C   UNL     1       0.883  11.214  19.249  0.00  0.00    +0.000 A 
ATOM     12  C   UNL     1       1.500  12.549  19.046  0.00  0.00    +0.000 A 
ATOM     13  O   UNL     1       2.693  12.729  18.868  0.00  0.00    +0.000 OA
ATOM     14  N   UNL     1       0.630  13.630  19.112  0.00  0.00    +0.000 N 
ATOM     15  C   UNL     1       0.884  14.961  18.895  0.00  0.00    +0.000 A 
ATOM     16  C   UNL     1       2.006  15.622  18.304  0.00  0.00    +0.000 C 
ATOM     17  O   UNL     1       3.017  15.084  17.864  0.00  0.00    +0.000 OA
ENDROOT
BRANCH  11  18
ATOM     18  C   UNL     1       1.828  10.025  19.160  0.00  0.00    +0.000 C 
ATOM     19  C   UNL     1       1.646   9.042  20.303  0.00  0.00    +0.000 C 
ATOM     20  C   UNL     1       1.753   7.711  20.150  0.00  0.00    +0.000 C 
ATOM     21  C   UNL     1       2.123   7.051  18.854  0.00  0.00    +0.000 C 
ATOM     22  C   UNL     1       2.575   8.042  17.778  0.00  0.00    +0.000 C 
ATOM     23  C   UNL     1       1.717   9.308  17.791  0.00  0.00    +0.000 C 
ENDBRANCH  11  18
BRANCH  10  24
ATOM     24  O   UNL     1      -1.027   9.922  19.667  0.00  0.00    +0.000 OA
ATOM     25  H   UNL     1      -0.294   9.299  19.808  0.00  0.00    +0.000 HD
ENDBRANCH  10  24
BRANCH   9  26
ATOM     26  C   UNL     1      -2.607  12.248  20.243  0.00  0.00    +0.000 C 
BRANCH  26  27
ATOM     27  C   UNL     1      -3.800  12.222  19.296  0.00  0.00    +0.000 A 
ATOM     28  C   UNL     1      -3.717  11.563  18.051  0.00  0.00    +0.000 A 
ATOM     29  C   UNL     1      -4.857  11.381  17.256  0.00  0.00    +0.000 A 
ATOM     30  C   UNL     1      -6.093  11.854  17.688  0.00  0.00    +0.000 A 
ATOM     31  C   UNL     1      -6.188  12.523  18.902  0.00  0.00    +0.000 A 
ATOM     32  C   UNL     1      -5.051  12.704  19.694  0.00  0.00    +0.000 A 
ENDBRANCH  26  27
ENDBRANCH   9  26
TORSDOF 4
ENDMDL
