MODEL 1
REMARK VINA RESULT:      -6.0      0.000      0.000
REMARK  Name = 
REMARK  10 active torsions:
REMARK  status: ('A' for Active; 'I' for Inactive)
REMARK    1  A    between atoms: C_1  and  C_2
REMARK    2  A    between atoms: C_5  and  O_6
REMARK    3  A    between atoms: O_6  and  C_7
REMARK    4  A    between atoms: C_7  and  C_8
REMARK    5  A    between atoms: C_8  and  C_9
REMARK    6  A    between atoms: C_9  and  N_10
REMARK    7  A    between atoms: N_10  and  C_11
REMARK    8  A    between atoms: C_11  and  C_12
REMARK    9  A    between atoms: C_12  and  O_13
REMARK   10  A    between atoms: O_13  and  C_14
REMARK                            x       y       z     vdW  Elec       q    Type
REMARK                         _______ _______ _______ _____ _____    ______ ____
ROOT
ATOM      1  C   UNL     1       1.764   2.496  19.027  0.00  0.00    +0.000 C 
ENDROOT
BRANCH   1   2
ATOM      2  N   UNL     1       2.865   2.644  19.982  0.00  0.00    +0.000 NA
ATOM      3  H   UNL     1       3.754   2.581  19.483  0.00  0.00    +0.000 HD
BRANCH   2   4
ATOM      4  C   UNL     1       2.826   3.912  20.722  0.00  0.00    +0.000 C 
BRANCH   4   5
ATOM      5  C   UNL     1       1.711   4.861  20.265  0.00  0.00    +0.000 C 
BRANCH   5   6
ATOM      6  O   UNL     1       1.913   6.157  20.828  0.00  0.00    +0.000 OA
BRANCH   6   7
ATOM      7  C   UNL     1       1.946   7.176  19.909  0.00  0.00    +0.000 A 
ATOM      8  C   UNL     1       2.599   6.876  18.713  0.00  0.00    +0.000 A 
ATOM      9  C   UNL     1       2.708   7.839  17.709  0.00  0.00    +0.000 A 
ATOM     10  C   UNL     1       2.150   9.103  17.890  0.00  0.00    +0.000 A 
ATOM     11  C   UNL     1       1.475   9.402  19.071  0.00  0.00    +0.000 A 
ATOM     12  C   UNL     1       1.370   8.439  20.077  0.00  0.00    +0.000 A 
ENDBRANCH   6   7
ENDBRANCH   5   6
ENDBRANCH   4   5
ENDBRANCH   2   4
ENDBRANCH   1   2
BRANCH   1  13
ATOM     13  C   UNL     1       2.289   2.303  17.606  0.00  0.00    +0.000 C 
BRANCH  13  14
ATOM     14  C   UNL     1       3.160   3.477  17.164  0.00  0.00    +0.000 C 
BRANCH  14  15
ATOM     15  O   UNL     1       4.497   3.241  17.607  0.00  0.00    +0.000 OA
BRANCH  15  20
ATOM     16  C   UNL     1       7.643   7.965  17.462  0.00  0.00    +0.000 C 
ATOM     17  C   UNL     1       6.826   6.707  17.512  0.00  0.00    +0.000 A 
ATOM     18  C   UNL     1       5.903   6.405  16.505  0.00  0.00    +0.000 A 
ATOM     19  C   UNL     1       5.145   5.235  16.574  0.00  0.00    +0.000 A 
ATOM     20  C   UNL     1       5.305   4.349  17.638  0.00  0.00    +0.000 A 
ATOM     21  C   UNL     1       6.219   4.651  18.650  0.00  0.00    +0.000 A 
ATOM     22  C   UNL     1       6.973   5.825  18.586  0.00  0.00    +0.000 A 
ENDBRANCH  15  20
ENDBRANCH  14  15
ENDBRANCH  13  14
ENDBRANCH   1  13
TORSDOF 9
ENDMDL
MODEL 2
REMARK VINA RESULT:      -6.0      1.039      5.135
REMARK  Name = 
REMARK  10 active torsions:
REMARK  status: ('A' for Active; 'I' for Inactive)
REMARK    1  A    between atoms: C_1  and  C_2
REMARK    2  A    between atoms: C_5  and  O_6
REMARK    3  A    between atoms: O_6  and  C_7
REMARK    4  A    between atoms: C_7  and  C_8
REMARK    5  A    between atoms: C_8  and  C_9
REMARK    6  A    between atoms: C_9  and  N_10
REMARK    7  A    between atoms: N_10  and  C_11
REMARK    8  A    between atoms: C_11  and  C_12
REMARK    9  A    between atoms: C_12  and  O_13
REMARK   10  A    between atoms: O_13  and  C_14
REMARK                            x       y       z     vdW  Elec       q    Type
REMARK                         _______ _______ _______ _____ _____    ______ ____
ROOT
ATOM      1  C   UNL     1       1.983   3.217  19.479  0.00  0.00    +0.000 C 
ENDROOT
BRANCH   1   2
ATOM      2  N   UNL     1       1.593   3.673  18.142  0.00  0.00    +0.000 NA
ATOM      3  H   UNL     1       1.461   4.686  18.157  0.00  0.00    +0.000 HD
BRANCH   2   4
ATOM      4  C   UNL     1       2.578   3.340  17.104  0.00  0.00    +0.000 C 
BRANCH   4   5
ATOM      5  C   UNL     1       4.033   3.500  17.559  0.00  0.00    +0.000 C 
BRANCH   5   6
ATOM      6  O   UNL     1       4.752   4.300  16.619  0.00  0.00    +0.000 OA
BRANCH   6   7
ATOM      7  C   UNL     1       5.744   5.071  17.172  0.00  0.00    +0.000 A 
ATOM      8  C   UNL     1       5.728   6.415  16.800  0.00  0.00    +0.000 A 
ATOM      9  C   UNL     1       6.697   7.293  17.288  0.00  0.00    +0.000 A 
ATOM     10  C   UNL     1       7.678   6.833  18.166  0.00  0.00    +0.000 A 
ATOM     11  C   UNL     1       7.684   5.498  18.561  0.00  0.00    +0.000 A 
ATOM     12  C   UNL     1       6.717   4.620  18.069  0.00  0.00    +0.000 A 
ENDBRANCH   6   7
ENDBRANCH   5   6
ENDBRANCH   4   5
ENDBRANCH   2   4
ENDBRANCH   1   2
BRANCH   1  13
ATOM     13  C   UNL     1       1.343   4.080  20.564  0.00  0.00    +0.000 C 
BRANCH  13  14
ATOM     14  C   UNL     1       2.266   5.218  20.994  0.00  0.00    +0.000 C 
BRANCH  14  15
ATOM     15  O   UNL     1       2.861   5.786  19.827  0.00  0.00    +0.000 OA
BRANCH  15  20
ATOM     16  C   UNL     1       0.709  10.898  18.618  0.00  0.00    +0.000 C 
ATOM     17  C   UNL     1       1.277   9.542  18.918  0.00  0.00    +0.000 A 
ATOM     18  C   UNL     1       1.110   8.950  20.174  0.00  0.00    +0.000 A 
ATOM     19  C   UNL     1       1.655   7.692  20.437  0.00  0.00    +0.000 A 
ATOM     20  C   UNL     1       2.360   7.005  19.450  0.00  0.00    +0.000 A 
ATOM     21  C   UNL     1       2.537   7.596  18.197  0.00  0.00    +0.000 A 
ATOM     22  C   UNL     1       1.999   8.859  17.935  0.00  0.00    +0.000 A 
ENDBRANCH  15  20
ENDBRANCH  14  15
ENDBRANCH  13  14
ENDBRANCH   1  13
TORSDOF 9
ENDMDL
MODEL 3
REMARK VINA RESULT:      -6.0      1.092      4.570
REMARK  Name = 
REMARK  10 active torsions:
REMARK  status: ('A' for Active; 'I' for Inactive)
REMARK    1  A    between atoms: C_1  and  C_2
REMARK    2  A    between atoms: C_5  and  O_6
REMARK    3  A    between atoms: O_6  and  C_7
REMARK    4  A    between atoms: C_7  and  C_8
REMARK    5  A    between atoms: C_8  and  C_9
REMARK    6  A    between atoms: C_9  and  N_10
REMARK    7  A    between atoms: N_10  and  C_11
REMARK    8  A    between atoms: C_11  and  C_12
REMARK    9  A    between atoms: C_12  and  O_13
REMARK   10  A    between atoms: O_13  and  C_14
REMARK                            x       y       z     vdW  Elec       q    Type
REMARK                         _______ _______ _______ _____ _____    ______ ____
ROOT
ATOM      1  C   UNL     1       1.007   2.980  18.998  0.00  0.00    +0.000 C 
ENDROOT
BRANCH   1   2
ATOM      2  N   UNL     1       1.630   1.784  18.428  0.00  0.00    +0.000 NA
ATOM      3  H   UNL     1       1.560   1.820  17.410  0.00  0.00    +0.000 HD
BRANCH   2   4
ATOM      4  C   UNL     1       3.044   1.632  18.800  0.00  0.00    +0.000 C 
BRANCH   4   5
ATOM      5  C   UNL     1       4.009   2.398  17.887  0.00  0.00    +0.000 C 
BRANCH   5   6
ATOM      6  O   UNL     1       4.896   3.193  18.674  0.00  0.00    +0.000 OA
BRANCH   6   7
ATOM      7  C   UNL     1       5.358   4.321  18.042  0.00  0.00    +0.000 A 
ATOM      8  C   UNL     1       4.881   4.513  16.746  0.00  0.00    +0.000 A 
ATOM      9  C   UNL     1       5.293   5.618  15.999  0.00  0.00    +0.000 A 
ATOM     10  C   UNL     1       6.174   6.546  16.553  0.00  0.00    +0.000 A 
ATOM     11  C   UNL     1       6.635   6.373  17.856  0.00  0.00    +0.000 A 
ATOM     12  C   UNL     1       6.225   5.265  18.600  0.00  0.00    +0.000 A 
ENDBRANCH   6   7
ENDBRANCH   5   6
ENDBRANCH   4   5
ENDBRANCH   2   4
ENDBRANCH   1   2
BRANCH   1  13
ATOM     13  C   UNL     1       1.157   3.010  20.518  0.00  0.00    +0.000 C 
BRANCH  13  14
ATOM     14  C   UNL     1       1.693   4.354  21.004  0.00  0.00    +0.000 C 
BRANCH  14  15
ATOM     15  O   UNL     1       2.500   4.922  19.972  0.00  0.00    +0.000 OA
BRANCH  15  20
ATOM     16  C   UNL     1       1.460  10.278  18.405  0.00  0.00    +0.000 C 
ATOM     17  C   UNL     1       1.737   8.869  18.839  0.00  0.00    +0.000 A 
ATOM     18  C   UNL     1       2.306   7.941  17.960  0.00  0.00    +0.000 A 
ATOM     19  C   UNL     1       2.545   6.631  18.379  0.00  0.00    +0.000 A 
ATOM     20  C   UNL     1       2.234   6.235  19.679  0.00  0.00    +0.000 A 
ATOM     21  C   UNL     1       1.658   7.155  20.557  0.00  0.00    +0.000 A 
ATOM     22  C   UNL     1       1.410   8.464  20.136  0.00  0.00    +0.000 A 
ENDBRANCH  15  20
ENDBRANCH  14  15
ENDBRANCH  13  14
ENDBRANCH   1  13
TORSDOF 9
ENDMDL
MODEL 4
REMARK VINA RESULT:      -6.0      2.910      5.323
REMARK  Name = 
REMARK  10 active torsions:
REMARK  status: ('A' for Active; 'I' for Inactive)
REMARK    1  A    between atoms: C_1  and  C_2
REMARK    2  A    between atoms: C_5  and  O_6
REMARK    3  A    between atoms: O_6  and  C_7
REMARK    4  A    between atoms: C_7  and  C_8
REMARK    5  A    between atoms: C_8  and  C_9
REMARK    6  A    between atoms: C_9  and  N_10
REMARK    7  A    between atoms: N_10  and  C_11
REMARK    8  A    between atoms: C_11  and  C_12
REMARK    9  A    between atoms: C_12  and  O_13
REMARK   10  A    between atoms: O_13  and  C_14
REMARK                            x       y       z     vdW  Elec       q    Type
REMARK                         _______ _______ _______ _____ _____    ______ ____
ROOT
ATOM      1  C   UNL     1       5.647   5.386  18.509  0.00  0.00    +0.000 C 
ENDROOT
BRANCH   1   2
ATOM      2  N   UNL     1       4.453   5.866  17.808  0.00  0.00    +0.000 NA
ATOM      3  H   UNL     1       4.736   6.383  16.975  0.00  0.00    +0.000 HD
BRANCH   2   4
ATOM      4  C   UNL     1       3.541   4.786  17.408  0.00  0.00    +0.000 C 
BRANCH   4   5
ATOM      5  C   UNL     1       4.179   3.392  17.448  0.00  0.00    +0.000 C 
BRANCH   5   6
ATOM      6  O   UNL     1       3.188   2.412  17.758  0.00  0.00    +0.000 OA
BRANCH   6   7
ATOM      7  C   UNL     1       2.533   2.623  18.946  0.00  0.00    +0.000 A 
ATOM      8  C   UNL     1       3.337   2.569  20.084  0.00  0.00    +0.000 A 
ATOM      9  C   UNL     1       2.779   2.754  21.350  0.00  0.00    +0.000 A 
ATOM     10  C   UNL     1       1.416   3.011  21.482  0.00  0.00    +0.000 A 
ATOM     11  C   UNL     1       0.611   3.090  20.348  0.00  0.00    +0.000 A 
ATOM     12  C   UNL     1       1.170   2.900  19.082  0.00  0.00    +0.000 A 
ENDBRANCH   6   7
ENDBRANCH   5   6
ENDBRANCH   4   5
ENDBRANCH   2   4
ENDBRANCH   1   2
BRANCH   1  13
ATOM     13  C   UNL     1       6.920   5.933  17.867  0.00  0.00    +0.000 C 
BRANCH  13  14
ATOM     14  C   UNL     1       7.448   5.000  16.780  0.00  0.00    +0.000 C 
BRANCH  14  15
ATOM     15  O   UNL     1       7.428   5.697  15.534  0.00  0.00    +0.000 OA
BRANCH  15  20
ATOM     16  C   UNL     1       5.158   2.683  11.292  0.00  0.00    +0.000 C 
ATOM     17  C   UNL     1       5.777   3.476  12.406  0.00  0.00    +0.000 A 
ATOM     18  C   UNL     1       5.129   3.619  13.637  0.00  0.00    +0.000 A 
ATOM     19  C   UNL     1       5.716   4.370  14.657  0.00  0.00    +0.000 A 
ATOM     20  C   UNL     1       6.958   4.974  14.468  0.00  0.00    +0.000 A 
ATOM     21  C   UNL     1       7.604   4.841  13.237  0.00  0.00    +0.000 A 
ATOM     22  C   UNL     1       7.014   4.097  12.212  0.00  0.00    +0.000 A 
ENDBRANCH  15  20
ENDBRANCH  14  15
ENDBRANCH  13  14
ENDBRANCH   1  13
TORSDOF 9
ENDMDL
MODEL 5
REMARK VINA RESULT:      -5.9      0.943      1.728
REMARK  Name = 
REMARK  10 active torsions:
REMARK  status: ('A' for Active; 'I' for Inactive)
REMARK    1  A    between atoms: C_1  and  C_2
REMARK    2  A    between atoms: C_5  and  O_6
REMARK    3  A    between atoms: O_6  and  C_7
REMARK    4  A    between atoms: C_7  and  C_8
REMARK    5  A    between atoms: C_8  and  C_9
REMARK    6  A    between atoms: C_9  and  N_10
REMARK    7  A    between atoms: N_10  and  C_11
REMARK    8  A    between atoms: C_11  and  C_12
REMARK    9  A    between atoms: C_12  and  O_13
REMARK   10  A    between atoms: O_13  and  C_14
REMARK                            x       y       z     vdW  Elec       q    Type
REMARK                         _______ _______ _______ _____ _____    ______ ____
ROOT
ATOM      1  C   UNL     1       1.695   3.560  17.888  0.00  0.00    +0.000 C 
ENDROOT
BRANCH   1   2
ATOM      2  N   UNL     1       0.956   3.596  19.153  0.00  0.00    +0.000 NA
ATOM      3  H   UNL     1       0.351   2.776  19.214  0.00  0.00    +0.000 HD
BRANCH   2   4
ATOM      4  C   UNL     1       1.828   3.631  20.334  0.00  0.00    +0.000 C 
BRANCH   4   5
ATOM      5  C   UNL     1       2.119   5.046  20.847  0.00  0.00    +0.000 C 
BRANCH   5   6
ATOM      6  O   UNL     1       2.958   5.737  19.921  0.00  0.00    +0.000 OA
BRANCH   6   7
ATOM      7  C   UNL     1       2.445   6.927  19.469  0.00  0.00    +0.000 A 
ATOM      8  C   UNL     1       1.774   7.686  20.428  0.00  0.00    +0.000 A 
ATOM      9  C   UNL     1       1.197   8.909  20.081  0.00  0.00    +0.000 A 
ATOM     10  C   UNL     1       1.304   9.386  18.776  0.00  0.00    +0.000 A 
ATOM     11  C   UNL     1       1.994   8.646  17.820  0.00  0.00    +0.000 A 
ATOM     12  C   UNL     1       2.567   7.421  18.167  0.00  0.00    +0.000 A 
ENDBRANCH   6   7
ENDBRANCH   5   6
ENDBRANCH   4   5
ENDBRANCH   2   4
ENDBRANCH   1   2
BRANCH   1  13
ATOM     13  C   UNL     1       2.645   2.366  17.839  0.00  0.00    +0.000 C 
BRANCH  13  14
ATOM     14  C   UNL     1       4.106   2.809  17.852  0.00  0.00    +0.000 C 
BRANCH  14  15
ATOM     15  O   UNL     1       4.342   3.631  16.709  0.00  0.00    +0.000 OA
BRANCH  15  20
ATOM     16  C   UNL     1       7.882   7.926  17.827  0.00  0.00    +0.000 C 
ATOM     17  C   UNL     1       6.932   6.805  17.524  0.00  0.00    +0.000 A 
ATOM     18  C   UNL     1       6.989   5.599  18.232  0.00  0.00    +0.000 A 
ATOM     19  C   UNL     1       6.104   4.563  17.928  0.00  0.00    +0.000 A 
ATOM     20  C   UNL     1       5.146   4.720  16.928  0.00  0.00    +0.000 A 
ATOM     21  C   UNL     1       5.092   5.918  16.213  0.00  0.00    +0.000 A 
ATOM     22  C   UNL     1       5.982   6.953  16.510  0.00  0.00    +0.000 A 
ENDBRANCH  15  20
ENDBRANCH  14  15
ENDBRANCH  13  14
ENDBRANCH   1  13
TORSDOF 9
ENDMDL
MODEL 6
REMARK VINA RESULT:      -5.9      3.112      5.243
REMARK  Name = 
REMARK  10 active torsions:
REMARK  status: ('A' for Active; 'I' for Inactive)
REMARK    1  A    between atoms: C_1  and  C_2
REMARK    2  A    between atoms: C_5  and  O_6
REMARK    3  A    between atoms: O_6  and  C_7
REMARK    4  A    between atoms: C_7  and  C_8
REMARK    5  A    between atoms: C_8  and  C_9
REMARK    6  A    between atoms: C_9  and  N_10
REMARK    7  A    between atoms: N_10  and  C_11
REMARK    8  A    between atoms: C_11  and  C_12
REMARK    9  A    between atoms: C_12  and  O_13
REMARK   10  A    between atoms: O_13  and  C_14
REMARK                            x       y       z     vdW  Elec       q    Type
REMARK                         _______ _______ _______ _____ _____    ______ ____
ROOT
ATOM      1  C   UNL     1       6.406   7.193  17.251  0.00  0.00    +0.000 C 
ENDROOT
BRANCH   1   2
ATOM      2  N   UNL     1       5.070   6.967  16.694  0.00  0.00    +0.000 NA
ATOM      3  H   UNL     1       4.949   5.972  16.500  0.00  0.00    +0.000 HD
BRANCH   2   4
ATOM      4  C   UNL     1       3.987   7.411  17.582  0.00  0.00    +0.000 C 
BRANCH   4   5
ATOM      5  C   UNL     1       3.507   6.331  18.558  0.00  0.00    +0.000 C 
BRANCH   5   6
ATOM      6  O   UNL     1       2.245   5.815  18.131  0.00  0.00    +0.000 OA
BRANCH   6   7
ATOM      7  C   UNL     1       1.787   4.754  18.872  0.00  0.00    +0.000 A 
ATOM      8  C   UNL     1       1.458   3.615  18.137  0.00  0.00    +0.000 A 
ATOM      9  C   UNL     1       0.967   2.479  18.780  0.00  0.00    +0.000 A 
ATOM     10  C   UNL     1       0.818   2.470  20.166  0.00  0.00    +0.000 A 
ATOM     11  C   UNL     1       1.167   3.595  20.909  0.00  0.00    +0.000 A 
ATOM     12  C   UNL     1       1.655   4.733  20.263  0.00  0.00    +0.000 A 
ENDBRANCH   6   7
ENDBRANCH   5   6
ENDBRANCH   4   5
ENDBRANCH   2   4
ENDBRANCH   1   2
BRANCH   1  13
ATOM     13  C   UNL     1       7.002   5.897  17.795  0.00  0.00    +0.000 C 
BRANCH  13  14
ATOM     14  C   UNL     1       7.443   4.964  16.670  0.00  0.00    +0.000 C 
BRANCH  14  15
ATOM     15  O   UNL     1       7.334   5.665  15.430  0.00  0.00    +0.000 OA
BRANCH  15  20
ATOM     16  C   UNL     1       5.229   2.512  11.204  0.00  0.00    +0.000 C 
ATOM     17  C   UNL     1       5.804   3.342  12.314  0.00  0.00    +0.000 A 
ATOM     18  C   UNL     1       5.136   3.479  13.536  0.00  0.00    +0.000 A 
ATOM     19  C   UNL     1       5.683   4.264  14.552  0.00  0.00    +0.000 A 
ATOM     20  C   UNL     1       6.904   4.911  14.369  0.00  0.00    +0.000 A 
ATOM     21  C   UNL     1       7.570   4.784  13.148  0.00  0.00    +0.000 A 
ATOM     22  C   UNL     1       7.021   4.005  12.127  0.00  0.00    +0.000 A 
ENDBRANCH  15  20
ENDBRANCH  14  15
ENDBRANCH  13  14
ENDBRANCH   1  13
TORSDOF 9
ENDMDL
MODEL 7
REMARK VINA RESULT:      -5.8      2.005      4.235
REMARK  Name = 
REMARK  10 active torsions:
REMARK  status: ('A' for Active; 'I' for Inactive)
REMARK    1  A    between atoms: C_1  and  C_2
REMARK    2  A    between atoms: C_5  and  O_6
REMARK    3  A    between atoms: O_6  and  C_7
REMARK    4  A    between atoms: C_7  and  C_8
REMARK    5  A    between atoms: C_8  and  C_9
REMARK    6  A    between atoms: C_9  and  N_10
REMARK    7  A    between atoms: N_10  and  C_11
REMARK    8  A    between atoms: C_11  and  C_12
REMARK    9  A    between atoms: C_12  and  O_13
REMARK   10  A    between atoms: O_13  and  C_14
REMARK                            x       y       z     vdW  Elec       q    Type
REMARK                         _______ _______ _______ _____ _____    ______ ____
ROOT
ATOM      1  C   UNL     1       7.119   5.330  16.399  0.00  0.00    +0.000 C 
ENDROOT
BRANCH   1   2
ATOM      2  N   UNL     1       6.651   6.708  16.563  0.00  0.00    +0.000 NA
ATOM      3  H   UNL     1       6.248   7.034  15.683  0.00  0.00    +0.000 HD
BRANCH   2   4
ATOM      4  C   UNL     1       5.650   6.859  17.627  0.00  0.00    +0.000 C 
BRANCH   4   5
ATOM      5  C   UNL     1       4.288   7.359  17.128  0.00  0.00    +0.000 C 
BRANCH   5   6
ATOM      6  O   UNL     1       3.241   6.768  17.898  0.00  0.00    +0.000 OA
BRANCH   6   7
ATOM      7  C   UNL     1       2.431   7.671  18.540  0.00  0.00    +0.000 A 
ATOM      8  C   UNL     1       2.195   7.403  19.889  0.00  0.00    +0.000 A 
ATOM      9  C   UNL     1       1.374   8.245  20.641  0.00  0.00    +0.000 A 
ATOM     10  C   UNL     1       0.799   9.369  20.052  0.00  0.00    +0.000 A 
ATOM     11  C   UNL     1       1.049   9.656  18.712  0.00  0.00    +0.000 A 
ATOM     12  C   UNL     1       1.867   8.811  17.960  0.00  0.00    +0.000 A 
ENDBRANCH   6   7
ENDBRANCH   5   6
ENDBRANCH   4   5
ENDBRANCH   2   4
ENDBRANCH   1   2
BRANCH   1  13
ATOM     13  C   UNL     1       6.471   4.668  15.185  0.00  0.00    +0.000 C 
BRANCH  13  14
ATOM     14  C   UNL     1       5.075   4.141  15.510  0.00  0.00    +0.000 C 
BRANCH  14  15
ATOM     15  O   UNL     1       5.168   3.281  16.646  0.00  0.00    +0.000 OA
BRANCH  15  20
ATOM     16  C   UNL     1       0.862   3.897  20.295  0.00  0.00    +0.000 C 
ATOM     17  C   UNL     1       2.012   3.744  19.343  0.00  0.00    +0.000 A 
ATOM     18  C   UNL     1       1.799   3.600  17.968  0.00  0.00    +0.000 A 
ATOM     19  C   UNL     1       2.882   3.448  17.101  0.00  0.00    +0.000 A 
ATOM     20  C   UNL     1       4.187   3.452  17.589  0.00  0.00    +0.000 A 
ATOM     21  C   UNL     1       4.405   3.586  18.962  0.00  0.00    +0.000 A 
ATOM     22  C   UNL     1       3.322   3.730  19.833  0.00  0.00    +0.000 A 
ENDBRANCH  15  20
ENDBRANCH  14  15
ENDBRANCH  13  14
ENDBRANCH   1  13
TORSDOF 9
ENDMDL
MODEL 8
REMARK VINA RESULT:      -5.8      1.600      5.512
REMARK  Name = 
REMARK  10 active torsions:
REMARK  status: ('A' for Active; 'I' for Inactive)
REMARK    1  A    between atoms: C_1  and  C_2
REMARK    2  A    between atoms: C_5  and  O_6
REMARK    3  A    between atoms: O_6  and  C_7
REMARK    4  A    between atoms: C_7  and  C_8
REMARK    5  A    between atoms: C_8  and  C_9
REMARK    6  A    between atoms: C_9  and  N_10
REMARK    7  A    between atoms: N_10  and  C_11
REMARK    8  A    between atoms: C_11  and  C_12
REMARK    9  A    between atoms: C_12  and  O_13
REMARK   10  A    between atoms: O_13  and  C_14
REMARK                            x       y       z     vdW  Elec       q    Type
REMARK                         _______ _______ _______ _____ _____    ______ ____
ROOT
ATOM      1  C   UNL     1       6.194   6.021  18.065  0.00  0.00    +0.000 C 
ENDROOT
BRANCH   1   2
ATOM      2  N   UNL     1       5.621   4.724  18.431  0.00  0.00    +0.000 NA
ATOM      3  H   UNL     1       4.714   4.869  18.878  0.00  0.00    +0.000 HD
BRANCH   2   4
ATOM      4  C   UNL     1       5.444   3.823  17.285  0.00  0.00    +0.000 C 
BRANCH   4   5
ATOM      5  C   UNL     1       4.020   3.270  17.147  0.00  0.00    +0.000 C 
BRANCH   5   6
ATOM      6  O   UNL     1       3.808   2.226  18.099  0.00  0.00    +0.000 OA
BRANCH   6   7
ATOM      7  C   UNL     1       2.897   2.529  19.080  0.00  0.00    +0.000 A 
ATOM      8  C   UNL     1       3.402   2.525  20.380  0.00  0.00    +0.000 A 
ATOM      9  C   UNL     1       2.565   2.803  21.461  0.00  0.00    +0.000 A 
ATOM     10  C   UNL     1       1.221   3.105  21.245  0.00  0.00    +0.000 A 
ATOM     11  C   UNL     1       0.717   3.135  19.948  0.00  0.00    +0.000 A 
ATOM     12  C   UNL     1       1.554   2.852  18.867  0.00  0.00    +0.000 A 
ENDBRANCH   6   7
ENDBRANCH   5   6
ENDBRANCH   4   5
ENDBRANCH   2   4
ENDBRANCH   1   2
BRANCH   1  13
ATOM     13  C   UNL     1       5.616   6.527  16.746  0.00  0.00    +0.000 C 
BRANCH  13  14
ATOM     14  C   UNL     1       4.344   7.344  16.964  0.00  0.00    +0.000 C 
BRANCH  14  15
ATOM     15  O   UNL     1       3.386   6.523  17.632  0.00  0.00    +0.000 OA
BRANCH  15  20
ATOM     16  C   UNL     1       0.334   8.908  21.782  0.00  0.00    +0.000 C 
ATOM     17  C   UNL     1       1.131   8.289  20.671  0.00  0.00    +0.000 A 
ATOM     18  C   UNL     1       1.655   6.997  20.790  0.00  0.00    +0.000 A 
ATOM     19  C   UNL     1       2.403   6.443  19.750  0.00  0.00    +0.000 A 
ATOM     20  C   UNL     1       2.626   7.162  18.577  0.00  0.00    +0.000 A 
ATOM     21  C   UNL     1       2.112   8.455  18.457  0.00  0.00    +0.000 A 
ATOM     22  C   UNL     1       1.370   9.014  19.500  0.00  0.00    +0.000 A 
ENDBRANCH  15  20
ENDBRANCH  14  15
ENDBRANCH  13  14
ENDBRANCH   1  13
TORSDOF 9
ENDMDL
MODEL 9
REMARK VINA RESULT:      -5.8      3.936      7.231
REMARK  Name = 
REMARK  10 active torsions:
REMARK  status: ('A' for Active; 'I' for Inactive)
REMARK    1  A    between atoms: C_1  and  C_2
REMARK    2  A    between atoms: C_5  and  O_6
REMARK    3  A    between atoms: O_6  and  C_7
REMARK    4  A    between atoms: C_7  and  C_8
REMARK    5  A    between atoms: C_8  and  C_9
REMARK    6  A    between atoms: C_9  and  N_10
REMARK    7  A    between atoms: N_10  and  C_11
REMARK    8  A    between atoms: C_11  and  C_12
REMARK    9  A    between atoms: C_12  and  O_13
REMARK   10  A    between atoms: O_13  and  C_14
REMARK                            x       y       z     vdW  Elec       q    Type
REMARK                         _______ _______ _______ _____ _____    ______ ____
ROOT
ATOM      1  C   UNL     1       7.112   5.883  17.044  0.00  0.00    +0.000 C 
ENDROOT
BRANCH   1   2
ATOM      2  N   UNL     1       7.418   7.313  16.956  0.00  0.00    +0.000 NA
ATOM      3  H   UNL     1       6.550   7.837  16.836  0.00  0.00    +0.000 HD
BRANCH   2   4
ATOM      4  C   UNL     1       8.124   7.830  18.135  0.00  0.00    +0.000 C 
BRANCH   4   5
ATOM      5  C   UNL     1       8.388   9.341  18.085  0.00  0.00    +0.000 C 
BRANCH   5   6
ATOM      6  O   UNL     1       9.052   9.759  19.279  0.00  0.00    +0.000 OA
BRANCH   6   7
ATOM      7  C   UNL     1       9.835  10.876  19.129  0.00  0.00    +0.000 A 
ATOM      8  C   UNL     1      10.244  11.478  20.319  0.00  0.00    +0.000 A 
ATOM      9  C   UNL     1      11.033  12.629  20.292  0.00  0.00    +0.000 A 
ATOM     10  C   UNL     1      11.431  13.174  19.072  0.00  0.00    +0.000 A 
ATOM     11  C   UNL     1      11.047  12.564  17.881  0.00  0.00    +0.000 A 
ATOM     12  C   UNL     1      10.255  11.415  17.910  0.00  0.00    +0.000 A 
ENDBRANCH   6   7
ENDBRANCH   5   6
ENDBRANCH   4   5
ENDBRANCH   2   4
ENDBRANCH   1   2
BRANCH   1  13
ATOM     13  C   UNL     1       5.942   5.628  17.992  0.00  0.00    +0.000 C 
BRANCH  13  14
ATOM     14  C   UNL     1       4.707   6.431  17.589  0.00  0.00    +0.000 C 
BRANCH  14  15
ATOM     15  O   UNL     1       3.666   5.517  17.241  0.00  0.00    +0.000 OA
BRANCH  15  20
ATOM     16  C   UNL     1       1.459   2.716  21.658  0.00  0.00    +0.000 C 
ATOM     17  C   UNL     1       2.055   3.441  20.488  0.00  0.00    +0.000 A 
ATOM     18  C   UNL     1       1.997   4.836  20.395  0.00  0.00    +0.000 A 
ATOM     19  C   UNL     1       2.548   5.491  19.292  0.00  0.00    +0.000 A 
ATOM     20  C   UNL     1       3.174   4.768  18.279  0.00  0.00    +0.000 A 
ATOM     21  C   UNL     1       3.228   3.376  18.363  0.00  0.00    +0.000 A 
ATOM     22  C   UNL     1       2.669   2.717  19.461  0.00  0.00    +0.000 A 
ENDBRANCH  15  20
ENDBRANCH  14  15
ENDBRANCH  13  14
ENDBRANCH   1  13
TORSDOF 9
ENDMDL
