MODEL 1
REMARK VINA RESULT:      -9.6      0.000      0.000
REMARK  Name = 
REMARK  2 active torsions:
REMARK  status: ('A' for Active; 'I' for Inactive)
REMARK    1  A    between atoms: C_10  and  C_11
REMARK    2  A    between atoms: C_16  and  C_17
REMARK                            x       y       z     vdW  Elec       q    Type
REMARK                         _______ _______ _______ _____ _____    ______ ____
ROOT
ATOM      1  N   UNL     1       1.140  11.658  18.132  0.00  0.00    +0.000 N 
ATOM      2  C   UNL     1       0.461  11.284  19.239  0.00  0.00    +0.000 C 
ATOM      3  O   UNL     1      -0.325  12.083  19.740  0.00  0.00    +0.000 OA
ATOM      4  N   UNL     1       0.724  10.028  19.761  0.00  0.00    +0.000 N 
ATOM      5  C   UNL     1      -0.004   9.638  20.964  0.00  0.00    +0.000 C 
ATOM      6  C   UNL     1       0.880   8.851  21.914  0.00  0.00    +0.000 C 
ATOM      7  C   UNL     1       1.345   7.576  21.226  0.00  0.00    +0.000 C 
ATOM      8  C   UNL     1       1.841   7.849  19.832  0.00  0.00    +0.000 A 
ATOM      9  C   UNL     1       2.619   6.875  19.176  0.00  0.00    +0.000 A 
ATOM     10  C   UNL     1       3.202   7.127  17.925  0.00  0.00    +0.000 A 
ATOM     11  C   UNL     1       2.941   8.389  17.408  0.00  0.00    +0.000 A 
ATOM     12  N   UNL     1       2.118   9.308  17.962  0.00  0.00    +0.000 NA
ATOM     13  C   UNL     1       1.572   9.048  19.166  0.00  0.00    +0.000 A 
ATOM     14  H   UNL     1       0.852  12.507  17.681  0.00  0.00    +0.000 HD
ATOM     15  H   UNL     1       1.537  10.911  17.566  0.00  0.00    +0.000 HD
ENDROOT
BRANCH  10  16
ATOM     16  C   UNL     1       4.082   6.149  17.235  0.00  0.00    +0.000 A 
ATOM     17  C   UNL     1       4.929   6.626  16.220  0.00  0.00    +0.000 A 
ATOM     18  N   UNL     1       5.737   5.877  15.437  0.00  0.00    +0.000 NA
ATOM     19  C   UNL     1       5.720   4.555  15.660  0.00  0.00    +0.000 A 
ATOM     20  C   UNL     1       4.950   3.959  16.645  0.00  0.00    +0.000 A 
ATOM     21  C   UNL     1       4.102   4.739  17.461  0.00  0.00    +0.000 A 
BRANCH  21  22
ATOM     22  C   UNL     1       3.241   4.029  18.453  0.00  0.00    +0.000 A 
ATOM     23  C   UNL     1       3.699   3.675  19.737  0.00  0.00    +0.000 A 
ATOM     24  C   UNL     1       2.813   3.228  20.726  0.00  0.00    +0.000 A 
ATOM     25  C   UNL     1       1.475   3.037  20.414  0.00  0.00    +0.000 A 
ATOM     26  F   UNL     1       0.621   2.642  21.367  0.00  0.00    +0.000 F 
ATOM     27  C   UNL     1       1.009   3.265  19.130  0.00  0.00    +0.000 A 
ATOM     28  C   UNL     1       1.884   3.767  18.160  0.00  0.00    +0.000 A 
ENDBRANCH  21  22
ENDBRANCH  10  16
TORSDOF 2
ENDMDL
MODEL 2
REMARK VINA RESULT:      -9.5      0.885      1.322
REMARK  Name = 
REMARK  2 active torsions:
REMARK  status: ('A' for Active; 'I' for Inactive)
REMARK    1  A    between atoms: C_10  and  C_11
REMARK    2  A    between atoms: C_16  and  C_17
REMARK                            x       y       z     vdW  Elec       q    Type
REMARK                         _______ _______ _______ _____ _____    ______ ____
ROOT
ATOM      1  N   UNL     1       0.229  12.011  18.081  0.00  0.00    +0.000 N 
ATOM      2  C   UNL     1      -0.318  11.781  19.296  0.00  0.00    +0.000 C 
ATOM      3  O   UNL     1      -1.112  12.602  19.744  0.00  0.00    +0.000 OA
ATOM      4  N   UNL     1       0.085  10.643  19.976  0.00  0.00    +0.000 N 
ATOM      5  C   UNL     1      -0.498  10.410  21.293  0.00  0.00    +0.000 C 
ATOM      6  C   UNL     1       0.524   9.841  22.259  0.00  0.00    +0.000 C 
ATOM      7  C   UNL     1       1.019   8.502  21.733  0.00  0.00    +0.000 C 
ATOM      8  C   UNL     1       1.365   8.575  20.270  0.00  0.00    +0.000 A 
ATOM      9  C   UNL     1       2.151   7.556  19.697  0.00  0.00    +0.000 A 
ATOM     10  C   UNL     1       2.597   7.637  18.370  0.00  0.00    +0.000 A 
ATOM     11  C   UNL     1       2.196   8.781  17.693  0.00  0.00    +0.000 A 
ATOM     12  N   UNL     1       1.361   9.726  18.178  0.00  0.00    +0.000 NA
ATOM     13  C   UNL     1       0.947   9.633  19.457  0.00  0.00    +0.000 A 
ATOM     14  H   UNL     1      -0.162  12.758  17.536  0.00  0.00    +0.000 HD
ATOM     15  H   UNL     1       0.627  11.207  17.600  0.00  0.00    +0.000 HD
ENDROOT
BRANCH  10  16
ATOM     16  C   UNL     1       3.481   6.615  17.755  0.00  0.00    +0.000 A 
ATOM     17  C   UNL     1       4.318   7.016  16.699  0.00  0.00    +0.000 A 
ATOM     18  N   UNL     1       5.128   6.215  15.973  0.00  0.00    +0.000 NA
ATOM     19  C   UNL     1       5.124   4.915  16.300  0.00  0.00    +0.000 A 
ATOM     20  C   UNL     1       4.366   4.392  17.334  0.00  0.00    +0.000 A 
ATOM     21  C   UNL     1       3.516   5.228  18.092  0.00  0.00    +0.000 A 
BRANCH  21  22
ATOM     22  C   UNL     1       2.666   4.591  19.142  0.00  0.00    +0.000 A 
ATOM     23  C   UNL     1       1.466   3.918  18.840  0.00  0.00    +0.000 A 
ATOM     24  C   UNL     1       0.814   3.132  19.798  0.00  0.00    +0.000 A 
ATOM     25  C   UNL     1       1.300   3.088  21.096  0.00  0.00    +0.000 A 
ATOM     26  F   UNL     1       0.698   2.310  22.005  0.00  0.00    +0.000 F 
ATOM     27  C   UNL     1       2.413   3.828  21.460  0.00  0.00    +0.000 A 
ATOM     28  C   UNL     1       3.096   4.566  20.488  0.00  0.00    +0.000 A 
ENDBRANCH  21  22
ENDBRANCH  10  16
TORSDOF 2
ENDMDL
MODEL 3
REMARK VINA RESULT:      -9.5      2.897      4.219
REMARK  Name = 
REMARK  2 active torsions:
REMARK  status: ('A' for Active; 'I' for Inactive)
REMARK    1  A    between atoms: C_10  and  C_11
REMARK    2  A    between atoms: C_16  and  C_17
REMARK                            x       y       z     vdW  Elec       q    Type
REMARK                         _______ _______ _______ _____ _____    ______ ____
ROOT
ATOM      1  N   UNL     1       0.311   8.921  22.778  0.00  0.00    +0.000 N 
ATOM      2  C   UNL     1       0.507  10.045  22.054  0.00  0.00    +0.000 C 
ATOM      3  O   UNL     1       0.244  11.127  22.573  0.00  0.00    +0.000 OA
ATOM      4  N   UNL     1       0.959   9.901  20.752  0.00  0.00    +0.000 N 
ATOM      5  C   UNL     1       1.153  11.120  19.973  0.00  0.00    +0.000 C 
ATOM      6  C   UNL     1       0.730  10.927  18.529  0.00  0.00    +0.000 C 
ATOM      7  C   UNL     1       1.584   9.838  17.898  0.00  0.00    +0.000 C 
ATOM      8  C   UNL     1       1.692   8.631  18.790  0.00  0.00    +0.000 A 
ATOM      9  C   UNL     1       2.140   7.411  18.247  0.00  0.00    +0.000 A 
ATOM     10  C   UNL     1       2.147   6.232  19.007  0.00  0.00    +0.000 A 
ATOM     11  C   UNL     1       1.688   6.379  20.309  0.00  0.00    +0.000 A 
ATOM     12  N   UNL     1       1.347   7.550  20.892  0.00  0.00    +0.000 NA
ATOM     13  C   UNL     1       1.342   8.670  20.143  0.00  0.00    +0.000 A 
ATOM     14  H   UNL     1       0.115   9.033  23.756  0.00  0.00    +0.000 HD
ATOM     15  H   UNL     1       0.806   8.087  22.468  0.00  0.00    +0.000 HD
ENDROOT
BRANCH  10  16
ATOM     16  C   UNL     1       2.551   4.917  18.447  0.00  0.00    +0.000 A 
ATOM     17  C   UNL     1       1.556   3.938  18.280  0.00  0.00    +0.000 A 
ATOM     18  N   UNL     1       1.747   2.668  17.860  0.00  0.00    +0.000 NA
ATOM     19  C   UNL     1       3.011   2.321  17.579  0.00  0.00    +0.000 A 
ATOM     20  C   UNL     1       4.081   3.195  17.676  0.00  0.00    +0.000 A 
ATOM     21  C   UNL     1       3.883   4.521  18.119  0.00  0.00    +0.000 A 
BRANCH  21  22
ATOM     22  C   UNL     1       5.086   5.391  18.277  0.00  0.00    +0.000 A 
ATOM     23  C   UNL     1       6.038   5.188  19.295  0.00  0.00    +0.000 A 
ATOM     24  C   UNL     1       7.268   5.858  19.282  0.00  0.00    +0.000 A 
ATOM     25  C   UNL     1       7.521   6.811  18.306  0.00  0.00    +0.000 A 
ATOM     26  F   UNL     1       8.710   7.427  18.272  0.00  0.00    +0.000 F 
ATOM     27  C   UNL     1       6.563   7.120  17.355  0.00  0.00    +0.000 A 
ATOM     28  C   UNL     1       5.359   6.408  17.335  0.00  0.00    +0.000 A 
ENDBRANCH  21  22
ENDBRANCH  10  16
TORSDOF 2
ENDMDL
MODEL 4
REMARK VINA RESULT:      -9.3      2.858      4.373
REMARK  Name = 
REMARK  2 active torsions:
REMARK  status: ('A' for Active; 'I' for Inactive)
REMARK    1  A    between atoms: C_10  and  C_11
REMARK    2  A    between atoms: C_16  and  C_17
REMARK                            x       y       z     vdW  Elec       q    Type
REMARK                         _______ _______ _______ _____ _____    ______ ____
ROOT
ATOM      1  N   UNL     1       0.386   8.965  22.563  0.00  0.00    +0.000 N 
ATOM      2  C   UNL     1       0.661   9.979  21.713  0.00  0.00    +0.000 C 
ATOM      3  O   UNL     1       0.422  11.127  22.077  0.00  0.00    +0.000 OA
ATOM      4  N   UNL     1       1.164   9.652  20.464  0.00  0.00    +0.000 N 
ATOM      5  C   UNL     1       1.444  10.752  19.547  0.00  0.00    +0.000 C 
ATOM      6  C   UNL     1       1.078  10.391  18.120  0.00  0.00    +0.000 C 
ATOM      7  C   UNL     1       1.912   9.199  17.675  0.00  0.00    +0.000 C 
ATOM      8  C   UNL     1       1.928   8.114  18.717  0.00  0.00    +0.000 A 
ATOM      9  C   UNL     1       2.348   6.819  18.356  0.00  0.00    +0.000 A 
ATOM     10  C   UNL     1       2.271   5.747  19.258  0.00  0.00    +0.000 A 
ATOM     11  C   UNL     1       1.761   6.077  20.507  0.00  0.00    +0.000 A 
ATOM     12  N   UNL     1       1.444   7.325  20.919  0.00  0.00    +0.000 NA
ATOM     13  C   UNL     1       1.521   8.340  20.036  0.00  0.00    +0.000 A 
ATOM     14  H   UNL     1       0.151   9.208  23.508  0.00  0.00    +0.000 HD
ATOM     15  H   UNL     1       0.857   8.080  22.386  0.00  0.00    +0.000 HD
ENDROOT
BRANCH  10  16
ATOM     16  C   UNL     1       2.643   4.357  18.890  0.00  0.00    +0.000 A 
ATOM     17  C   UNL     1       1.738   3.328  19.204  0.00  0.00    +0.000 A 
ATOM     18  N   UNL     1       1.937   2.005  19.017  0.00  0.00    +0.000 NA
ATOM     19  C   UNL     1       3.114   1.653  18.478  0.00  0.00    +0.000 A 
ATOM     20  C   UNL     1       4.082   2.568  18.099  0.00  0.00    +0.000 A 
ATOM     21  C   UNL     1       3.877   3.951  18.299  0.00  0.00    +0.000 A 
BRANCH  21  22
ATOM     22  C   UNL     1       4.989   4.880  17.941  0.00  0.00    +0.000 A 
ATOM     23  C   UNL     1       4.993   5.634  16.751  0.00  0.00    +0.000 A 
ATOM     24  C   UNL     1       5.918   6.666  16.548  0.00  0.00    +0.000 A 
ATOM     25  C   UNL     1       6.911   6.893  17.489  0.00  0.00    +0.000 A 
ATOM     26  F   UNL     1       7.775   7.901  17.313  0.00  0.00    +0.000 F 
ATOM     27  C   UNL     1       7.010   6.097  18.618  0.00  0.00    +0.000 A 
ATOM     28  C   UNL     1       6.050   5.105  18.847  0.00  0.00    +0.000 A 
ENDBRANCH  21  22
ENDBRANCH  10  16
TORSDOF 2
ENDMDL
MODEL 5
REMARK VINA RESULT:      -9.1      1.327      2.140
REMARK  Name = 
REMARK  2 active torsions:
REMARK  status: ('A' for Active; 'I' for Inactive)
REMARK    1  A    between atoms: C_10  and  C_11
REMARK    2  A    between atoms: C_16  and  C_17
REMARK                            x       y       z     vdW  Elec       q    Type
REMARK                         _______ _______ _______ _____ _____    ______ ____
ROOT
ATOM      1  N   UNL     1       0.728   8.739  22.671  0.00  0.00    +0.000 N 
ATOM      2  C   UNL     1       0.115   9.763  22.039  0.00  0.00    +0.000 C 
ATOM      3  O   UNL     1      -0.557  10.544  22.706  0.00  0.00    +0.000 OA
ATOM      4  N   UNL     1       0.257   9.846  20.663  0.00  0.00    +0.000 N 
ATOM      5  C   UNL     1      -0.420  10.947  19.986  0.00  0.00    +0.000 C 
ATOM      6  C   UNL     1      -0.995  10.507  18.652  0.00  0.00    +0.000 C 
ATOM      7  C   UNL     1       0.136  10.040  17.749  0.00  0.00    +0.000 C 
ATOM      8  C   UNL     1       1.078   9.116  18.473  0.00  0.00    +0.000 A 
ATOM      9  C   UNL     1       1.970   8.321  17.728  0.00  0.00    +0.000 A 
ATOM     10  C   UNL     1       2.785   7.361  18.347  0.00  0.00    +0.000 A 
ATOM     11  C   UNL     1       2.635   7.277  19.725  0.00  0.00    +0.000 A 
ATOM     12  N   UNL     1       1.866   8.092  20.481  0.00  0.00    +0.000 NA
ATOM     13  C   UNL     1       1.087   9.004  19.866  0.00  0.00    +0.000 A 
ATOM     14  H   UNL     1       0.736   8.757  23.675  0.00  0.00    +0.000 HD
ATOM     15  H   UNL     1       1.505   8.299  22.182  0.00  0.00    +0.000 HD
ENDROOT
BRANCH  10  16
ATOM     16  C   UNL     1       3.688   6.461  17.586  0.00  0.00    +0.000 A 
ATOM     17  C   UNL     1       4.471   7.024  16.564  0.00  0.00    +0.000 A 
ATOM     18  N   UNL     1       5.288   6.354  15.722  0.00  0.00    +0.000 NA
ATOM     19  C   UNL     1       5.347   5.024  15.887  0.00  0.00    +0.000 A 
ATOM     20  C   UNL     1       4.646   4.347  16.870  0.00  0.00    +0.000 A 
ATOM     21  C   UNL     1       3.789   5.046  17.748  0.00  0.00    +0.000 A 
BRANCH  21  22
ATOM     22  C   UNL     1       3.002   4.250  18.736  0.00  0.00    +0.000 A 
ATOM     23  C   UNL     1       3.575   3.720  19.909  0.00  0.00    +0.000 A 
ATOM     24  C   UNL     1       2.776   3.186  20.929  0.00  0.00    +0.000 A 
ATOM     25  C   UNL     1       1.405   3.087  20.747  0.00  0.00    +0.000 A 
ATOM     26  F   UNL     1       0.637   2.608  21.735  0.00  0.00    +0.000 F 
ATOM     27  C   UNL     1       0.818   3.493  19.560  0.00  0.00    +0.000 A 
ATOM     28  C   UNL     1       1.609   4.079  18.567  0.00  0.00    +0.000 A 
ENDBRANCH  21  22
ENDBRANCH  10  16
TORSDOF 2
ENDMDL
MODEL 6
REMARK VINA RESULT:      -9.1      2.696      3.676
REMARK  Name = 
REMARK  2 active torsions:
REMARK  status: ('A' for Active; 'I' for Inactive)
REMARK    1  A    between atoms: C_10  and  C_11
REMARK    2  A    between atoms: C_16  and  C_17
REMARK                            x       y       z     vdW  Elec       q    Type
REMARK                         _______ _______ _______ _____ _____    ______ ____
ROOT
ATOM      1  N   UNL     1       1.858  11.347  17.826  0.00  0.00    +0.000 N 
ATOM      2  C   UNL     1       1.245  11.484  19.023  0.00  0.00    +0.000 C 
ATOM      3  O   UNL     1       0.850  12.598  19.353  0.00  0.00    +0.000 OA
ATOM      4  N   UNL     1       1.135  10.356  19.821  0.00  0.00    +0.000 N 
ATOM      5  C   UNL     1       0.486  10.516  21.118  0.00  0.00    +0.000 C 
ATOM      6  C   UNL     1       1.169   9.683  22.186  0.00  0.00    +0.000 C 
ATOM      7  C   UNL     1       1.081   8.212  21.807  0.00  0.00    +0.000 C 
ATOM      8  C   UNL     1       1.449   7.989  20.365  0.00  0.00    +0.000 A 
ATOM      9  C   UNL     1       1.758   6.686  19.928  0.00  0.00    +0.000 A 
ATOM     10  C   UNL     1       2.220   6.442  18.626  0.00  0.00    +0.000 A 
ATOM     11  C   UNL     1       2.335   7.575  17.831  0.00  0.00    +0.000 A 
ATOM     12  N   UNL     1       1.952   8.822  18.184  0.00  0.00    +0.000 NA
ATOM     13  C   UNL     1       1.516   9.036  19.441  0.00  0.00    +0.000 A 
ATOM     14  H   UNL     1       1.816  12.128  17.197  0.00  0.00    +0.000 HD
ATOM     15  H   UNL     1       1.899  10.406  17.439  0.00  0.00    +0.000 HD
ENDROOT
BRANCH  10  16
ATOM     16  C   UNL     1       2.618   5.092  18.153  0.00  0.00    +0.000 A 
ATOM     17  C   UNL     1       1.600   4.151  17.916  0.00  0.00    +0.000 A 
ATOM     18  N   UNL     1       1.774   2.859  17.559  0.00  0.00    +0.000 NA
ATOM     19  C   UNL     1       3.043   2.448  17.420  0.00  0.00    +0.000 A 
ATOM     20  C   UNL     1       4.137   3.279  17.599  0.00  0.00    +0.000 A 
ATOM     21  C   UNL     1       3.956   4.628  17.976  0.00  0.00    +0.000 A 
BRANCH  21  22
ATOM     22  C   UNL     1       5.176   5.451  18.229  0.00  0.00    +0.000 A 
ATOM     23  C   UNL     1       6.032   5.219  19.323  0.00  0.00    +0.000 A 
ATOM     24  C   UNL     1       7.285   5.840  19.409  0.00  0.00    +0.000 A 
ATOM     25  C   UNL     1       7.656   6.774  18.452  0.00  0.00    +0.000 A 
ATOM     26  F   UNL     1       8.866   7.344  18.514  0.00  0.00    +0.000 F 
ATOM     27  C   UNL     1       6.792   7.113  17.424  0.00  0.00    +0.000 A 
ATOM     28  C   UNL     1       5.566   6.450  17.308  0.00  0.00    +0.000 A 
ENDBRANCH  21  22
ENDBRANCH  10  16
TORSDOF 2
ENDMDL
MODEL 7
REMARK VINA RESULT:      -9.1      1.596      2.597
REMARK  Name = 
REMARK  2 active torsions:
REMARK  status: ('A' for Active; 'I' for Inactive)
REMARK    1  A    between atoms: C_10  and  C_11
REMARK    2  A    between atoms: C_16  and  C_17
REMARK                            x       y       z     vdW  Elec       q    Type
REMARK                         _______ _______ _______ _____ _____    ______ ____
ROOT
ATOM      1  N   UNL     1       0.139   9.348  22.967  0.00  0.00    +0.000 N 
ATOM      2  C   UNL     1      -0.471  10.336  22.276  0.00  0.00    +0.000 C 
ATOM      3  O   UNL     1      -1.164  11.139  22.895  0.00  0.00    +0.000 OA
ATOM      4  N   UNL     1      -0.304  10.357  20.901  0.00  0.00    +0.000 N 
ATOM      5  C   UNL     1      -0.979  11.418  20.161  0.00  0.00    +0.000 C 
ATOM      6  C   UNL     1      -1.524  10.911  18.839  0.00  0.00    +0.000 C 
ATOM      7  C   UNL     1      -0.372  10.415  17.979  0.00  0.00    +0.000 C 
ATOM      8  C   UNL     1       0.565   9.535  18.763  0.00  0.00    +0.000 A 
ATOM      9  C   UNL     1       1.479   8.716  18.072  0.00  0.00    +0.000 A 
ATOM     10  C   UNL     1       2.291   7.794  18.750  0.00  0.00    +0.000 A 
ATOM     11  C   UNL     1       2.117   7.772  20.127  0.00  0.00    +0.000 A 
ATOM     12  N   UNL     1       1.325   8.613  20.830  0.00  0.00    +0.000 NA
ATOM     13  C   UNL     1       0.550   9.487  20.160  0.00  0.00    +0.000 A 
ATOM     14  H   UNL     1       0.128   9.413  23.968  0.00  0.00    +0.000 HD
ATOM     15  H   UNL     1       0.930   8.894  22.513  0.00  0.00    +0.000 HD
ENDROOT
BRANCH  10  16
ATOM     16  C   UNL     1       3.217   6.869  18.048  0.00  0.00    +0.000 A 
ATOM     17  C   UNL     1       4.016   7.394  17.017  0.00  0.00    +0.000 A 
ATOM     18  N   UNL     1       4.855   6.694  16.222  0.00  0.00    +0.000 NA
ATOM     19  C   UNL     1       4.923   5.374  16.449  0.00  0.00    +0.000 A 
ATOM     20  C   UNL     1       4.209   4.735  17.448  0.00  0.00    +0.000 A 
ATOM     21  C   UNL     1       3.328   5.465  18.277  0.00  0.00    +0.000 A 
BRANCH  21  22
ATOM     22  C   UNL     1       2.530   4.707  19.285  0.00  0.00    +0.000 A 
ATOM     23  C   UNL     1       1.407   3.931  18.934  0.00  0.00    +0.000 A 
ATOM     24  C   UNL     1       0.821   3.047  19.849  0.00  0.00    +0.000 A 
ATOM     25  C   UNL     1       1.288   2.999  21.154  0.00  0.00    +0.000 A 
ATOM     26  F   UNL     1       0.751   2.130  22.020  0.00  0.00    +0.000 F 
ATOM     27  C   UNL     1       2.315   3.831  21.568  0.00  0.00    +0.000 A 
ATOM     28  C   UNL     1       2.937   4.670  20.638  0.00  0.00    +0.000 A 
ENDBRANCH  21  22
ENDBRANCH  10  16
TORSDOF 2
ENDMDL
MODEL 8
REMARK VINA RESULT:      -9.0      2.664      3.803
REMARK  Name = 
REMARK  2 active torsions:
REMARK  status: ('A' for Active; 'I' for Inactive)
REMARK    1  A    between atoms: C_10  and  C_11
REMARK    2  A    between atoms: C_16  and  C_17
REMARK                            x       y       z     vdW  Elec       q    Type
REMARK                         _______ _______ _______ _____ _____    ______ ____
ROOT
ATOM      1  N   UNL     1       2.207  10.998  17.597  0.00  0.00    +0.000 N 
ATOM      2  C   UNL     1       1.583  11.235  18.772  0.00  0.00    +0.000 C 
ATOM      3  O   UNL     1       1.251  12.387  19.035  0.00  0.00    +0.000 OA
ATOM      4  N   UNL     1       1.390  10.160  19.625  0.00  0.00    +0.000 N 
ATOM      5  C   UNL     1       0.729  10.428  20.898  0.00  0.00    +0.000 C 
ATOM      6  C   UNL     1       1.341   9.612  22.022  0.00  0.00    +0.000 C 
ATOM      7  C   UNL     1       1.169   8.132  21.718  0.00  0.00    +0.000 C 
ATOM      8  C   UNL     1       1.549   7.810  20.298  0.00  0.00    +0.000 A 
ATOM      9  C   UNL     1       1.785   6.470  19.936  0.00  0.00    +0.000 A 
ATOM     10  C   UNL     1       2.255   6.130  18.658  0.00  0.00    +0.000 A 
ATOM     11  C   UNL     1       2.452   7.210  17.808  0.00  0.00    +0.000 A 
ATOM     12  N   UNL     1       2.140   8.495  18.088  0.00  0.00    +0.000 NA
ATOM     13  C   UNL     1       1.696   8.800  19.322  0.00  0.00    +0.000 A 
ATOM     14  H   UNL     1       2.225  11.745  16.927  0.00  0.00    +0.000 HD
ATOM     15  H   UNL     1       2.198  10.037  17.261  0.00  0.00    +0.000 HD
ENDROOT
BRANCH  10  16
ATOM     16  C   UNL     1       2.577   4.735  18.265  0.00  0.00    +0.000 A 
ATOM     17  C   UNL     1       1.538   3.788  18.283  0.00  0.00    +0.000 A 
ATOM     18  N   UNL     1       1.658   2.466  18.032  0.00  0.00    +0.000 NA
ATOM     19  C   UNL     1       2.890   2.027  17.739  0.00  0.00    +0.000 A 
ATOM     20  C   UNL     1       3.996   2.857  17.663  0.00  0.00    +0.000 A 
ATOM     21  C   UNL     1       3.873   4.239  17.929  0.00  0.00    +0.000 A 
BRANCH  21  22
ATOM     22  C   UNL     1       5.115   5.067  17.906  0.00  0.00    +0.000 A 
ATOM     23  C   UNL     1       5.376   6.013  16.894  0.00  0.00    +0.000 A 
ATOM     24  C   UNL     1       6.421   6.938  17.018  0.00  0.00    +0.000 A 
ATOM     25  C   UNL     1       7.276   6.866  18.107  0.00  0.00    +0.000 A 
ATOM     26  F   UNL     1       8.254   7.771  18.244  0.00  0.00    +0.000 F 
ATOM     27  C   UNL     1       7.121   5.878  19.065  0.00  0.00    +0.000 A 
ATOM     28  C   UNL     1       6.043   4.992  18.969  0.00  0.00    +0.000 A 
ENDBRANCH  21  22
ENDBRANCH  10  16
TORSDOF 2
ENDMDL
MODEL 9
REMARK VINA RESULT:      -8.8      0.789      1.227
REMARK  Name = 
REMARK  2 active torsions:
REMARK  status: ('A' for Active; 'I' for Inactive)
REMARK    1  A    between atoms: C_10  and  C_11
REMARK    2  A    between atoms: C_16  and  C_17
REMARK                            x       y       z     vdW  Elec       q    Type
REMARK                         _______ _______ _______ _____ _____    ______ ____
ROOT
ATOM      1  N   UNL     1      -0.139  11.315  18.105  0.00  0.00    +0.000 N 
ATOM      2  C   UNL     1      -0.551  10.956  19.340  0.00  0.00    +0.000 C 
ATOM      3  O   UNL     1      -1.446  11.608  19.870  0.00  0.00    +0.000 OA
ATOM      4  N   UNL     1       0.092   9.889  19.948  0.00  0.00    +0.000 N 
ATOM      5  C   UNL     1      -0.350   9.517  21.288  0.00  0.00    +0.000 C 
ATOM      6  C   UNL     1       0.821   9.112  22.164  0.00  0.00    +0.000 C 
ATOM      7  C   UNL     1       1.507   7.900  21.554  0.00  0.00    +0.000 C 
ATOM      8  C   UNL     1       1.734   8.076  20.077  0.00  0.00    +0.000 A 
ATOM      9  C   UNL     1       2.647   7.231  19.416  0.00  0.00    +0.000 A 
ATOM     10  C   UNL     1       2.980   7.430  18.067  0.00  0.00    +0.000 A 
ATOM     11  C   UNL     1       2.338   8.503  17.464  0.00  0.00    +0.000 A 
ATOM     12  N   UNL     1       1.383   9.269  18.038  0.00  0.00    +0.000 NA
ATOM     13  C   UNL     1       1.082   9.065  19.335  0.00  0.00    +0.000 A 
ATOM     14  H   UNL     1      -0.691  11.996  17.616  0.00  0.00    +0.000 HD
ATOM     15  H   UNL     1       0.362  10.610  17.567  0.00  0.00    +0.000 HD
ENDROOT
BRANCH  10  16
ATOM     16  C   UNL     1       3.987   6.601  17.357  0.00  0.00    +0.000 A 
ATOM     17  C   UNL     1       4.893   7.252  16.502  0.00  0.00    +0.000 A 
ATOM     18  N   UNL     1       5.822   6.659  15.721  0.00  0.00    +0.000 NA
ATOM     19  C   UNL     1       5.875   5.320  15.775  0.00  0.00    +0.000 A 
ATOM     20  C   UNL     1       5.058   4.558  16.594  0.00  0.00    +0.000 A 
ATOM     21  C   UNL     1       4.083   5.177  17.408  0.00  0.00    +0.000 A 
BRANCH  21  22
ATOM     22  C   UNL     1       3.182   4.297  18.209  0.00  0.00    +0.000 A 
ATOM     23  C   UNL     1       1.850   4.033  17.831  0.00  0.00    +0.000 A 
ATOM     24  C   UNL     1       1.104   3.027  18.459  0.00  0.00    +0.000 A 
ATOM     25  C   UNL     1       1.646   2.340  19.535  0.00  0.00    +0.000 A 
ATOM     26  F   UNL     1       0.946   1.355  20.115  0.00  0.00    +0.000 F 
ATOM     27  C   UNL     1       2.910   2.651  20.009  0.00  0.00    +0.000 A 
ATOM     28  C   UNL     1       3.675   3.615  19.344  0.00  0.00    +0.000 A 
ENDBRANCH  21  22
ENDBRANCH  10  16
TORSDOF 2
ENDMDL
