MODEL 1
REMARK VINA RESULT:      -7.5      0.000      0.000
REMARK  Name = 
REMARK  5 active torsions:
REMARK  status: ('A' for Active; 'I' for Inactive)
REMARK    1  A    between atoms: C_1  and  N_2
REMARK    2  A    between atoms: N_2  and  C_3
REMARK    3  A    between atoms: C_4  and  O_6
REMARK    4  A    between atoms: O_6  and  C_7
REMARK    5  A    between atoms: C_15  and  C_16
REMARK                            x       y       z     vdW  Elec       q    Type
REMARK                         _______ _______ _______ _____ _____    ______ ____
ROOT
ATOM      1  C   UNL     1       1.590   9.206  18.843  0.00  0.00    +0.000 A 
ATOM      2  C   UNL     1       1.177   8.542  20.020  0.00  0.00    +0.000 A 
ATOM      3  C   UNL     1       1.696   7.288  20.346  0.00  0.00    +0.000 A 
ATOM      4  C   UNL     1       2.589   6.733  19.455  0.00  0.00    +0.000 A 
ATOM      5  C   UNL     1       2.970   7.371  18.274  0.00  0.00    +0.000 A 
ATOM      6  C   UNL     1       2.478   8.616  17.939  0.00  0.00    +0.000 A 
ATOM      7  O   UNL     1       3.850   6.625  17.524  0.00  0.00    +0.000 OA
ATOM      8  C   UNL     1       4.062   5.452  18.246  0.00  0.00    +0.000 C 
ATOM      9  C   UNL     1       4.855   4.440  17.874  0.00  0.00    +0.000 C 
ATOM     10  C   UNL     1       3.281   5.454  19.507  0.00  0.00    +0.000 C 
ATOM     11  O   UNL     1       3.217   4.607  20.369  0.00  0.00    +0.000 OA
ENDROOT
BRANCH   9  12
ATOM     12  C   UNL     1       5.590   4.481  16.614  0.00  0.00    +0.000 A 
ATOM     13  C   UNL     1       6.884   5.011  16.572  0.00  0.00    +0.000 A 
ATOM     14  C   UNL     1       7.552   5.133  15.354  0.00  0.00    +0.000 A 
ATOM     15  C   UNL     1       6.929   4.724  14.173  0.00  0.00    +0.000 A 
ATOM     16  C   UNL     1       5.644   4.185  14.219  0.00  0.00    +0.000 A 
ATOM     17 CL   UNL     1       4.873   3.691  12.762  0.00  0.00    +0.000 Cl
ATOM     18  C   UNL     1       4.972   4.058  15.433  0.00  0.00    +0.000 A 
ENDBRANCH   9  12
BRANCH   1  19
ATOM     19  O   UNL     1       1.025  10.447  18.480  0.00  0.00    +0.000 OA
BRANCH  19  23
ATOM     20  C   UNL     1      -2.330  11.772  19.009  0.00  0.00    +0.000 C 
ATOM     21  N   UNL     1      -0.946  11.405  19.241  0.00  0.00    +0.000 N 
ATOM     22  C   UNL     1      -0.149  12.192  20.161  0.00  0.00    +0.000 C 
ATOM     23  C   UNL     1      -0.365  10.509  18.351  0.00  0.00    +0.000 C 
ATOM     24  O   UNL     1      -1.011   9.883  17.514  0.00  0.00    +0.000 OA
ENDBRANCH  19  23
ENDBRANCH   1  19
TORSDOF 3
ENDMDL
MODEL 2
REMARK VINA RESULT:      -7.3      4.693      6.118
REMARK  Name = 
REMARK  5 active torsions:
REMARK  status: ('A' for Active; 'I' for Inactive)
REMARK    1  A    between atoms: C_1  and  N_2
REMARK    2  A    between atoms: N_2  and  C_3
REMARK    3  A    between atoms: C_4  and  O_6
REMARK    4  A    between atoms: O_6  and  C_7
REMARK    5  A    between atoms: C_15  and  C_16
REMARK                            x       y       z     vdW  Elec       q    Type
REMARK                         _______ _______ _______ _____ _____    ______ ____
ROOT
ATOM      1  C   UNL     1       4.568   3.979  19.032  0.00  0.00    +0.000 A 
ATOM      2  C   UNL     1       5.566   4.916  19.382  0.00  0.00    +0.000 A 
ATOM      3  C   UNL     1       6.391   5.471  18.403  0.00  0.00    +0.000 A 
ATOM      4  C   UNL     1       6.201   5.038  17.109  0.00  0.00    +0.000 A 
ATOM      5  C   UNL     1       5.240   4.086  16.767  0.00  0.00    +0.000 A 
ATOM      6  C   UNL     1       4.407   3.532  17.718  0.00  0.00    +0.000 A 
ATOM      7  O   UNL     1       5.241   3.783  15.425  0.00  0.00    +0.000 OA
ATOM      8  C   UNL     1       6.239   4.575  14.860  0.00  0.00    +0.000 C 
ATOM      9  C   UNL     1       6.581   4.593  13.565  0.00  0.00    +0.000 C 
ATOM     10  C   UNL     1       6.900   5.413  15.889  0.00  0.00    +0.000 C 
ATOM     11  O   UNL     1       7.803   6.210  15.763  0.00  0.00    +0.000 OA
ENDROOT
BRANCH   9  12
ATOM     12  C   UNL     1       5.911   3.734  12.596  0.00  0.00    +0.000 A 
ATOM     13  C   UNL     1       4.710   4.144  12.007  0.00  0.00    +0.000 A 
ATOM     14  C   UNL     1       4.022   3.287  11.148  0.00  0.00    +0.000 A 
ATOM     15  C   UNL     1       4.533   2.017  10.874  0.00  0.00    +0.000 A 
ATOM     16  C   UNL     1       5.736   1.616  11.452  0.00  0.00    +0.000 A 
ATOM     17 CL   UNL     1       6.360   0.046  11.122  0.00  0.00    +0.000 Cl
ATOM     18  C   UNL     1       6.430   2.468  12.309  0.00  0.00    +0.000 A 
ENDBRANCH   9  12
BRANCH   1  19
ATOM     19  O   UNL     1       3.771   3.371  20.026  0.00  0.00    +0.000 OA
BRANCH  19  23
ATOM     20  C   UNL     1       0.389   2.390  19.084  0.00  0.00    +0.000 C 
ATOM     21  N   UNL     1       1.489   3.057  19.753  0.00  0.00    +0.000 N 
ATOM     22  C   UNL     1       1.294   4.396  20.275  0.00  0.00    +0.000 C 
ATOM     23  C   UNL     1       2.756   2.509  19.599  0.00  0.00    +0.000 C 
ATOM     24  O   UNL     1       2.952   1.406  19.095  0.00  0.00    +0.000 OA
ENDBRANCH  19  23
ENDBRANCH   1  19
TORSDOF 3
ENDMDL
MODEL 3
REMARK VINA RESULT:      -7.3      0.921      1.156
REMARK  Name = 
REMARK  5 active torsions:
REMARK  status: ('A' for Active; 'I' for Inactive)
REMARK    1  A    between atoms: C_1  and  N_2
REMARK    2  A    between atoms: N_2  and  C_3
REMARK    3  A    between atoms: C_4  and  O_6
REMARK    4  A    between atoms: O_6  and  C_7
REMARK    5  A    between atoms: C_15  and  C_16
REMARK                            x       y       z     vdW  Elec       q    Type
REMARK                         _______ _______ _______ _____ _____    ______ ____
ROOT
ATOM      1  C   UNL     1       1.121   9.172  19.656  0.00  0.00    +0.000 A 
ATOM      2  C   UNL     1       0.491   8.490  20.721  0.00  0.00    +0.000 A 
ATOM      3  C   UNL     1       0.900   7.206  21.081  0.00  0.00    +0.000 A 
ATOM      4  C   UNL     1       1.909   6.641  20.331  0.00  0.00    +0.000 A 
ATOM      5  C   UNL     1       2.508   7.299  19.256  0.00  0.00    +0.000 A 
ATOM      6  C   UNL     1       2.125   8.573  18.891  0.00  0.00    +0.000 A 
ATOM      7  O   UNL     1       3.473   6.540  18.635  0.00  0.00    +0.000 OA
ATOM      8  C   UNL     1       3.517   5.336  19.337  0.00  0.00    +0.000 C 
ATOM      9  C   UNL     1       4.323   4.303  19.064  0.00  0.00    +0.000 C 
ATOM     10  C   UNL     1       2.535   5.333  20.449  0.00  0.00    +0.000 C 
ATOM     11  O   UNL     1       2.296   4.462  21.255  0.00  0.00    +0.000 OA
ENDROOT
BRANCH   9  12
ATOM     12  C   UNL     1       5.260   4.352  17.947  0.00  0.00    +0.000 A 
ATOM     13  C   UNL     1       6.604   4.668  18.172  0.00  0.00    +0.000 A 
ATOM     14  C   UNL     1       7.482   4.803  17.095  0.00  0.00    +0.000 A 
ATOM     15  C   UNL     1       7.018   4.621  15.791  0.00  0.00    +0.000 A 
ATOM     16  C   UNL     1       5.681   4.293  15.572  0.00  0.00    +0.000 A 
ATOM     17 CL   UNL     1       5.108   4.079  13.963  0.00  0.00    +0.000 Cl
ATOM     18  C   UNL     1       4.800   4.155  16.642  0.00  0.00    +0.000 A 
ENDBRANCH   9  12
BRANCH   1  19
ATOM     19  O   UNL     1       0.671  10.448  19.251  0.00  0.00    +0.000 OA
BRANCH  19  23
ATOM     20  C   UNL     1      -2.700  11.735  18.736  0.00  0.00    +0.000 C 
ATOM     21  N   UNL     1      -1.465  11.341  19.386  0.00  0.00    +0.000 N 
ATOM     22  C   UNL     1      -1.045  12.033  20.589  0.00  0.00    +0.000 C 
ATOM     23  C   UNL     1      -0.596  10.529  18.668  0.00  0.00    +0.000 C 
ATOM     24  O   UNL     1      -0.906   9.988  17.609  0.00  0.00    +0.000 OA
ENDBRANCH  19  23
ENDBRANCH   1  19
TORSDOF 3
ENDMDL
MODEL 4
REMARK VINA RESULT:      -7.2      4.649      6.035
REMARK  Name = 
REMARK  5 active torsions:
REMARK  status: ('A' for Active; 'I' for Inactive)
REMARK    1  A    between atoms: C_1  and  N_2
REMARK    2  A    between atoms: N_2  and  C_3
REMARK    3  A    between atoms: C_4  and  O_6
REMARK    4  A    between atoms: O_6  and  C_7
REMARK    5  A    between atoms: C_15  and  C_16
REMARK                            x       y       z     vdW  Elec       q    Type
REMARK                         _______ _______ _______ _____ _____    ______ ____
ROOT
ATOM      1  C   UNL     1       4.488   4.125  18.972  0.00  0.00    +0.000 A 
ATOM      2  C   UNL     1       5.396   5.146  19.333  0.00  0.00    +0.000 A 
ATOM      3  C   UNL     1       6.256   5.698  18.383  0.00  0.00    +0.000 A 
ATOM      4  C   UNL     1       6.191   5.179  17.108  0.00  0.00    +0.000 A 
ATOM      5  C   UNL     1       5.320   4.147  16.758  0.00  0.00    +0.000 A 
ATOM      6  C   UNL     1       4.454   3.594  17.679  0.00  0.00    +0.000 A 
ATOM      7  O   UNL     1       5.442   3.768  15.441  0.00  0.00    +0.000 OA
ATOM      8  C   UNL     1       6.428   4.591  14.900  0.00  0.00    +0.000 C 
ATOM      9  C   UNL     1       6.865   4.558  13.635  0.00  0.00    +0.000 C 
ATOM     10  C   UNL     1       6.956   5.530  15.920  0.00  0.00    +0.000 C 
ATOM     11  O   UNL     1       7.814   6.377  15.810  0.00  0.00    +0.000 OA
ENDROOT
BRANCH   9  12
ATOM     12  C   UNL     1       6.324   3.602  12.675  0.00  0.00    +0.000 A 
ATOM     13  C   UNL     1       7.143   2.597  12.148  0.00  0.00    +0.000 A 
ATOM     14  C   UNL     1       6.653   1.739  11.164  0.00  0.00    +0.000 A 
ATOM     15  C   UNL     1       5.343   1.882  10.704  0.00  0.00    +0.000 A 
ATOM     16  C   UNL     1       4.525   2.876  11.240  0.00  0.00    +0.000 A 
ATOM     17 CL   UNL     1       2.914   3.058  10.664  0.00  0.00    +0.000 Cl
ATOM     18  C   UNL     1       5.008   3.735  12.224  0.00  0.00    +0.000 A 
ENDBRANCH   9  12
BRANCH   1  19
ATOM     19  O   UNL     1       3.658   3.523  19.942  0.00  0.00    +0.000 OA
BRANCH  19  23
ATOM     20  C   UNL     1       0.413   2.156  18.999  0.00  0.00    +0.000 C 
ATOM     21  N   UNL     1       1.429   2.938  19.676  0.00  0.00    +0.000 N 
ATOM     22  C   UNL     1       1.076   4.231  20.229  0.00  0.00    +0.000 C 
ATOM     23  C   UNL     1       2.753   2.553  19.502  0.00  0.00    +0.000 C 
ATOM     24  O   UNL     1       3.078   1.494  18.972  0.00  0.00    +0.000 OA
ENDBRANCH  19  23
ENDBRANCH   1  19
TORSDOF 3
ENDMDL
MODEL 5
REMARK VINA RESULT:      -7.2      1.442      1.990
REMARK  Name = 
REMARK  5 active torsions:
REMARK  status: ('A' for Active; 'I' for Inactive)
REMARK    1  A    between atoms: C_1  and  N_2
REMARK    2  A    between atoms: N_2  and  C_3
REMARK    3  A    between atoms: C_4  and  O_6
REMARK    4  A    between atoms: O_6  and  C_7
REMARK    5  A    between atoms: C_15  and  C_16
REMARK                            x       y       z     vdW  Elec       q    Type
REMARK                         _______ _______ _______ _____ _____    ______ ____
ROOT
ATOM      1  C   UNL     1       2.143   7.963  18.363  0.00  0.00    +0.000 A 
ATOM      2  C   UNL     1       2.251   7.319  19.616  0.00  0.00    +0.000 A 
ATOM      3  C   UNL     1       3.157   6.274  19.801  0.00  0.00    +0.000 A 
ATOM      4  C   UNL     1       3.899   5.893  18.705  0.00  0.00    +0.000 A 
ATOM      5  C   UNL     1       3.769   6.502  17.457  0.00  0.00    +0.000 A 
ATOM      6  C   UNL     1       2.887   7.545  17.255  0.00  0.00    +0.000 A 
ATOM      7  O   UNL     1       4.588   5.946  16.501  0.00  0.00    +0.000 OA
ATOM      8  C   UNL     1       5.293   4.934  17.151  0.00  0.00    +0.000 C 
ATOM      9  C   UNL     1       6.203   4.132  16.586  0.00  0.00    +0.000 C 
ATOM     10  C   UNL     1       4.900   4.844  18.578  0.00  0.00    +0.000 C 
ATOM     11  O   UNL     1       5.298   4.086  19.435  0.00  0.00    +0.000 OA
ENDROOT
BRANCH   9  12
ATOM     12  C   UNL     1       6.541   4.251  15.172  0.00  0.00    +0.000 A 
ATOM     13  C   UNL     1       7.540   5.140  14.761  0.00  0.00    +0.000 A 
ATOM     14  C   UNL     1       7.801   5.321  13.402  0.00  0.00    +0.000 A 
ATOM     15  C   UNL     1       7.065   4.613  12.451  0.00  0.00    +0.000 A 
ATOM     16  C   UNL     1       6.079   3.718  12.864  0.00  0.00    +0.000 A 
ATOM     17 CL   UNL     1       5.165   2.854  11.689  0.00  0.00    +0.000 Cl
ATOM     18  C   UNL     1       5.814   3.531  14.218  0.00  0.00    +0.000 A 
ENDBRANCH   9  12
BRANCH   1  19
ATOM     19  O   UNL     1       1.189   8.981  18.155  0.00  0.00    +0.000 OA
BRANCH  19  23
ATOM     20  C   UNL     1       1.227  12.029  20.154  0.00  0.00    +0.000 C 
ATOM     21  N   UNL     1       0.766  10.812  19.516  0.00  0.00    +0.000 N 
ATOM     22  C   UNL     1      -0.288  10.038  20.142  0.00  0.00    +0.000 C 
ATOM     23  C   UNL     1       1.553  10.286  18.499  0.00  0.00    +0.000 C 
ATOM     24  O   UNL     1       2.497  10.894  18.000  0.00  0.00    +0.000 OA
ENDBRANCH  19  23
ENDBRANCH   1  19
TORSDOF 3
ENDMDL
MODEL 6
REMARK VINA RESULT:      -7.2      0.685      1.193
REMARK  Name = 
REMARK  5 active torsions:
REMARK  status: ('A' for Active; 'I' for Inactive)
REMARK    1  A    between atoms: C_1  and  N_2
REMARK    2  A    between atoms: N_2  and  C_3
REMARK    3  A    between atoms: C_4  and  O_6
REMARK    4  A    between atoms: O_6  and  C_7
REMARK    5  A    between atoms: C_15  and  C_16
REMARK                            x       y       z     vdW  Elec       q    Type
REMARK                         _______ _______ _______ _____ _____    ______ ____
ROOT
ATOM      1  C   UNL     1       1.460   9.406  18.791  0.00  0.00    +0.000 A 
ATOM      2  C   UNL     1       1.013   8.778  19.975  0.00  0.00    +0.000 A 
ATOM      3  C   UNL     1       1.521   7.534  20.353  0.00  0.00    +0.000 A 
ATOM      4  C   UNL     1       2.439   6.953  19.505  0.00  0.00    +0.000 A 
ATOM      5  C   UNL     1       2.854   7.556  18.317  0.00  0.00    +0.000 A 
ATOM      6  C   UNL     1       2.373   8.790  17.931  0.00  0.00    +0.000 A 
ATOM      7  O   UNL     1       3.755   6.788  17.615  0.00  0.00    +0.000 OA
ATOM      8  C   UNL     1       3.945   5.637  18.378  0.00  0.00    +0.000 C 
ATOM      9  C   UNL     1       4.748   4.614  18.059  0.00  0.00    +0.000 C 
ATOM     10  C   UNL     1       3.128   5.676  19.615  0.00  0.00    +0.000 C 
ATOM     11  O   UNL     1       3.039   4.855  20.500  0.00  0.00    +0.000 OA
ENDROOT
BRANCH   9  12
ATOM     12  C   UNL     1       5.518   4.617  16.820  0.00  0.00    +0.000 A 
ATOM     13  C   UNL     1       6.814   5.145  16.800  0.00  0.00    +0.000 A 
ATOM     14  C   UNL     1       7.517   5.231  15.598  0.00  0.00    +0.000 A 
ATOM     15  C   UNL     1       6.928   4.788  14.413  0.00  0.00    +0.000 A 
ATOM     16  C   UNL     1       5.642   4.251  14.438  0.00  0.00    +0.000 A 
ATOM     17 CL   UNL     1       4.912   3.715  12.974  0.00  0.00    +0.000 Cl
ATOM     18  C   UNL     1       4.934   4.161  15.634  0.00  0.00    +0.000 A 
ENDBRANCH   9  12
BRANCH   1  19
ATOM     19  O   UNL     1       0.907  10.636  18.375  0.00  0.00    +0.000 OA
BRANCH  19  23
ATOM     20  C   UNL     1      -0.948  12.784  20.664  0.00  0.00    +0.000 C 
ATOM     21  N   UNL     1      -0.603  11.994  19.498  0.00  0.00    +0.000 N 
ATOM     22  C   UNL     1      -1.660  11.370  18.727  0.00  0.00    +0.000 C 
ATOM     23  C   UNL     1       0.728  11.624  19.348  0.00  0.00    +0.000 C 
ATOM     24  O   UNL     1       1.633  12.087  20.038  0.00  0.00    +0.000 OA
ENDBRANCH  19  23
ENDBRANCH   1  19
TORSDOF 3
ENDMDL
MODEL 7
REMARK VINA RESULT:      -7.1      1.375      1.798
REMARK  Name = 
REMARK  5 active torsions:
REMARK  status: ('A' for Active; 'I' for Inactive)
REMARK    1  A    between atoms: C_1  and  N_2
REMARK    2  A    between atoms: N_2  and  C_3
REMARK    3  A    between atoms: C_4  and  O_6
REMARK    4  A    between atoms: O_6  and  C_7
REMARK    5  A    between atoms: C_15  and  C_16
REMARK                            x       y       z     vdW  Elec       q    Type
REMARK                         _______ _______ _______ _____ _____    ______ ____
ROOT
ATOM      1  C   UNL     1       1.639   8.181  19.911  0.00  0.00    +0.000 A 
ATOM      2  C   UNL     1       1.121   7.239  20.828  0.00  0.00    +0.000 A 
ATOM      3  C   UNL     1       1.547   5.910  20.797  0.00  0.00    +0.000 A 
ATOM      4  C   UNL     1       2.457   5.572  19.819  0.00  0.00    +0.000 A 
ATOM      5  C   UNL     1       2.942   6.492  18.889  0.00  0.00    +0.000 A 
ATOM      6  C   UNL     1       2.543   7.813  18.910  0.00  0.00    +0.000 A 
ATOM      7  O   UNL     1       3.820   5.931  17.991  0.00  0.00    +0.000 OA
ATOM      8  C   UNL     1       3.923   4.588  18.349  0.00  0.00    +0.000 C 
ATOM      9  C   UNL     1       4.677   3.671  17.731  0.00  0.00    +0.000 C 
ATOM     10  C   UNL     1       3.070   4.285  19.525  0.00  0.00    +0.000 C 
ATOM     11  O   UNL     1       2.908   3.233  20.101  0.00  0.00    +0.000 OA
ENDROOT
BRANCH   9  12
ATOM     12  C   UNL     1       5.484   4.018  16.567  0.00  0.00    +0.000 A 
ATOM     13  C   UNL     1       6.659   4.761  16.724  0.00  0.00    +0.000 A 
ATOM     14  C   UNL     1       7.385   5.170  15.604  0.00  0.00    +0.000 A 
ATOM     15  C   UNL     1       6.937   4.837  14.325  0.00  0.00    +0.000 A 
ATOM     16  C   UNL     1       5.772   4.086  14.172  0.00  0.00    +0.000 A 
ATOM     17 CL   UNL     1       5.216   3.686  12.593  0.00  0.00    +0.000 Cl
ATOM     18  C   UNL     1       5.045   3.673  15.285  0.00  0.00    +0.000 A 
ENDBRANCH   9  12
BRANCH   1  19
ATOM     19  O   UNL     1       1.168   9.512  19.901  0.00  0.00    +0.000 OA
BRANCH  19  23
ATOM     20  C   UNL     1      -0.943  11.205  22.344  0.00  0.00    +0.000 C 
ATOM     21  N   UNL     1      -0.347  10.813  21.081  0.00  0.00    +0.000 N 
ATOM     22  C   UNL     1      -1.133  10.908  19.866  0.00  0.00    +0.000 C 
ATOM     23  C   UNL     1       0.836  10.086  21.131  0.00  0.00    +0.000 C 
ATOM     24  O   UNL     1       1.483   9.931  22.164  0.00  0.00    +0.000 OA
ENDBRANCH  19  23
ENDBRANCH   1  19
TORSDOF 3
ENDMDL
MODEL 8
REMARK VINA RESULT:      -7.1      1.585      2.140
REMARK  Name = 
REMARK  5 active torsions:
REMARK  status: ('A' for Active; 'I' for Inactive)
REMARK    1  A    between atoms: C_1  and  N_2
REMARK    2  A    between atoms: N_2  and  C_3
REMARK    3  A    between atoms: C_4  and  O_6
REMARK    4  A    between atoms: O_6  and  C_7
REMARK    5  A    between atoms: C_15  and  C_16
REMARK                            x       y       z     vdW  Elec       q    Type
REMARK                         _______ _______ _______ _____ _____    ______ ____
ROOT
ATOM      1  C   UNL     1       1.114   9.225  19.812  0.00  0.00    +0.000 A 
ATOM      2  C   UNL     1       0.426   8.510  20.818  0.00  0.00    +0.000 A 
ATOM      3  C   UNL     1       0.780   7.194  21.121  0.00  0.00    +0.000 A 
ATOM      4  C   UNL     1       1.796   6.636  20.376  0.00  0.00    +0.000 A 
ATOM      5  C   UNL     1       2.452   7.328  19.358  0.00  0.00    +0.000 A 
ATOM      6  C   UNL     1       2.125   8.633  19.049  0.00  0.00    +0.000 A 
ATOM      7  O   UNL     1       3.413   6.570  18.729  0.00  0.00    +0.000 OA
ATOM      8  C   UNL     1       3.393   5.330  19.366  0.00  0.00    +0.000 C 
ATOM      9  C   UNL     1       4.174   4.286  19.065  0.00  0.00    +0.000 C 
ATOM     10  C   UNL     1       2.373   5.302  20.443  0.00  0.00    +0.000 C 
ATOM     11  O   UNL     1       2.078   4.398  21.193  0.00  0.00    +0.000 OA
ENDROOT
BRANCH   9  12
ATOM     12  C   UNL     1       5.150   4.361  17.983  0.00  0.00    +0.000 A 
ATOM     13  C   UNL     1       6.473   4.726  18.256  0.00  0.00    +0.000 A 
ATOM     14  C   UNL     1       7.385   4.885  17.212  0.00  0.00    +0.000 A 
ATOM     15  C   UNL     1       6.978   4.679  15.893  0.00  0.00    +0.000 A 
ATOM     16  C   UNL     1       5.662   4.303  15.626  0.00  0.00    +0.000 A 
ATOM     17 CL   UNL     1       5.158   4.059  13.998  0.00  0.00    +0.000 Cl
ATOM     18  C   UNL     1       4.747   4.140  16.663  0.00  0.00    +0.000 A 
ENDBRANCH   9  12
BRANCH   1  19
ATOM     19  O   UNL     1       0.722  10.535  19.462  0.00  0.00    +0.000 OA
BRANCH  19  23
ATOM     20  C   UNL     1       2.193  13.759  20.317  0.00  0.00    +0.000 C 
ATOM     21  N   UNL     1       1.945  12.497  19.647  0.00  0.00    +0.000 N 
ATOM     22  C   UNL     1       2.272  12.365  18.240  0.00  0.00    +0.000 C 
ATOM     23  C   UNL     1       1.135  11.576  20.299  0.00  0.00    +0.000 C 
ATOM     24  O   UNL     1       0.786  11.702  21.470  0.00  0.00    +0.000 OA
ENDBRANCH  19  23
ENDBRANCH   1  19
TORSDOF 3
ENDMDL
MODEL 9
REMARK VINA RESULT:      -7.1      4.655      8.914
REMARK  Name = 
REMARK  5 active torsions:
REMARK  status: ('A' for Active; 'I' for Inactive)
REMARK    1  A    between atoms: C_1  and  N_2
REMARK    2  A    between atoms: N_2  and  C_3
REMARK    3  A    between atoms: C_4  and  O_6
REMARK    4  A    between atoms: O_6  and  C_7
REMARK    5  A    between atoms: C_15  and  C_16
REMARK                            x       y       z     vdW  Elec       q    Type
REMARK                         _______ _______ _______ _____ _____    ______ ____
ROOT
ATOM      1  C   UNL     1       2.792   5.373  19.874  0.00  0.00    +0.000 A 
ATOM      2  C   UNL     1       3.288   5.656  18.582  0.00  0.00    +0.000 A 
ATOM      3  C   UNL     1       3.055   6.897  17.989  0.00  0.00    +0.000 A 
ATOM      4  C   UNL     1       2.300   7.798  18.708  0.00  0.00    +0.000 A 
ATOM      5  C   UNL     1       1.778   7.507  19.969  0.00  0.00    +0.000 A 
ATOM      6  C   UNL     1       2.007   6.290  20.578  0.00  0.00    +0.000 A 
ATOM      7  O   UNL     1       1.036   8.541  20.492  0.00  0.00    +0.000 OA
ATOM      8  C   UNL     1       1.078   9.557  19.538  0.00  0.00    +0.000 C 
ATOM      9  C   UNL     1       0.480  10.750  19.643  0.00  0.00    +0.000 C 
ATOM     10  C   UNL     1       1.880   9.147  18.359  0.00  0.00    +0.000 C 
ATOM     11  O   UNL     1       2.125   9.766  17.348  0.00  0.00    +0.000 OA
ENDROOT
BRANCH   9  12
ATOM     12  C   UNL     1      -0.313  11.097  20.817  0.00  0.00    +0.000 A 
ATOM     13  C   UNL     1      -0.086  10.446  22.034  0.00  0.00    +0.000 A 
ATOM     14  C   UNL     1      -0.902  10.711  23.134  0.00  0.00    +0.000 A 
ATOM     15  C   UNL     1      -1.947  11.630  23.020  0.00  0.00    +0.000 A 
ATOM     16  C   UNL     1      -2.162  12.287  21.810  0.00  0.00    +0.000 A 
ATOM     17 CL   UNL     1      -3.458  13.412  21.668  0.00  0.00    +0.000 Cl
ATOM     18  C   UNL     1      -1.350  12.028  20.708  0.00  0.00    +0.000 A 
ENDBRANCH   9  12
BRANCH   1  19
ATOM     19  O   UNL     1       2.976   4.099  20.454  0.00  0.00    +0.000 OA
BRANCH  19  23
ATOM     20  C   UNL     1       3.690   1.386  18.126  0.00  0.00    +0.000 C 
ATOM     21  N   UNL     1       3.014   2.208  19.111  0.00  0.00    +0.000 N 
ATOM     22  C   UNL     1       1.565   2.206  19.161  0.00  0.00    +0.000 C 
ATOM     23  C   UNL     1       3.766   3.182  19.755  0.00  0.00    +0.000 C 
ATOM     24  O   UNL     1       4.990   3.247  19.670  0.00  0.00    +0.000 OA
ENDBRANCH  19  23
ENDBRANCH   1  19
TORSDOF 3
ENDMDL
