MODEL 1
REMARK VINA RESULT:      -7.8      0.000      0.000
REMARK  Name = 
REMARK  6 active torsions:
REMARK  status: ('A' for Active; 'I' for Inactive)
REMARK    1  A    between atoms: C_1  and  N_2
REMARK    2  A    between atoms: C_6  and  C_7
REMARK    3  A    between atoms: N_13  and  C_14
REMARK    4  A    between atoms: C_14  and  C_15
REMARK    5  A    between atoms: N_18  and  C_19
REMARK    6  A    between atoms: C_19  and  C_20
REMARK                            x       y       z     vdW  Elec       q    Type
REMARK                         _______ _______ _______ _____ _____    ______ ____
ROOT
ATOM      1  C   UNL     1      -0.586  11.271  22.603  0.00  0.00    +0.000 C 
ATOM      2  C   UNL     1      -0.773   9.890  23.227  0.00  0.00    +0.000 C 
ATOM      3  C   UNL     1       0.408   9.141  22.647  0.00  0.00    +0.000 C 
ATOM      4  N   UNL     1       0.511   9.645  21.285  0.00  0.00    +0.000 N 
ATOM      5  C   UNL     1       1.152   9.013  20.234  0.00  0.00    +0.000 C 
ATOM      6  O   UNL     1       1.117   9.434  19.084  0.00  0.00    +0.000 OA
ATOM      7  N   UNL     1       1.807   7.853  20.593  0.00  0.00    +0.000 N 
ATOM      8  C   UNL     1      -0.230  10.924  21.154  0.00  0.00    +0.000 C 
ATOM      9  H   UNL     1       2.083   7.780  21.557  0.00  0.00    +0.000 HD
ENDROOT
BRANCH   1  15
ATOM     10  C   UNL     1      -0.773  14.531  22.482  0.00  0.00    +0.000 C 
ATOM     11  N   UNL     1      -1.779  13.578  22.880  0.00  0.00    +0.000 N 
ATOM     12  C   UNL     1      -3.078  13.935  23.161  0.00  0.00    +0.000 A 
ATOM     13  C   UNL     1      -3.713  12.769  23.499  0.00  0.00    +0.000 A 
ATOM     14  N   UNL     1      -2.837  11.725  23.441  0.00  0.00    +0.000 NA
ATOM     15  C   UNL     1      -1.677  12.209  23.023  0.00  0.00    +0.000 A 
ENDBRANCH   1  15
BRANCH   7  16
ATOM     16  C   UNL     1       2.498   6.967  19.660  0.00  0.00    +0.000 C 
BRANCH  16  17
ATOM     17  C   UNL     1       1.844   5.573  19.556  0.00  0.00    +0.000 C 
ATOM     18  C   UNL     1       2.625   4.479  20.300  0.00  0.00    +0.000 C 
ATOM     19  C   UNL     1       3.855   3.978  19.539  0.00  0.00    +0.000 C 
ATOM     20  N   UNL     1       3.476   3.464  18.215  0.00  0.00    +0.000 NA
ATOM     21  C   UNL     1       2.864   4.537  17.416  0.00  0.00    +0.000 C 
ATOM     22  C   UNL     1       1.623   5.135  18.095  0.00  0.00    +0.000 C 
BRANCH  20  23
ATOM     23  C   UNL     1       4.631   2.891  17.491  0.00  0.00    +0.000 C 
BRANCH  23  24
ATOM     24  C   UNL     1       5.569   3.921  16.887  0.00  0.00    +0.000 A 
ATOM     25  C   UNL     1       6.385   4.717  17.701  0.00  0.00    +0.000 A 
ATOM     26  C   UNL     1       7.216   5.653  17.096  0.00  0.00    +0.000 A 
ATOM     27  N   UNL     1       7.299   5.837  15.759  0.00  0.00    +0.000 NA
ATOM     28  C   UNL     1       6.513   5.051  14.996  0.00  0.00    +0.000 A 
ATOM     29  C   UNL     1       5.645   4.091  15.503  0.00  0.00    +0.000 A 
ENDBRANCH  23  24
ENDBRANCH  20  23
ENDBRANCH  16  17
ENDBRANCH   7  16
TORSDOF 5
ENDMDL
MODEL 2
REMARK VINA RESULT:      -7.5      2.431      3.303
REMARK  Name = 
REMARK  6 active torsions:
REMARK  status: ('A' for Active; 'I' for Inactive)
REMARK    1  A    between atoms: C_1  and  N_2
REMARK    2  A    between atoms: C_6  and  C_7
REMARK    3  A    between atoms: N_13  and  C_14
REMARK    4  A    between atoms: C_14  and  C_15
REMARK    5  A    between atoms: N_18  and  C_19
REMARK    6  A    between atoms: C_19  and  C_20
REMARK                            x       y       z     vdW  Elec       q    Type
REMARK                         _______ _______ _______ _____ _____    ______ ____
ROOT
ATOM      1  C   UNL     1       0.617  11.029  18.905  0.00  0.00    +0.000 C 
ATOM      2  C   UNL     1       1.845  10.553  18.133  0.00  0.00    +0.000 C 
ATOM      3  C   UNL     1       1.791   9.060  18.382  0.00  0.00    +0.000 C 
ATOM      4  N   UNL     1       1.342   8.949  19.762  0.00  0.00    +0.000 N 
ATOM      5  C   UNL     1       1.510   7.847  20.582  0.00  0.00    +0.000 C 
ATOM      6  O   UNL     1       1.203   7.849  21.768  0.00  0.00    +0.000 OA
ATOM      7  N   UNL     1       2.078   6.761  19.951  0.00  0.00    +0.000 N 
ATOM      8  C   UNL     1       0.720  10.223  20.203  0.00  0.00    +0.000 C 
ATOM      9  H   UNL     1       1.964   6.718  18.953  0.00  0.00    +0.000 HD
ENDROOT
BRANCH   1  15
ATOM     10  C   UNL     1      -1.831  12.989  19.822  0.00  0.00    +0.000 C 
ATOM     11  N   UNL     1      -0.535  13.340  19.299  0.00  0.00    +0.000 N 
ATOM     12  C   UNL     1      -0.081  14.638  19.230  0.00  0.00    +0.000 A 
ATOM     13  C   UNL     1       1.171  14.559  18.680  0.00  0.00    +0.000 A 
ATOM     14  N   UNL     1       1.482  13.260  18.407  0.00  0.00    +0.000 NA
ATOM     15  C   UNL     1       0.466  12.517  18.822  0.00  0.00    +0.000 A 
ENDBRANCH   1  15
BRANCH   7  16
ATOM     16  C   UNL     1       2.423   5.505  20.611  0.00  0.00    +0.000 C 
BRANCH  16  17
ATOM     17  C   UNL     1       2.205   4.271  19.710  0.00  0.00    +0.000 C 
ATOM     18  C   UNL     1       3.321   3.223  19.835  0.00  0.00    +0.000 C 
ATOM     19  C   UNL     1       4.591   3.583  19.061  0.00  0.00    +0.000 C 
ATOM     20  N   UNL     1       4.295   3.784  17.635  0.00  0.00    +0.000 NA
ATOM     21  C   UNL     1       3.342   4.893  17.471  0.00  0.00    +0.000 C 
ATOM     22  C   UNL     1       2.027   4.649  18.227  0.00  0.00    +0.000 C 
BRANCH  20  23
ATOM     23  C   UNL     1       5.517   4.047  16.846  0.00  0.00    +0.000 C 
BRANCH  23  24
ATOM     24  C   UNL     1       6.385   5.169  17.386  0.00  0.00    +0.000 A 
ATOM     25  C   UNL     1       7.247   4.956  18.469  0.00  0.00    +0.000 A 
ATOM     26  C   UNL     1       8.011   6.021  18.932  0.00  0.00    +0.000 A 
ATOM     27  N   UNL     1       7.985   7.259  18.389  0.00  0.00    +0.000 NA
ATOM     28  C   UNL     1       7.158   7.437  17.339  0.00  0.00    +0.000 A 
ATOM     29  C   UNL     1       6.351   6.439  16.807  0.00  0.00    +0.000 A 
ENDBRANCH  23  24
ENDBRANCH  20  23
ENDBRANCH  16  17
ENDBRANCH   7  16
TORSDOF 5
ENDMDL
MODEL 3
REMARK VINA RESULT:      -7.4      6.721     10.564
REMARK  Name = 
REMARK  6 active torsions:
REMARK  status: ('A' for Active; 'I' for Inactive)
REMARK    1  A    between atoms: C_1  and  N_2
REMARK    2  A    between atoms: C_6  and  C_7
REMARK    3  A    between atoms: N_13  and  C_14
REMARK    4  A    between atoms: C_14  and  C_15
REMARK    5  A    between atoms: N_18  and  C_19
REMARK    6  A    between atoms: C_19  and  C_20
REMARK                            x       y       z     vdW  Elec       q    Type
REMARK                         _______ _______ _______ _____ _____    ______ ____
ROOT
ATOM      1  C   UNL     1       4.606   4.809  17.732  0.00  0.00    +0.000 C 
ATOM      2  C   UNL     1       3.976   6.184  17.513  0.00  0.00    +0.000 C 
ATOM      3  C   UNL     1       5.171   6.985  17.040  0.00  0.00    +0.000 C 
ATOM      4  N   UNL     1       6.275   6.479  17.843  0.00  0.00    +0.000 N 
ATOM      5  C   UNL     1       7.469   7.135  18.083  0.00  0.00    +0.000 C 
ATOM      6  O   UNL     1       8.320   6.706  18.853  0.00  0.00    +0.000 OA
ATOM      7  N   UNL     1       7.601   8.326  17.400  0.00  0.00    +0.000 N 
ATOM      8  C   UNL     1       5.919   5.165  18.436  0.00  0.00    +0.000 C 
ATOM      9  H   UNL     1       7.058   8.417  16.559  0.00  0.00    +0.000 HD
ENDROOT
BRANCH   1  15
ATOM     10  C   UNL     1       2.755   4.824  20.423  0.00  0.00    +0.000 C 
ATOM     11  N   UNL     1       2.753   3.889  19.326  0.00  0.00    +0.000 N 
ATOM     12  C   UNL     1       1.823   2.882  19.201  0.00  0.00    +0.000 A 
ATOM     13  C   UNL     1       2.155   2.218  18.050  0.00  0.00    +0.000 A 
ATOM     14  N   UNL     1       3.259   2.784  17.484  0.00  0.00    +0.000 NA
ATOM     15  C   UNL     1       3.596   3.823  18.234  0.00  0.00    +0.000 A 
ENDBRANCH   1  15
BRANCH   7  16
ATOM     16  C   UNL     1       8.733   9.238  17.534  0.00  0.00    +0.000 C 
BRANCH  16  17
ATOM     17  C   UNL     1       8.439  10.432  18.466  0.00  0.00    +0.000 C 
ATOM     18  C   UNL     1       8.502  11.791  17.752  0.00  0.00    +0.000 C 
ATOM     19  C   UNL     1       9.927  12.299  17.525  0.00  0.00    +0.000 C 
ATOM     20  N   UNL     1      10.654  12.406  18.798  0.00  0.00    +0.000 NA
ATOM     21  C   UNL     1      10.747  11.083  19.435  0.00  0.00    +0.000 C 
ATOM     22  C   UNL     1       9.368  10.461  19.696  0.00  0.00    +0.000 C 
BRANCH  20  23
ATOM     23  C   UNL     1      12.005  12.978  18.620  0.00  0.00    +0.000 C 
BRANCH  23  24
ATOM     24  C   UNL     1      12.056  14.494  18.651  0.00  0.00    +0.000 A 
ATOM     25  C   UNL     1      11.883  15.197  19.851  0.00  0.00    +0.000 A 
ATOM     26  C   UNL     1      11.926  16.587  19.820  0.00  0.00    +0.000 A 
ATOM     27  N   UNL     1      12.140  17.310  18.698  0.00  0.00    +0.000 NA
ATOM     28  C   UNL     1      12.315  16.612  17.558  0.00  0.00    +0.000 A 
ATOM     29  C   UNL     1      12.284  15.225  17.483  0.00  0.00    +0.000 A 
ENDBRANCH  23  24
ENDBRANCH  20  23
ENDBRANCH  16  17
ENDBRANCH   7  16
TORSDOF 5
ENDMDL
MODEL 4
REMARK VINA RESULT:      -7.4      3.909     11.035
REMARK  Name = 
REMARK  6 active torsions:
REMARK  status: ('A' for Active; 'I' for Inactive)
REMARK    1  A    between atoms: C_1  and  N_2
REMARK    2  A    between atoms: C_6  and  C_7
REMARK    3  A    between atoms: N_13  and  C_14
REMARK    4  A    between atoms: C_14  and  C_15
REMARK    5  A    between atoms: N_18  and  C_19
REMARK    6  A    between atoms: C_19  and  C_20
REMARK                            x       y       z     vdW  Elec       q    Type
REMARK                         _______ _______ _______ _____ _____    ______ ____
ROOT
ATOM      1  C   UNL     1       4.038   6.042  17.782  0.00  0.00    +0.000 C 
ATOM      2  C   UNL     1       3.568   5.891  19.228  0.00  0.00    +0.000 C 
ATOM      3  C   UNL     1       2.275   6.679  19.202  0.00  0.00    +0.000 C 
ATOM      4  N   UNL     1       2.567   7.809  18.332  0.00  0.00    +0.000 N 
ATOM      5  C   UNL     1       1.875   9.006  18.299  0.00  0.00    +0.000 C 
ATOM      6  O   UNL     1       2.231   9.961  17.619  0.00  0.00    +0.000 OA
ATOM      7  N   UNL     1       0.768   9.036  19.120  0.00  0.00    +0.000 N 
ATOM      8  C   UNL     1       3.771   7.525  17.510  0.00  0.00    +0.000 C 
ATOM      9  H   UNL     1       0.358   8.145  19.345  0.00  0.00    +0.000 HD
ENDROOT
BRANCH   1  15
ATOM     10  C   UNL     1       5.346   4.749  15.082  0.00  0.00    +0.000 C 
ATOM     11  N   UNL     1       5.926   4.886  16.395  0.00  0.00    +0.000 N 
ATOM     12  C   UNL     1       7.239   4.584  16.669  0.00  0.00    +0.000 A 
ATOM     13  C   UNL     1       7.403   4.838  18.005  0.00  0.00    +0.000 A 
ATOM     14  N   UNL     1       6.229   5.274  18.546  0.00  0.00    +0.000 NA
ATOM     15  C   UNL     1       5.346   5.345  17.562  0.00  0.00    +0.000 A 
ENDBRANCH   1  15
BRANCH   7  16
ATOM     16  C   UNL     1      -0.088  10.202  19.318  0.00  0.00    +0.000 C 
BRANCH  16  17
ATOM     17  C   UNL     1      -0.649  10.769  17.997  0.00  0.00    +0.000 C 
ATOM     18  C   UNL     1      -1.390  12.103  18.174  0.00  0.00    +0.000 C 
ATOM     19  C   UNL     1      -2.808  11.948  18.728  0.00  0.00    +0.000 C 
ATOM     20  N   UNL     1      -3.615  11.076  17.863  0.00  0.00    +0.000 NA
ATOM     21  C   UNL     1      -3.012   9.736  17.798  0.00  0.00    +0.000 C 
ATOM     22  C   UNL     1      -1.570   9.769  17.271  0.00  0.00    +0.000 C 
BRANCH  20  23
ATOM     23  C   UNL     1      -5.016  10.978  18.326  0.00  0.00    +0.000 C 
BRANCH  23  24
ATOM     24  C   UNL     1      -5.802  12.272  18.230  0.00  0.00    +0.000 A 
ATOM     25  C   UNL     1      -6.144  12.819  16.986  0.00  0.00    +0.000 A 
ATOM     26  C   UNL     1      -6.854  14.014  16.956  0.00  0.00    +0.000 A 
ATOM     27  N   UNL     1      -7.253  14.682  18.062  0.00  0.00    +0.000 NA
ATOM     28  C   UNL     1      -6.924  14.131  19.247  0.00  0.00    +0.000 A 
ATOM     29  C   UNL     1      -6.212  12.945  19.383  0.00  0.00    +0.000 A 
ENDBRANCH  23  24
ENDBRANCH  20  23
ENDBRANCH  16  17
ENDBRANCH   7  16
TORSDOF 5
ENDMDL
MODEL 5
REMARK VINA RESULT:      -7.3      2.747      3.268
REMARK  Name = 
REMARK  6 active torsions:
REMARK  status: ('A' for Active; 'I' for Inactive)
REMARK    1  A    between atoms: C_1  and  N_2
REMARK    2  A    between atoms: C_6  and  C_7
REMARK    3  A    between atoms: N_13  and  C_14
REMARK    4  A    between atoms: C_14  and  C_15
REMARK    5  A    between atoms: N_18  and  C_19
REMARK    6  A    between atoms: C_19  and  C_20
REMARK                            x       y       z     vdW  Elec       q    Type
REMARK                         _______ _______ _______ _____ _____    ______ ____
ROOT
ATOM      1  C   UNL     1       0.560  11.343  19.264  0.00  0.00    +0.000 C 
ATOM      2  C   UNL     1       1.692  10.891  18.343  0.00  0.00    +0.000 C 
ATOM      3  C   UNL     1       1.608   9.386  18.488  0.00  0.00    +0.000 C 
ATOM      4  N   UNL     1       1.288   9.184  19.893  0.00  0.00    +0.000 N 
ATOM      5  C   UNL     1       1.493   8.020  20.611  0.00  0.00    +0.000 C 
ATOM      6  O   UNL     1       1.301   7.941  21.819  0.00  0.00    +0.000 OA
ATOM      7  N   UNL     1       1.961   6.968  19.851  0.00  0.00    +0.000 N 
ATOM      8  C   UNL     1       0.757  10.438  20.484  0.00  0.00    +0.000 C 
ATOM      9  H   UNL     1       1.751   7.003  18.869  0.00  0.00    +0.000 HD
ENDROOT
BRANCH   1  15
ATOM     10  C   UNL     1       2.474  13.586  20.671  0.00  0.00    +0.000 C 
ATOM     11  N   UNL     1       1.323  13.778  19.823  0.00  0.00    +0.000 N 
ATOM     12  C   UNL     1       0.930  15.013  19.363  0.00  0.00    +0.000 A 
ATOM     13  C   UNL     1      -0.187  14.782  18.604  0.00  0.00    +0.000 A 
ATOM     14  N   UNL     1      -0.485  13.451  18.601  0.00  0.00    +0.000 NA
ATOM     15  C   UNL     1       0.456  12.837  19.303  0.00  0.00    +0.000 A 
ENDBRANCH   1  15
BRANCH   7  16
ATOM     16  C   UNL     1       2.321   5.656  20.382  0.00  0.00    +0.000 C 
BRANCH  16  17
ATOM     17  C   UNL     1       2.060   4.509  19.384  0.00  0.00    +0.000 C 
ATOM     18  C   UNL     1       3.031   3.330  19.545  0.00  0.00    +0.000 C 
ATOM     19  C   UNL     1       4.407   3.579  18.923  0.00  0.00    +0.000 C 
ATOM     20  N   UNL     1       4.285   3.892  17.492  0.00  0.00    +0.000 NA
ATOM     21  C   UNL     1       3.485   5.114  17.312  0.00  0.00    +0.000 C 
ATOM     22  C   UNL     1       2.081   4.988  17.919  0.00  0.00    +0.000 C 
BRANCH  20  23
ATOM     23  C   UNL     1       5.604   4.052  16.844  0.00  0.00    +0.000 C 
BRANCH  23  24
ATOM     24  C   UNL     1       6.466   5.153  17.433  0.00  0.00    +0.000 A 
ATOM     25  C   UNL     1       6.532   6.416  16.832  0.00  0.00    +0.000 A 
ATOM     26  C   UNL     1       7.348   7.385  17.407  0.00  0.00    +0.000 A 
ATOM     27  N   UNL     1       8.077   7.188  18.529  0.00  0.00    +0.000 NA
ATOM     28  C   UNL     1       7.987   5.969  19.096  0.00  0.00    +0.000 A 
ATOM     29  C   UNL     1       7.207   4.933  18.596  0.00  0.00    +0.000 A 
ENDBRANCH  23  24
ENDBRANCH  20  23
ENDBRANCH  16  17
ENDBRANCH   7  16
TORSDOF 5
ENDMDL
MODEL 6
REMARK VINA RESULT:      -7.2      2.791      3.437
REMARK  Name = 
REMARK  6 active torsions:
REMARK  status: ('A' for Active; 'I' for Inactive)
REMARK    1  A    between atoms: C_1  and  N_2
REMARK    2  A    between atoms: C_6  and  C_7
REMARK    3  A    between atoms: N_13  and  C_14
REMARK    4  A    between atoms: C_14  and  C_15
REMARK    5  A    between atoms: N_18  and  C_19
REMARK    6  A    between atoms: C_19  and  C_20
REMARK                            x       y       z     vdW  Elec       q    Type
REMARK                         _______ _______ _______ _____ _____    ______ ____
ROOT
ATOM      1  C   UNL     1       0.790  10.408  18.698  0.00  0.00    +0.000 C 
ATOM      2  C   UNL     1       2.095   9.908  18.080  0.00  0.00    +0.000 C 
ATOM      3  C   UNL     1       2.045   8.437  18.433  0.00  0.00    +0.000 C 
ATOM      4  N   UNL     1       1.470   8.414  19.771  0.00  0.00    +0.000 N 
ATOM      5  C   UNL     1       1.581   7.380  20.682  0.00  0.00    +0.000 C 
ATOM      6  O   UNL     1       1.164   7.460  21.832  0.00  0.00    +0.000 OA
ATOM      7  N   UNL     1       2.226   6.265  20.190  0.00  0.00    +0.000 N 
ATOM      8  C   UNL     1       0.787   9.701  20.057  0.00  0.00    +0.000 C 
ATOM      9  H   UNL     1       2.207   6.147  19.191  0.00  0.00    +0.000 HD
ENDROOT
BRANCH   1  15
ATOM     10  C   UNL     1      -1.903  12.238  18.433  0.00  0.00    +0.000 C 
ATOM     11  N   UNL     1      -0.523  12.655  18.474  0.00  0.00    +0.000 N 
ATOM     12  C   UNL     1      -0.141  13.975  18.537  0.00  0.00    +0.000 A 
ATOM     13  C   UNL     1       1.229  13.959  18.555  0.00  0.00    +0.000 A 
ATOM     14  N   UNL     1       1.683  12.674  18.496  0.00  0.00    +0.000 NA
ATOM     15  C   UNL     1       0.621  11.882  18.491  0.00  0.00    +0.000 A 
ENDBRANCH   1  15
BRANCH   7  16
ATOM     16  C   UNL     1       2.531   5.070  20.970  0.00  0.00    +0.000 C 
BRANCH  16  17
ATOM     17  C   UNL     1       2.119   3.764  20.259  0.00  0.00    +0.000 C 
ATOM     18  C   UNL     1       3.314   2.874  19.884  0.00  0.00    +0.000 C 
ATOM     19  C   UNL     1       4.059   3.341  18.631  0.00  0.00    +0.000 C 
ATOM     20  N   UNL     1       3.149   3.413  17.479  0.00  0.00    +0.000 NA
ATOM     21  C   UNL     1       2.074   4.381  17.747  0.00  0.00    +0.000 C 
ATOM     22  C   UNL     1       1.265   4.023  19.002  0.00  0.00    +0.000 C 
BRANCH  20  23
ATOM     23  C   UNL     1       3.858   3.777  16.233  0.00  0.00    +0.000 C 
BRANCH  23  24
ATOM     24  C   UNL     1       5.059   4.682  16.435  0.00  0.00    +0.000 A 
ATOM     25  C   UNL     1       4.897   6.037  16.751  0.00  0.00    +0.000 A 
ATOM     26  C   UNL     1       6.032   6.823  16.913  0.00  0.00    +0.000 A 
ATOM     27  N   UNL     1       7.296   6.357  16.798  0.00  0.00    +0.000 NA
ATOM     28  C   UNL     1       7.427   5.047  16.506  0.00  0.00    +0.000 A 
ATOM     29  C   UNL     1       6.358   4.180  16.319  0.00  0.00    +0.000 A 
ENDBRANCH  23  24
ENDBRANCH  20  23
ENDBRANCH  16  17
ENDBRANCH   7  16
TORSDOF 5
ENDMDL
MODEL 7
REMARK VINA RESULT:      -7.2      2.186      3.156
REMARK  Name = 
REMARK  6 active torsions:
REMARK  status: ('A' for Active; 'I' for Inactive)
REMARK    1  A    between atoms: C_1  and  N_2
REMARK    2  A    between atoms: C_6  and  C_7
REMARK    3  A    between atoms: N_13  and  C_14
REMARK    4  A    between atoms: C_14  and  C_15
REMARK    5  A    between atoms: N_18  and  C_19
REMARK    6  A    between atoms: C_19  and  C_20
REMARK                            x       y       z     vdW  Elec       q    Type
REMARK                         _______ _______ _______ _____ _____    ______ ____
ROOT
ATOM      1  C   UNL     1       0.371  11.499  19.260  0.00  0.00    +0.000 C 
ATOM      2  C   UNL     1       1.498  11.057  18.329  0.00  0.00    +0.000 C 
ATOM      3  C   UNL     1       1.458   9.554  18.508  0.00  0.00    +0.000 C 
ATOM      4  N   UNL     1       1.169   9.376  19.924  0.00  0.00    +0.000 N 
ATOM      5  C   UNL     1       1.419   8.234  20.664  0.00  0.00    +0.000 C 
ATOM      6  O   UNL     1       1.250   8.177  21.876  0.00  0.00    +0.000 OA
ATOM      7  N   UNL     1       1.900   7.178  19.919  0.00  0.00    +0.000 N 
ATOM      8  C   UNL     1       0.615  10.629  20.496  0.00  0.00    +0.000 C 
ATOM      9  H   UNL     1       1.671   7.185  18.940  0.00  0.00    +0.000 HD
ENDROOT
BRANCH   1  15
ATOM     10  C   UNL     1      -2.040  13.413  20.355  0.00  0.00    +0.000 C 
ATOM     11  N   UNL     1      -0.755  13.789  19.819  0.00  0.00    +0.000 N 
ATOM     12  C   UNL     1      -0.296  15.086  19.814  0.00  0.00    +0.000 A 
ATOM     13  C   UNL     1       0.941  15.035  19.228  0.00  0.00    +0.000 A 
ATOM     14  N   UNL     1       1.237  13.752  18.871  0.00  0.00    +0.000 NA
ATOM     15  C   UNL     1       0.228  12.991  19.268  0.00  0.00    +0.000 A 
ENDBRANCH   1  15
BRANCH   7  16
ATOM     16  C   UNL     1       2.305   5.889  20.472  0.00  0.00    +0.000 C 
BRANCH  16  17
ATOM     17  C   UNL     1       2.005   4.706  19.527  0.00  0.00    +0.000 C 
ATOM     18  C   UNL     1       2.933   3.501  19.748  0.00  0.00    +0.000 C 
ATOM     19  C   UNL     1       4.319   3.671  19.122  0.00  0.00    +0.000 C 
ATOM     20  N   UNL     1       4.213   3.921  17.678  0.00  0.00    +0.000 NA
ATOM     21  C   UNL     1       3.460   5.161  17.437  0.00  0.00    +0.000 C 
ATOM     22  C   UNL     1       2.049   5.114  18.041  0.00  0.00    +0.000 C 
BRANCH  20  23
ATOM     23  C   UNL     1       5.540   4.001  17.030  0.00  0.00    +0.000 C 
BRANCH  23  24
ATOM     24  C   UNL     1       6.393   5.170  17.486  0.00  0.00    +0.000 A 
ATOM     25  C   UNL     1       6.395   6.380  16.780  0.00  0.00    +0.000 A 
ATOM     26  C   UNL     1       7.205   7.414  17.234  0.00  0.00    +0.000 A 
ATOM     27  N   UNL     1       7.988   7.332  18.334  0.00  0.00    +0.000 NA
ATOM     28  C   UNL     1       7.960   6.163  19.004  0.00  0.00    +0.000 A 
ATOM     29  C   UNL     1       7.190   5.069  18.628  0.00  0.00    +0.000 A 
ENDBRANCH  23  24
ENDBRANCH  20  23
ENDBRANCH  16  17
ENDBRANCH   7  16
TORSDOF 5
ENDMDL
MODEL 8
REMARK VINA RESULT:      -7.2      2.356     10.702
REMARK  Name = 
REMARK  6 active torsions:
REMARK  status: ('A' for Active; 'I' for Inactive)
REMARK    1  A    between atoms: C_1  and  N_2
REMARK    2  A    between atoms: C_6  and  C_7
REMARK    3  A    between atoms: N_13  and  C_14
REMARK    4  A    between atoms: C_14  and  C_15
REMARK    5  A    between atoms: N_18  and  C_19
REMARK    6  A    between atoms: C_19  and  C_20
REMARK                            x       y       z     vdW  Elec       q    Type
REMARK                         _______ _______ _______ _____ _____    ______ ____
ROOT
ATOM      1  C   UNL     1       2.222   5.641  19.126  0.00  0.00    +0.000 C 
ATOM      2  C   UNL     1       2.353   6.291  20.502  0.00  0.00    +0.000 C 
ATOM      3  C   UNL     1       1.595   7.586  20.291  0.00  0.00    +0.000 C 
ATOM      4  N   UNL     1       1.944   7.980  18.933  0.00  0.00    +0.000 N 
ATOM      5  C   UNL     1       1.844   9.257  18.411  0.00  0.00    +0.000 C 
ATOM      6  O   UNL     1       2.250   9.551  17.293  0.00  0.00    +0.000 OA
ATOM      7  N   UNL     1       1.272  10.171  19.270  0.00  0.00    +0.000 N 
ATOM      8  C   UNL     1       2.491   6.820  18.186  0.00  0.00    +0.000 C 
ATOM      9  H   UNL     1       0.666   9.795  19.979  0.00  0.00    +0.000 HD
ENDROOT
BRANCH   1  15
ATOM     10  C   UNL     1       5.403   4.910  19.266  0.00  0.00    +0.000 C 
ATOM     11  N   UNL     1       4.268   4.021  19.235  0.00  0.00    +0.000 N 
ATOM     12  C   UNL     1       4.379   2.659  19.397  0.00  0.00    +0.000 A 
ATOM     13  C   UNL     1       3.101   2.174  19.301  0.00  0.00    +0.000 A 
ATOM     14  N   UNL     1       2.228   3.197  19.077  0.00  0.00    +0.000 NA
ATOM     15  C   UNL     1       2.929   4.321  19.081  0.00  0.00    +0.000 A 
ENDBRANCH   1  15
BRANCH   7  16
ATOM     16  C   UNL     1       1.117  11.595  18.985  0.00  0.00    +0.000 C 
BRANCH  16  17
ATOM     17  C   UNL     1      -0.331  11.981  18.615  0.00  0.00    +0.000 C 
ATOM     18  C   UNL     1      -0.585  13.496  18.656  0.00  0.00    +0.000 C 
ATOM     19  C   UNL     1      -0.782  14.047  20.070  0.00  0.00    +0.000 C 
ATOM     20  N   UNL     1      -1.896  13.367  20.746  0.00  0.00    +0.000 NA
ATOM     21  C   UNL     1      -1.610  11.928  20.862  0.00  0.00    +0.000 C 
ATOM     22  C   UNL     1      -1.373  11.267  19.497  0.00  0.00    +0.000 C 
BRANCH  20  23
ATOM     23  C   UNL     1      -2.167  13.939  22.082  0.00  0.00    +0.000 C 
BRANCH  23  24
ATOM     24  C   UNL     1      -3.422  13.408  22.751  0.00  0.00    +0.000 A 
ATOM     25  C   UNL     1      -3.383  12.895  24.053  0.00  0.00    +0.000 A 
ATOM     26  C   UNL     1      -4.559  12.410  24.614  0.00  0.00    +0.000 A 
ATOM     27  N   UNL     1      -5.754  12.416  23.980  0.00  0.00    +0.000 NA
ATOM     28  C   UNL     1      -5.770  12.926  22.732  0.00  0.00    +0.000 A 
ATOM     29  C   UNL     1      -4.649  13.428  22.084  0.00  0.00    +0.000 A 
ENDBRANCH  23  24
ENDBRANCH  20  23
ENDBRANCH  16  17
ENDBRANCH   7  16
TORSDOF 5
ENDMDL
MODEL 9
REMARK VINA RESULT:      -7.2      3.627     10.473
REMARK  Name = 
REMARK  6 active torsions:
REMARK  status: ('A' for Active; 'I' for Inactive)
REMARK    1  A    between atoms: C_1  and  N_2
REMARK    2  A    between atoms: C_6  and  C_7
REMARK    3  A    between atoms: N_13  and  C_14
REMARK    4  A    between atoms: C_14  and  C_15
REMARK    5  A    between atoms: N_18  and  C_19
REMARK    6  A    between atoms: C_19  and  C_20
REMARK                            x       y       z     vdW  Elec       q    Type
REMARK                         _______ _______ _______ _____ _____    ______ ____
ROOT
ATOM      1  C   UNL     1       2.705   6.167  19.454  0.00  0.00    +0.000 C 
ATOM      2  C   UNL     1       2.306   6.936  18.196  0.00  0.00    +0.000 C 
ATOM      3  C   UNL     1       2.152   8.339  18.744  0.00  0.00    +0.000 C 
ATOM      4  N   UNL     1       1.556   8.142  20.057  0.00  0.00    +0.000 N 
ATOM      5  C   UNL     1       0.861   9.093  20.782  0.00  0.00    +0.000 C 
ATOM      6  O   UNL     1       0.291   8.840  21.837  0.00  0.00    +0.000 OA
ATOM      7  N   UNL     1       0.844  10.342  20.197  0.00  0.00    +0.000 N 
ATOM      8  C   UNL     1       1.742   6.737  20.499  0.00  0.00    +0.000 C 
ATOM      9  H   UNL     1       1.599  10.545  19.564  0.00  0.00    +0.000 HD
ENDROOT
BRANCH   1  15
ATOM     10  C   UNL     1       5.426   4.418  18.994  0.00  0.00    +0.000 C 
ATOM     11  N   UNL     1       4.058   3.967  19.061  0.00  0.00    +0.000 N 
ATOM     12  C   UNL     1       3.707   2.637  19.065  0.00  0.00    +0.000 A 
ATOM     13  C   UNL     1       2.339   2.619  19.133  0.00  0.00    +0.000 A 
ATOM     14  N   UNL     1       1.855   3.894  19.159  0.00  0.00    +0.000 NA
ATOM     15  C   UNL     1       2.899   4.710  19.160  0.00  0.00    +0.000 A 
ENDBRANCH   1  15
BRANCH   7  16
ATOM     16  C   UNL     1       0.124  11.497  20.725  0.00  0.00    +0.000 C 
BRANCH  16  17
ATOM     17  C   UNL     1      -0.373  12.454  19.622  0.00  0.00    +0.000 C 
ATOM     18  C   UNL     1      -1.701  13.144  19.968  0.00  0.00    +0.000 C 
ATOM     19  C   UNL     1      -2.927  12.251  19.767  0.00  0.00    +0.000 C 
ATOM     20  N   UNL     1      -2.999  11.767  18.381  0.00  0.00    +0.000 NA
ATOM     21  C   UNL     1      -1.806  10.965  18.067  0.00  0.00    +0.000 C 
ATOM     22  C   UNL     1      -0.504  11.757  18.254  0.00  0.00    +0.000 C 
BRANCH  20  23
ATOM     23  C   UNL     1      -4.222  10.972  18.134  0.00  0.00    +0.000 C 
BRANCH  23  24
ATOM     24  C   UNL     1      -5.514  11.764  18.215  0.00  0.00    +0.000 A 
ATOM     25  C   UNL     1      -6.313  11.725  19.365  0.00  0.00    +0.000 A 
ATOM     26  C   UNL     1      -7.493  12.460  19.381  0.00  0.00    +0.000 A 
ATOM     27  N   UNL     1      -7.916  13.230  18.352  0.00  0.00    +0.000 NA
ATOM     28  C   UNL     1      -7.124  13.263  17.262  0.00  0.00    +0.000 A 
ATOM     29  C   UNL     1      -5.931  12.560  17.146  0.00  0.00    +0.000 A 
ENDBRANCH  23  24
ENDBRANCH  20  23
ENDBRANCH  16  17
ENDBRANCH   7  16
TORSDOF 5
ENDMDL
