MODEL 1
REMARK VINA RESULT:      -8.3      0.000      0.000
REMARK  Name = 
REMARK  8 active torsions:
REMARK  status: ('A' for Active; 'I' for Inactive)
REMARK    1  A    between atoms: C_1  and  O_2
REMARK    2  A    between atoms: O_2  and  C_3
REMARK    3  A    between atoms: C_8  and  N_9
REMARK    4  A    between atoms: N_12  and  C_13
REMARK    5  A    between atoms: C_13  and  C_14
REMARK    6  A    between atoms: C_17  and  C_18
REMARK    7  A    between atoms: C_17  and  C_27
REMARK    8  A    between atoms: C_18  and  N_19
REMARK                            x       y       z     vdW  Elec       q    Type
REMARK                         _______ _______ _______ _____ _____    ______ ____
ROOT
ATOM      1  C   UNL     1       1.794   7.920  19.089  0.00  0.00    +0.000 C 
ATOM      2  C   UNL     1       2.321   8.652  17.882  0.00  0.00    +0.000 C 
ATOM      3  O   UNL     1       3.046   7.663  17.152  0.00  0.00    +0.000 OA
ATOM      4  C   UNL     1       3.316   6.583  18.079  0.00  0.00    +0.000 C 
ATOM      5  O   UNL     1       2.839   6.993  19.387  0.00  0.00    +0.000 OA
ENDROOT
BRANCH   4   6
ATOM      6  C   UNL     1       4.819   6.374  18.203  0.00  0.00    +0.000 A 
ATOM      7  C   UNL     1       5.703   6.925  17.256  0.00  0.00    +0.000 A 
ATOM      8  C   UNL     1       7.083   6.743  17.361  0.00  0.00    +0.000 A 
ATOM      9  C   UNL     1       7.611   6.006  18.416  0.00  0.00    +0.000 A 
ATOM     10  C   UNL     1       6.760   5.471  19.378  0.00  0.00    +0.000 A 
ATOM     11  C   UNL     1       5.381   5.673  19.282  0.00  0.00    +0.000 A 
ENDBRANCH   4   6
BRANCH   1  12
ATOM     12  C   UNL     1       1.463   8.847  20.259  0.00  0.00    +0.000 C 
BRANCH  12  16
ATOM     13  N   UNL     1      -0.543  11.385  22.052  0.00  0.00    +0.000 N 
ATOM     14  C   UNL     1       0.095  10.241  22.706  0.00  0.00    +0.000 C 
ATOM     15  C   UNL     1      -0.322   8.948  21.976  0.00  0.00    +0.000 C 
ATOM     16  N   UNL     1       0.014   8.923  20.524  0.00  0.00    +0.000 NA
ATOM     17  C   UNL     1      -0.579  10.132  19.900  0.00  0.00    +0.000 C 
ATOM     18  C   UNL     1      -0.282  11.483  20.605  0.00  0.00    +0.000 C 
BRANCH  13  24
ATOM     19  C   UNL     1      -0.883  13.650  23.021  0.00  0.00    +0.000 A 
ATOM     20  C   UNL     1      -1.714  14.525  23.746  0.00  0.00    +0.000 A 
ATOM     21  C   UNL     1      -2.973  14.121  24.181  0.00  0.00    +0.000 A 
ATOM     22  C   UNL     1      -3.413  12.843  23.900  0.00  0.00    +0.000 A 
ATOM     23  C   UNL     1      -2.591  11.965  23.186  0.00  0.00    +0.000 A 
ATOM     24  C   UNL     1      -1.305  12.325  22.733  0.00  0.00    +0.000 A 
BRANCH  19  26
ATOM     25  C   UNL     1       0.493  15.164  21.810  0.00  0.00    +0.000 C 
ATOM     26  O   UNL     1       0.397  14.031  22.670  0.00  0.00    +0.000 OA
ENDBRANCH  19  26
ENDBRANCH  13  24
ENDBRANCH  12  16
ENDBRANCH   1  12
BRANCH   4  27
ATOM     27  C   UNL     1       2.476   5.335  17.604  0.00  0.00    +0.000 C 
BRANCH  27  28
ATOM     28  N   UNL     1       2.437   4.180  18.520  0.00  0.00    +0.000 N 
ATOM     29  C   UNL     1       1.497   4.221  19.639  0.00  0.00    +0.000 C 
ATOM     30  C   UNL     1       2.185   4.168  21.000  0.00  0.00    +0.000 C 
ATOM     31  C   UNL     1       2.562   2.761  21.445  0.00  0.00    +0.000 C 
ATOM     32  C   UNL     1       3.574   2.066  20.541  0.00  0.00    +0.000 C 
ATOM     33  C   UNL     1       3.072   1.864  19.120  0.00  0.00    +0.000 C 
ATOM     34  C   UNL     1       3.270   3.099  18.270  0.00  0.00    +0.000 C 
ATOM     35  O   UNL     1       4.147   3.117  17.405  0.00  0.00    +0.000 OA
ENDBRANCH  27  28
ENDBRANCH   4  27
TORSDOF 7
ENDMDL
MODEL 2
REMARK VINA RESULT:      -7.8      2.053      3.005
REMARK  Name = 
REMARK  8 active torsions:
REMARK  status: ('A' for Active; 'I' for Inactive)
REMARK    1  A    between atoms: C_1  and  O_2
REMARK    2  A    between atoms: O_2  and  C_3
REMARK    3  A    between atoms: C_8  and  N_9
REMARK    4  A    between atoms: N_12  and  C_13
REMARK    5  A    between atoms: C_13  and  C_14
REMARK    6  A    between atoms: C_17  and  C_18
REMARK    7  A    between atoms: C_17  and  C_27
REMARK    8  A    between atoms: C_18  and  N_19
REMARK                            x       y       z     vdW  Elec       q    Type
REMARK                         _______ _______ _______ _____ _____    ______ ____
ROOT
ATOM      1  C   UNL     1       2.363   8.077  18.377  0.00  0.00    +0.000 C 
ATOM      2  C   UNL     1       1.666   7.048  17.526  0.00  0.00    +0.000 C 
ATOM      3  O   UNL     1       2.465   5.874  17.657  0.00  0.00    +0.000 OA
ATOM      4  C   UNL     1       3.757   6.309  18.149  0.00  0.00    +0.000 C 
ATOM      5  O   UNL     1       3.745   7.758  18.203  0.00  0.00    +0.000 OA
ENDROOT
BRANCH   4   6
ATOM      6  C   UNL     1       4.845   5.913  17.161  0.00  0.00    +0.000 A 
ATOM      7  C   UNL     1       6.113   6.525  17.201  0.00  0.00    +0.000 A 
ATOM      8  C   UNL     1       7.120   6.167  16.302  0.00  0.00    +0.000 A 
ATOM      9  C   UNL     1       6.882   5.188  15.343  0.00  0.00    +0.000 A 
ATOM     10  C   UNL     1       5.646   4.551  15.298  0.00  0.00    +0.000 A 
ATOM     11  C   UNL     1       4.648   4.896  16.212  0.00  0.00    +0.000 A 
ENDBRANCH   4   6
BRANCH   1  12
ATOM     12  C   UNL     1       2.025   9.516  17.982  0.00  0.00    +0.000 C 
BRANCH  12  16
ATOM     13  N   UNL     1      -1.026  11.213  19.202  0.00  0.00    +0.000 N 
ATOM     14  C   UNL     1      -0.104  11.798  18.227  0.00  0.00    +0.000 C 
ATOM     15  C   UNL     1       1.329  11.750  18.798  0.00  0.00    +0.000 C 
ATOM     16  N   UNL     1       1.805  10.384  19.154  0.00  0.00    +0.000 NA
ATOM     17  C   UNL     1       0.815   9.785  20.082  0.00  0.00    +0.000 C 
ATOM     18  C   UNL     1      -0.670   9.851  19.636  0.00  0.00    +0.000 C 
BRANCH  13  24
ATOM     19  C   UNL     1      -2.223  12.632  20.857  0.00  0.00    +0.000 A 
ATOM     20  C   UNL     1      -3.430  13.232  21.262  0.00  0.00    +0.000 A 
ATOM     21  C   UNL     1      -4.586  13.105  20.497  0.00  0.00    +0.000 A 
ATOM     22  C   UNL     1      -4.548  12.378  19.323  0.00  0.00    +0.000 A 
ATOM     23  C   UNL     1      -3.354  11.772  18.917  0.00  0.00    +0.000 A 
ATOM     24  C   UNL     1      -2.161  11.865  19.663  0.00  0.00    +0.000 A 
BRANCH  19  26
ATOM     25  C   UNL     1      -1.127  11.845  22.814  0.00  0.00    +0.000 C 
ATOM     26  O   UNL     1      -1.106  12.691  21.667  0.00  0.00    +0.000 OA
ENDBRANCH  19  26
ENDBRANCH  13  24
ENDBRANCH  12  16
ENDBRANCH   1  12
BRANCH   4  27
ATOM     27  C   UNL     1       3.914   5.751  19.616  0.00  0.00    +0.000 C 
BRANCH  27  28
ATOM     28  N   UNL     1       3.169   4.519  19.935  0.00  0.00    +0.000 N 
ATOM     29  C   UNL     1       3.746   3.240  19.524  0.00  0.00    +0.000 C 
ATOM     30  C   UNL     1       2.866   2.477  18.538  0.00  0.00    +0.000 C 
ATOM     31  C   UNL     1       1.741   1.690  19.198  0.00  0.00    +0.000 C 
ATOM     32  C   UNL     1       0.726   2.550  19.942  0.00  0.00    +0.000 C 
ATOM     33  C   UNL     1       1.332   3.333  21.096  0.00  0.00    +0.000 C 
ATOM     34  C   UNL     1       1.972   4.622  20.629  0.00  0.00    +0.000 C 
ATOM     35  O   UNL     1       1.426   5.701  20.864  0.00  0.00    +0.000 OA
ENDBRANCH  27  28
ENDBRANCH   4  27
TORSDOF 7
ENDMDL
MODEL 3
REMARK VINA RESULT:      -7.7      2.498      3.464
REMARK  Name = 
REMARK  8 active torsions:
REMARK  status: ('A' for Active; 'I' for Inactive)
REMARK    1  A    between atoms: C_1  and  O_2
REMARK    2  A    between atoms: O_2  and  C_3
REMARK    3  A    between atoms: C_8  and  N_9
REMARK    4  A    between atoms: N_12  and  C_13
REMARK    5  A    between atoms: C_13  and  C_14
REMARK    6  A    between atoms: C_17  and  C_18
REMARK    7  A    between atoms: C_17  and  C_27
REMARK    8  A    between atoms: C_18  and  N_19
REMARK                            x       y       z     vdW  Elec       q    Type
REMARK                         _______ _______ _______ _____ _____    ______ ____
ROOT
ATOM      1  C   UNL     1       2.418   7.961  18.376  0.00  0.00    +0.000 C 
ATOM      2  C   UNL     1       1.679   6.909  17.590  0.00  0.00    +0.000 C 
ATOM      3  O   UNL     1       2.496   5.744  17.695  0.00  0.00    +0.000 OA
ATOM      4  C   UNL     1       3.812   6.200  18.098  0.00  0.00    +0.000 C 
ATOM      5  O   UNL     1       3.789   7.650  18.123  0.00  0.00    +0.000 OA
ENDROOT
BRANCH   4   6
ATOM      6  C   UNL     1       4.841   5.792  17.052  0.00  0.00    +0.000 A 
ATOM      7  C   UNL     1       6.053   6.497  16.921  0.00  0.00    +0.000 A 
ATOM      8  C   UNL     1       7.006   6.130  15.968  0.00  0.00    +0.000 A 
ATOM      9  C   UNL     1       6.767   5.049  15.125  0.00  0.00    +0.000 A 
ATOM     10  C   UNL     1       5.588   4.322  15.251  0.00  0.00    +0.000 A 
ATOM     11  C   UNL     1       4.646   4.678  16.219  0.00  0.00    +0.000 A 
ENDBRANCH   4   6
BRANCH   1  12
ATOM     12  C   UNL     1       2.043   9.389  17.974  0.00  0.00    +0.000 C 
BRANCH  12  16
ATOM     13  N   UNL     1      -0.990  11.152  19.145  0.00  0.00    +0.000 N 
ATOM     14  C   UNL     1      -0.041  11.716  18.183  0.00  0.00    +0.000 C 
ATOM     15  C   UNL     1       1.382  11.638  18.776  0.00  0.00    +0.000 C 
ATOM     16  N   UNL     1       1.823  10.263  19.141  0.00  0.00    +0.000 NA
ATOM     17  C   UNL     1       0.806   9.686  20.054  0.00  0.00    +0.000 C 
ATOM     18  C   UNL     1      -0.670   9.783  19.585  0.00  0.00    +0.000 C 
BRANCH  13  24
ATOM     19  C   UNL     1      -3.391  11.772  18.960  0.00  0.00    +0.000 A 
ATOM     20  C   UNL     1      -4.472  12.520  19.464  0.00  0.00    +0.000 A 
ATOM     21  C   UNL     1      -4.328  13.314  20.598  0.00  0.00    +0.000 A 
ATOM     22  C   UNL     1      -3.104  13.372  21.236  0.00  0.00    +0.000 A 
ATOM     23  C   UNL     1      -2.023  12.639  20.738  0.00  0.00    +0.000 A 
ATOM     24  C   UNL     1      -2.118  11.828  19.588  0.00  0.00    +0.000 A 
BRANCH  19  26
ATOM     25  C   UNL     1      -4.456  11.578  16.844  0.00  0.00    +0.000 C 
ATOM     26  O   UNL     1      -3.521  11.057  17.786  0.00  0.00    +0.000 OA
ENDBRANCH  19  26
ENDBRANCH  13  24
ENDBRANCH  12  16
ENDBRANCH   1  12
BRANCH   4  27
ATOM     27  C   UNL     1       4.064   5.673  19.563  0.00  0.00    +0.000 C 
BRANCH  27  28
ATOM     28  N   UNL     1       3.322   4.464  19.966  0.00  0.00    +0.000 N 
ATOM     29  C   UNL     1       3.865   3.164  19.577  0.00  0.00    +0.000 C 
ATOM     30  C   UNL     1       2.931   2.374  18.664  0.00  0.00    +0.000 C 
ATOM     31  C   UNL     1       1.831   1.627  19.408  0.00  0.00    +0.000 C 
ATOM     32  C   UNL     1       0.862   2.528  20.165  0.00  0.00    +0.000 C 
ATOM     33  C   UNL     1       1.531   3.346  21.258  0.00  0.00    +0.000 C 
ATOM     34  C   UNL     1       2.161   4.609  20.711  0.00  0.00    +0.000 C 
ATOM     35  O   UNL     1       1.639   5.702  20.930  0.00  0.00    +0.000 OA
ENDBRANCH  27  28
ENDBRANCH   4  27
TORSDOF 7
ENDMDL
MODEL 4
REMARK VINA RESULT:      -7.6      1.420      2.167
REMARK  Name = 
REMARK  8 active torsions:
REMARK  status: ('A' for Active; 'I' for Inactive)
REMARK    1  A    between atoms: C_1  and  O_2
REMARK    2  A    between atoms: O_2  and  C_3
REMARK    3  A    between atoms: C_8  and  N_9
REMARK    4  A    between atoms: N_12  and  C_13
REMARK    5  A    between atoms: C_13  and  C_14
REMARK    6  A    between atoms: C_17  and  C_18
REMARK    7  A    between atoms: C_17  and  C_27
REMARK    8  A    between atoms: C_18  and  N_19
REMARK                            x       y       z     vdW  Elec       q    Type
REMARK                         _______ _______ _______ _____ _____    ______ ____
ROOT
ATOM      1  C   UNL     1       1.613   8.230  19.166  0.00  0.00    +0.000 C 
ATOM      2  C   UNL     1       2.133   8.863  17.901  0.00  0.00    +0.000 C 
ATOM      3  O   UNL     1       2.734   7.787  17.183  0.00  0.00    +0.000 OA
ATOM      4  C   UNL     1       2.965   6.729  18.146  0.00  0.00    +0.000 C 
ATOM      5  O   UNL     1       2.595   7.232  19.455  0.00  0.00    +0.000 OA
ENDROOT
BRANCH   4   6
ATOM      6  C   UNL     1       4.451   6.400  18.203  0.00  0.00    +0.000 A 
ATOM      7  C   UNL     1       4.983   5.655  19.273  0.00  0.00    +0.000 A 
ATOM      8  C   UNL     1       6.343   5.345  19.334  0.00  0.00    +0.000 A 
ATOM      9  C   UNL     1       7.202   5.772  18.326  0.00  0.00    +0.000 A 
ATOM     10  C   UNL     1       6.696   6.488  17.247  0.00  0.00    +0.000 A 
ATOM     11  C   UNL     1       5.332   6.779  17.177  0.00  0.00    +0.000 A 
ENDBRANCH   4   6
BRANCH   1  12
ATOM     12  C   UNL     1       1.422   9.231  20.307  0.00  0.00    +0.000 C 
BRANCH  12  16
ATOM     13  N   UNL     1      -0.483  12.394  20.516  0.00  0.00    +0.000 N 
ATOM     14  C   UNL     1       0.232  11.799  21.645  0.00  0.00    +0.000 C 
ATOM     15  C   UNL     1      -0.214  10.331  21.808  0.00  0.00    +0.000 C 
ATOM     16  N   UNL     1      -0.001   9.484  20.601  0.00  0.00    +0.000 NA
ATOM     17  C   UNL     1      -0.671  10.147  19.455  0.00  0.00    +0.000 C 
ATOM     18  C   UNL     1      -0.347  11.652  19.250  0.00  0.00    +0.000 C 
BRANCH  13  24
ATOM     19  C   UNL     1      -2.495  13.688  21.196  0.00  0.00    +0.000 A 
ATOM     20  C   UNL     1      -3.167  14.924  21.215  0.00  0.00    +0.000 A 
ATOM     21  C   UNL     1      -2.582  16.067  20.679  0.00  0.00    +0.000 A 
ATOM     22  C   UNL     1      -1.323  15.987  20.117  0.00  0.00    +0.000 A 
ATOM     23  C   UNL     1      -0.650  14.761  20.087  0.00  0.00    +0.000 A 
ATOM     24  C   UNL     1      -1.207  13.574  20.608  0.00  0.00    +0.000 A 
BRANCH  19  26
ATOM     25  C   UNL     1      -3.478  12.540  23.031  0.00  0.00    +0.000 C 
ATOM     26  O   UNL     1      -3.120  12.544  21.651  0.00  0.00    +0.000 OA
ENDBRANCH  19  26
ENDBRANCH  13  24
ENDBRANCH  12  16
ENDBRANCH   1  12
BRANCH   4  27
ATOM     27  C   UNL     1       2.003   5.536  17.773  0.00  0.00    +0.000 C 
BRANCH  27  28
ATOM     28  N   UNL     1       2.035   4.360  18.662  0.00  0.00    +0.000 N 
ATOM     29  C   UNL     1       1.264   4.416  19.903  0.00  0.00    +0.000 C 
ATOM     30  C   UNL     1       2.132   4.295  21.153  0.00  0.00    +0.000 C 
ATOM     31  C   UNL     1       2.498   2.861  21.513  0.00  0.00    +0.000 C 
ATOM     32  C   UNL     1       3.338   2.145  20.462  0.00  0.00    +0.000 C 
ATOM     33  C   UNL     1       2.633   2.003  19.122  0.00  0.00    +0.000 C 
ATOM     34  C   UNL     1       2.771   3.249  18.276  0.00  0.00    +0.000 C 
ATOM     35  O   UNL     1       3.518   3.250  17.297  0.00  0.00    +0.000 OA
ENDBRANCH  27  28
ENDBRANCH   4  27
TORSDOF 7
ENDMDL
MODEL 5
REMARK VINA RESULT:      -7.5      2.120      4.312
REMARK  Name = 
REMARK  8 active torsions:
REMARK  status: ('A' for Active; 'I' for Inactive)
REMARK    1  A    between atoms: C_1  and  O_2
REMARK    2  A    between atoms: O_2  and  C_3
REMARK    3  A    between atoms: C_8  and  N_9
REMARK    4  A    between atoms: N_12  and  C_13
REMARK    5  A    between atoms: C_13  and  C_14
REMARK    6  A    between atoms: C_17  and  C_18
REMARK    7  A    between atoms: C_17  and  C_27
REMARK    8  A    between atoms: C_18  and  N_19
REMARK                            x       y       z     vdW  Elec       q    Type
REMARK                         _______ _______ _______ _____ _____    ______ ____
ROOT
ATOM      1  C   UNL     1       2.077   8.241  19.394  0.00  0.00    +0.000 C 
ATOM      2  C   UNL     1       1.545   7.653  20.675  0.00  0.00    +0.000 C 
ATOM      3  O   UNL     1       2.264   6.431  20.834  0.00  0.00    +0.000 OA
ATOM      4  C   UNL     1       2.814   6.105  19.533  0.00  0.00    +0.000 C 
ATOM      5  O   UNL     1       2.321   7.088  18.586  0.00  0.00    +0.000 OA
ENDROOT
BRANCH   4   6
ATOM      6  C   UNL     1       2.289   4.751  19.078  0.00  0.00    +0.000 A 
ATOM      7  C   UNL     1       1.714   3.854  19.998  0.00  0.00    +0.000 A 
ATOM      8  C   UNL     1       1.226   2.610  19.591  0.00  0.00    +0.000 A 
ATOM      9  C   UNL     1       1.302   2.236  18.254  0.00  0.00    +0.000 A 
ATOM     10  C   UNL     1       1.843   3.114  17.321  0.00  0.00    +0.000 A 
ATOM     11  C   UNL     1       2.311   4.366  17.727  0.00  0.00    +0.000 A 
ENDBRANCH   4   6
BRANCH   1  12
ATOM     12  C   UNL     1       1.115   9.236  18.742  0.00  0.00    +0.000 C 
BRANCH  12  16
ATOM     13  N   UNL     1      -0.060  12.708  19.233  0.00  0.00    +0.000 N 
ATOM     14  C   UNL     1       1.131  12.153  19.878  0.00  0.00    +0.000 C 
ATOM     15  C   UNL     1       0.750  10.841  20.595  0.00  0.00    +0.000 C 
ATOM     16  N   UNL     1       0.154   9.804  19.706  0.00  0.00    +0.000 NA
ATOM     17  C   UNL     1      -1.003  10.414  19.007  0.00  0.00    +0.000 C 
ATOM     18  C   UNL     1      -0.745  11.780  18.316  0.00  0.00    +0.000 C 
BRANCH  13  24
ATOM     19  C   UNL     1      -1.442  14.398  20.424  0.00  0.00    +0.000 A 
ATOM     20  C   UNL     1      -1.854  15.740  20.534  0.00  0.00    +0.000 A 
ATOM     21  C   UNL     1      -1.336  16.719  19.691  0.00  0.00    +0.000 A 
ATOM     22  C   UNL     1      -0.407  16.369  18.732  0.00  0.00    +0.000 A 
ATOM     23  C   UNL     1       0.003  15.037  18.611  0.00  0.00    +0.000 A 
ATOM     24  C   UNL     1      -0.500  14.009  19.435  0.00  0.00    +0.000 A 
BRANCH  19  26
ATOM     25  C   UNL     1      -3.320  12.988  20.792  0.00  0.00    +0.000 C 
ATOM     26  O   UNL     1      -2.026  13.421  21.206  0.00  0.00    +0.000 OA
ENDBRANCH  19  26
ENDBRANCH  13  24
ENDBRANCH  12  16
ENDBRANCH   1  12
BRANCH   4  27
ATOM     27  C   UNL     1       4.381   6.245  19.637  0.00  0.00    +0.000 C 
BRANCH  27  28
ATOM     28  N   UNL     1       5.157   5.867  18.442  0.00  0.00    +0.000 N 
ATOM     29  C   UNL     1       5.318   6.862  17.383  0.00  0.00    +0.000 C 
ATOM     30  C   UNL     1       4.708   6.425  16.054  0.00  0.00    +0.000 C 
ATOM     31  C   UNL     1       5.604   5.500  15.240  0.00  0.00    +0.000 C 
ATOM     32  C   UNL     1       5.907   4.166  15.914  0.00  0.00    +0.000 C 
ATOM     33  C   UNL     1       6.655   4.313  17.229  0.00  0.00    +0.000 C 
ATOM     34  C   UNL     1       5.718   4.599  18.382  0.00  0.00    +0.000 C 
ATOM     35  O   UNL     1       5.479   3.723  19.214  0.00  0.00    +0.000 OA
ENDBRANCH  27  28
ENDBRANCH   4  27
TORSDOF 7
ENDMDL
MODEL 6
REMARK VINA RESULT:      -7.5      1.741      2.853
REMARK  Name = 
REMARK  8 active torsions:
REMARK  status: ('A' for Active; 'I' for Inactive)
REMARK    1  A    between atoms: C_1  and  O_2
REMARK    2  A    between atoms: O_2  and  C_3
REMARK    3  A    between atoms: C_8  and  N_9
REMARK    4  A    between atoms: N_12  and  C_13
REMARK    5  A    between atoms: C_13  and  C_14
REMARK    6  A    between atoms: C_17  and  C_18
REMARK    7  A    between atoms: C_17  and  C_27
REMARK    8  A    between atoms: C_18  and  N_19
REMARK                            x       y       z     vdW  Elec       q    Type
REMARK                         _______ _______ _______ _____ _____    ______ ____
ROOT
ATOM      1  C   UNL     1       2.481   7.812  18.421  0.00  0.00    +0.000 C 
ATOM      2  C   UNL     1       1.757   6.758  17.623  0.00  0.00    +0.000 C 
ATOM      3  O   UNL     1       2.598   5.609  17.703  0.00  0.00    +0.000 OA
ATOM      4  C   UNL     1       3.907   6.083  18.104  0.00  0.00    +0.000 C 
ATOM      5  O   UNL     1       3.856   7.532  18.154  0.00  0.00    +0.000 OA
ENDROOT
BRANCH   4   6
ATOM      6  C   UNL     1       4.936   5.713  17.045  0.00  0.00    +0.000 A 
ATOM      7  C   UNL     1       6.177   6.376  16.983  0.00  0.00    +0.000 A 
ATOM      8  C   UNL     1       7.130   6.043  16.018  0.00  0.00    +0.000 A 
ATOM      9  C   UNL     1       6.864   5.038  15.094  0.00  0.00    +0.000 A 
ATOM     10  C   UNL     1       5.656   4.351  15.150  0.00  0.00    +0.000 A 
ATOM     11  C   UNL     1       4.712   4.672  16.129  0.00  0.00    +0.000 A 
ENDBRANCH   4   6
BRANCH   1  12
ATOM     12  C   UNL     1       2.075   9.238  18.045  0.00  0.00    +0.000 C 
BRANCH  12  16
ATOM     13  N   UNL     1       0.975  11.930  20.331  0.00  0.00    +0.000 N 
ATOM     14  C   UNL     1       1.420  10.610  20.782  0.00  0.00    +0.000 C 
ATOM     15  C   UNL     1       0.620   9.526  20.031  0.00  0.00    +0.000 C 
ATOM     16  N   UNL     1       0.734   9.592  18.546  0.00  0.00    +0.000 NA
ATOM     17  C   UNL     1       0.352  10.962  18.122  0.00  0.00    +0.000 C 
ATOM     18  C   UNL     1       1.045  12.130  18.873  0.00  0.00    +0.000 C 
BRANCH  13  24
ATOM     19  C   UNL     1      -0.572  12.826  22.059  0.00  0.00    +0.000 A 
ATOM     20  C   UNL     1      -0.945  13.906  22.881  0.00  0.00    +0.000 A 
ATOM     21  C   UNL     1      -0.215  15.090  22.884  0.00  0.00    +0.000 A 
ATOM     22  C   UNL     1       0.892  15.209  22.066  0.00  0.00    +0.000 A 
ATOM     23  C   UNL     1       1.266  14.144  21.241  0.00  0.00    +0.000 A 
ATOM     24  C   UNL     1       0.552  12.928  21.196  0.00  0.00    +0.000 A 
BRANCH  19  26
ATOM     25  C   UNL     1      -1.291  10.832  23.137  0.00  0.00    +0.000 C 
ATOM     26  O   UNL     1      -1.353  11.689  21.999  0.00  0.00    +0.000 OA
ENDBRANCH  19  26
ENDBRANCH  13  24
ENDBRANCH  12  16
ENDBRANCH   1  12
BRANCH   4  27
ATOM     27  C   UNL     1       4.179   5.538  19.559  0.00  0.00    +0.000 C 
BRANCH  27  28
ATOM     28  N   UNL     1       3.406   4.352  19.974  0.00  0.00    +0.000 N 
ATOM     29  C   UNL     1       3.882   3.038  19.546  0.00  0.00    +0.000 C 
ATOM     30  C   UNL     1       2.881   2.300  18.660  0.00  0.00    +0.000 C 
ATOM     31  C   UNL     1       1.783   1.585  19.437  0.00  0.00    +0.000 C 
ATOM     32  C   UNL     1       0.881   2.511  20.245  0.00  0.00    +0.000 C 
ATOM     33  C   UNL     1       1.625   3.286  21.321  0.00  0.00    +0.000 C 
ATOM     34  C   UNL     1       2.282   4.531  20.767  0.00  0.00    +0.000 C 
ATOM     35  O   UNL     1       1.813   5.641  21.022  0.00  0.00    +0.000 OA
ENDBRANCH  27  28
ENDBRANCH   4  27
TORSDOF 7
ENDMDL
MODEL 7
REMARK VINA RESULT:      -7.5      1.394      1.728
REMARK  Name = 
REMARK  8 active torsions:
REMARK  status: ('A' for Active; 'I' for Inactive)
REMARK    1  A    between atoms: C_1  and  O_2
REMARK    2  A    between atoms: O_2  and  C_3
REMARK    3  A    between atoms: C_8  and  N_9
REMARK    4  A    between atoms: N_12  and  C_13
REMARK    5  A    between atoms: C_13  and  C_14
REMARK    6  A    between atoms: C_17  and  C_18
REMARK    7  A    between atoms: C_17  and  C_27
REMARK    8  A    between atoms: C_18  and  N_19
REMARK                            x       y       z     vdW  Elec       q    Type
REMARK                         _______ _______ _______ _____ _____    ______ ____
ROOT
ATOM      1  C   UNL     1       1.656   8.197  19.159  0.00  0.00    +0.000 C 
ATOM      2  C   UNL     1       2.184   8.850  17.908  0.00  0.00    +0.000 C 
ATOM      3  O   UNL     1       2.806   7.790  17.186  0.00  0.00    +0.000 OA
ATOM      4  C   UNL     1       3.038   6.723  18.139  0.00  0.00    +0.000 C 
ATOM      5  O   UNL     1       2.646   7.208  19.449  0.00  0.00    +0.000 OA
ENDROOT
BRANCH   4   6
ATOM      6  C   UNL     1       4.526   6.411  18.211  0.00  0.00    +0.000 A 
ATOM      7  C   UNL     1       5.057   5.679  19.291  0.00  0.00    +0.000 A 
ATOM      8  C   UNL     1       6.420   5.383  19.366  0.00  0.00    +0.000 A 
ATOM      9  C   UNL     1       7.283   5.813  18.362  0.00  0.00    +0.000 A 
ATOM     10  C   UNL     1       6.779   6.517  17.274  0.00  0.00    +0.000 A 
ATOM     11  C   UNL     1       5.412   6.792  17.190  0.00  0.00    +0.000 A 
ENDBRANCH   4   6
BRANCH   1  12
ATOM     12  C   UNL     1       1.440   9.183  20.309  0.00  0.00    +0.000 C 
BRANCH  12  16
ATOM     13  N   UNL     1      -0.623  12.243  20.550  0.00  0.00    +0.000 N 
ATOM     14  C   UNL     1       0.148  11.692  21.665  0.00  0.00    +0.000 C 
ATOM     15  C   UNL     1      -0.218  10.204  21.843  0.00  0.00    +0.000 C 
ATOM     16  N   UNL     1       0.013   9.363  20.634  0.00  0.00    +0.000 NA
ATOM     17  C   UNL     1      -0.717   9.986  19.502  0.00  0.00    +0.000 C 
ATOM     18  C   UNL     1      -0.477  11.504  19.284  0.00  0.00    +0.000 C 
BRANCH  13  24
ATOM     19  C   UNL     1      -0.927  14.710  20.473  0.00  0.00    +0.000 A 
ATOM     20  C   UNL     1      -1.790  15.811  20.632  0.00  0.00    +0.000 A 
ATOM     21  C   UNL     1      -3.132  15.630  20.950  0.00  0.00    +0.000 A 
ATOM     22  C   UNL     1      -3.625  14.351  21.116  0.00  0.00    +0.000 A 
ATOM     23  C   UNL     1      -2.774  13.251  20.968  0.00  0.00    +0.000 A 
ATOM     24  C   UNL     1      -1.405  13.385  20.655  0.00  0.00    +0.000 A 
BRANCH  19  26
ATOM     25  C   UNL     1       0.785  15.194  18.896  0.00  0.00    +0.000 C 
ATOM     26  O   UNL     1       0.421  14.904  20.244  0.00  0.00    +0.000 OA
ENDBRANCH  19  26
ENDBRANCH  13  24
ENDBRANCH  12  16
ENDBRANCH   1  12
BRANCH   4  27
ATOM     27  C   UNL     1       2.094   5.523  17.741  0.00  0.00    +0.000 C 
BRANCH  27  28
ATOM     28  N   UNL     1       2.117   4.345  18.627  0.00  0.00    +0.000 N 
ATOM     29  C   UNL     1       1.322   4.392  19.854  0.00  0.00    +0.000 C 
ATOM     30  C   UNL     1       2.168   4.273  21.119  0.00  0.00    +0.000 C 
ATOM     31  C   UNL     1       2.534   2.839  21.481  0.00  0.00    +0.000 C 
ATOM     32  C   UNL     1       3.398   2.131  20.443  0.00  0.00    +0.000 C 
ATOM     33  C   UNL     1       2.719   1.990  19.091  0.00  0.00    +0.000 C 
ATOM     34  C   UNL     1       2.866   3.240  18.252  0.00  0.00    +0.000 C 
ATOM     35  O   UNL     1       3.631   3.248  17.286  0.00  0.00    +0.000 OA
ENDBRANCH  27  28
ENDBRANCH   4  27
TORSDOF 7
ENDMDL
MODEL 8
REMARK VINA RESULT:      -7.5      1.120      1.573
REMARK  Name = 
REMARK  8 active torsions:
REMARK  status: ('A' for Active; 'I' for Inactive)
REMARK    1  A    between atoms: C_1  and  O_2
REMARK    2  A    between atoms: O_2  and  C_3
REMARK    3  A    between atoms: C_8  and  N_9
REMARK    4  A    between atoms: N_12  and  C_13
REMARK    5  A    between atoms: C_13  and  C_14
REMARK    6  A    between atoms: C_17  and  C_18
REMARK    7  A    between atoms: C_17  and  C_27
REMARK    8  A    between atoms: C_18  and  N_19
REMARK                            x       y       z     vdW  Elec       q    Type
REMARK                         _______ _______ _______ _____ _____    ______ ____
ROOT
ATOM      1  C   UNL     1       1.725   8.013  19.054  0.00  0.00    +0.000 C 
ATOM      2  C   UNL     1       2.258   8.684  17.815  0.00  0.00    +0.000 C 
ATOM      3  O   UNL     1       2.941   7.649  17.112  0.00  0.00    +0.000 OA
ATOM      4  C   UNL     1       3.189   6.593  18.074  0.00  0.00    +0.000 C 
ATOM      5  O   UNL     1       2.744   7.063  19.371  0.00  0.00    +0.000 OA
ENDROOT
BRANCH   4   6
ATOM      6  C   UNL     1       4.687   6.340  18.185  0.00  0.00    +0.000 A 
ATOM      7  C   UNL     1       5.574   6.824  17.205  0.00  0.00    +0.000 A 
ATOM      8  C   UNL     1       6.949   6.602  17.298  0.00  0.00    +0.000 A 
ATOM      9  C   UNL     1       7.469   5.890  18.375  0.00  0.00    +0.000 A 
ATOM     10  C   UNL     1       6.616   5.423  19.369  0.00  0.00    +0.000 A 
ATOM     11  C   UNL     1       5.242   5.665  19.284  0.00  0.00    +0.000 A 
ENDBRANCH   4   6
BRANCH   1  12
ATOM     12  C   UNL     1       1.439   8.990  20.196  0.00  0.00    +0.000 C 
BRANCH  12  16
ATOM     13  N   UNL     1      -0.218  12.052  21.443  0.00  0.00    +0.000 N 
ATOM     14  C   UNL     1       0.139  10.916  22.293  0.00  0.00    +0.000 C 
ATOM     15  C   UNL     1      -0.442   9.626  21.679  0.00  0.00    +0.000 C 
ATOM     16  N   UNL     1       0.011   9.347  20.287  0.00  0.00    +0.000 NA
ATOM     17  C   UNL     1      -0.291  10.544  19.462  0.00  0.00    +0.000 C 
ATOM     18  C   UNL     1       0.184  11.907  20.032  0.00  0.00    +0.000 C 
BRANCH  13  24
ATOM     19  C   UNL     1      -2.260  13.372  21.965  0.00  0.00    +0.000 A 
ATOM     20  C   UNL     1      -2.813  14.578  22.436  0.00  0.00    +0.000 A 
ATOM     21  C   UNL     1      -1.998  15.613  22.885  0.00  0.00    +0.000 A 
ATOM     22  C   UNL     1      -0.626  15.456  22.866  0.00  0.00    +0.000 A 
ATOM     23  C   UNL     1      -0.068  14.264  22.393  0.00  0.00    +0.000 A 
ATOM     24  C   UNL     1      -0.852  13.191  21.919  0.00  0.00    +0.000 A 
BRANCH  19  26
ATOM     25  C   UNL     1      -3.591  12.640  20.136  0.00  0.00    +0.000 C 
ATOM     26  O   UNL     1      -3.073  12.387  21.440  0.00  0.00    +0.000 OA
ENDBRANCH  19  26
ENDBRANCH  13  24
ENDBRANCH  12  16
ENDBRANCH   1  12
BRANCH   4  27
ATOM     27  C   UNL     1       2.304   5.357  17.654  0.00  0.00    +0.000 C 
BRANCH  27  28
ATOM     28  N   UNL     1       2.278   4.217  18.589  0.00  0.00    +0.000 N 
ATOM     29  C   UNL     1       1.389   4.299  19.747  0.00  0.00    +0.000 C 
ATOM     30  C   UNL     1       2.135   4.250  21.078  0.00  0.00    +0.000 C 
ATOM     31  C   UNL     1       2.497   2.841  21.529  0.00  0.00    +0.000 C 
ATOM     32  C   UNL     1       3.452   2.108  20.593  0.00  0.00    +0.000 C 
ATOM     33  C   UNL     1       2.883   1.896  19.199  0.00  0.00    +0.000 C 
ATOM     34  C   UNL     1       3.073   3.113  18.321  0.00  0.00    +0.000 C 
ATOM     35  O   UNL     1       3.911   3.096  17.418  0.00  0.00    +0.000 OA
ENDBRANCH  27  28
ENDBRANCH   4  27
TORSDOF 7
ENDMDL
MODEL 9
REMARK VINA RESULT:      -7.4      1.692      2.461
REMARK  Name = 
REMARK  8 active torsions:
REMARK  status: ('A' for Active; 'I' for Inactive)
REMARK    1  A    between atoms: C_1  and  O_2
REMARK    2  A    between atoms: O_2  and  C_3
REMARK    3  A    between atoms: C_8  and  N_9
REMARK    4  A    between atoms: N_12  and  C_13
REMARK    5  A    between atoms: C_13  and  C_14
REMARK    6  A    between atoms: C_17  and  C_18
REMARK    7  A    between atoms: C_17  and  C_27
REMARK    8  A    between atoms: C_18  and  N_19
REMARK                            x       y       z     vdW  Elec       q    Type
REMARK                         _______ _______ _______ _____ _____    ______ ____
ROOT
ATOM      1  C   UNL     1       2.544   7.778  18.522  0.00  0.00    +0.000 C 
ATOM      2  C   UNL     1       1.810   6.781  17.662  0.00  0.00    +0.000 C 
ATOM      3  O   UNL     1       2.623   5.610  17.697  0.00  0.00    +0.000 OA
ATOM      4  C   UNL     1       3.936   6.034  18.140  0.00  0.00    +0.000 C 
ATOM      5  O   UNL     1       3.917   7.480  18.260  0.00  0.00    +0.000 OA
ENDROOT
BRANCH   4   6
ATOM      6  C   UNL     1       4.973   5.693  17.079  0.00  0.00    +0.000 A 
ATOM      7  C   UNL     1       6.212   6.360  17.041  0.00  0.00    +0.000 A 
ATOM      8  C   UNL     1       7.172   6.053  16.074  0.00  0.00    +0.000 A 
ATOM      9  C   UNL     1       6.915   5.071  15.124  0.00  0.00    +0.000 A 
ATOM     10  C   UNL     1       5.708   4.380  15.155  0.00  0.00    +0.000 A 
ATOM     11  C   UNL     1       4.758   4.674  16.136  0.00  0.00    +0.000 A 
ENDBRANCH   4   6
BRANCH   1  12
ATOM     12  C   UNL     1       2.176   9.229  18.211  0.00  0.00    +0.000 C 
BRANCH  12  16
ATOM     13  N   UNL     1       0.721  11.702  20.545  0.00  0.00    +0.000 N 
ATOM     14  C   UNL     1       1.112  10.346  20.935  0.00  0.00    +0.000 C 
ATOM     15  C   UNL     1       0.444   9.335  19.980  0.00  0.00    +0.000 C 
ATOM     16  N   UNL     1       0.772   9.537  18.541  0.00  0.00    +0.000 NA
ATOM     17  C   UNL     1       0.438  10.939  18.190  0.00  0.00    +0.000 C 
ATOM     18  C   UNL     1       0.999  12.035  19.137  0.00  0.00    +0.000 C 
BRANCH  13  24
ATOM     19  C   UNL     1       0.648  13.936  21.634  0.00  0.00    +0.000 A 
ATOM     20  C   UNL     1       0.035  14.785  22.575  0.00  0.00    +0.000 A 
ATOM     21  C   UNL     1      -1.070  14.363  23.308  0.00  0.00    +0.000 A 
ATOM     22  C   UNL     1      -1.572  13.091  23.112  0.00  0.00    +0.000 A 
ATOM     23  C   UNL     1      -0.964  12.238  22.184  0.00  0.00    +0.000 A 
ATOM     24  C   UNL     1       0.163  12.617  21.426  0.00  0.00    +0.000 A 
BRANCH  19  26
ATOM     25  C   UNL     1       2.812  14.906  21.795  0.00  0.00    +0.000 C 
ATOM     26  O   UNL     1       1.796  14.333  20.976  0.00  0.00    +0.000 OA
ENDBRANCH  19  26
ENDBRANCH  13  24
ENDBRANCH  12  16
ENDBRANCH   1  12
BRANCH   4  27
ATOM     27  C   UNL     1       4.174   5.412  19.570  0.00  0.00    +0.000 C 
BRANCH  27  28
ATOM     28  N   UNL     1       3.330   4.260  19.936  0.00  0.00    +0.000 N 
ATOM     29  C   UNL     1       3.733   2.935  19.466  0.00  0.00    +0.000 C 
ATOM     30  C   UNL     1       2.702   2.287  18.547  0.00  0.00    +0.000 C 
ATOM     31  C   UNL     1       1.555   1.611  19.288  0.00  0.00    +0.000 C 
ATOM     32  C   UNL     1       0.700   2.559  20.120  0.00  0.00    +0.000 C 
ATOM     33  C   UNL     1       1.475   3.253  21.229  0.00  0.00    +0.000 C 
ATOM     34  C   UNL     1       2.210   4.476  20.725  0.00  0.00    +0.000 C 
ATOM     35  O   UNL     1       1.802   5.601  21.014  0.00  0.00    +0.000 OA
ENDBRANCH  27  28
ENDBRANCH   4  27
TORSDOF 7
ENDMDL
