MODEL 1
REMARK VINA RESULT:      -6.1      0.000      0.000
REMARK  Name = 
REMARK  5 active torsions:
REMARK  status: ('A' for Active; 'I' for Inactive)
REMARK    1  A    between atoms: C_1  and  C_2
REMARK    2  A    between atoms: C_2  and  N_3
REMARK    3  A    between atoms: C_9  and  C_10
REMARK    4  A    between atoms: N_16  and  C_17
REMARK    5  A    between atoms: C_17  and  C_18
REMARK                            x       y       z     vdW  Elec       q    Type
REMARK                         _______ _______ _______ _____ _____    ______ ____
ROOT
ATOM      1  N   UNL     1      10.049  11.528  18.727  0.00  0.00    +0.000 N 
ATOM      2  C   UNL     1      11.260  11.849  19.408  0.00  0.00    +0.000 C 
ATOM      3  C   UNL     1      11.752  13.093  18.768  0.00  0.00    +0.000 C 
ATOM      4  C   UNL     1      10.448  13.873  18.515  0.00  0.00    +0.000 C 
ATOM      5  C   UNL     1      10.850  15.018  17.564  0.00  0.00    +0.000 C 
ATOM      6  N   UNL     1      10.463  16.244  18.252  0.00  0.00    +0.000 N 
ATOM      7  C   UNL     1      11.020  17.500  18.237  0.00  0.00    +0.000 C 
ATOM      8  C   UNL     1      12.330  17.720  17.518  0.00  0.00    +0.000 C 
ATOM      9  O   UNL     1      10.498  18.452  18.816  0.00  0.00    +0.000 OA
ATOM     10  C   UNL     1       9.331  15.967  19.099  0.00  0.00    +0.000 C 
ATOM     11  C   UNL     1       9.672  14.597  19.735  0.00  0.00    +0.000 C 
ATOM     12  C   UNL     1       8.323  13.934  20.136  0.00  0.00    +0.000 C 
ATOM     13  C   UNL     1       7.625  14.613  21.316  0.00  0.00    +0.000 C 
ATOM     14  N   UNL     1       8.472  14.666  22.514  0.00  0.00    +0.000 NA
ATOM     15  C   UNL     1       9.704  15.400  22.203  0.00  0.00    +0.000 C 
ATOM     16  C   UNL     1      10.519  14.826  21.023  0.00  0.00    +0.000 C 
ATOM     17  C   UNL     1       9.585  12.671  18.029  0.00  0.00    +0.000 C 
ATOM     18  O   UNL     1       8.590  12.738  17.318  0.00  0.00    +0.000 OA
ENDROOT
BRANCH   1  20
ATOM     19  C   UNL     1       8.582   9.411  18.403  0.00  0.00    +0.000 C 
ATOM     20  C   UNL     1       9.297  10.405  19.293  0.00  0.00    +0.000 C 
ENDBRANCH   1  20
BRANCH  14  21
ATOM     21  C   UNL     1       8.661  13.326  23.083  0.00  0.00    +0.000 C 
BRANCH  21  22
ATOM     22  C   UNL     1       7.610  12.933  24.076  0.00  0.00    +0.000 C 
ATOM     23  C   UNL     1       7.338  11.500  24.458  0.00  0.00    +0.000 C 
ATOM     24  C   UNL     1       8.033  12.412  25.430  0.00  0.00    +0.000 C 
ENDBRANCH  21  22
ENDBRANCH  14  21
TORSDOF 3
ENDMDL
MODEL 2
REMARK VINA RESULT:      -5.7      9.949     12.435
REMARK  Name = 
REMARK  5 active torsions:
REMARK  status: ('A' for Active; 'I' for Inactive)
REMARK    1  A    between atoms: C_1  and  C_2
REMARK    2  A    between atoms: C_2  and  N_3
REMARK    3  A    between atoms: C_9  and  C_10
REMARK    4  A    between atoms: N_16  and  C_17
REMARK    5  A    between atoms: C_17  and  C_18
REMARK                            x       y       z     vdW  Elec       q    Type
REMARK                         _______ _______ _______ _____ _____    ______ ____
ROOT
ATOM      1  N   UNL     1       2.445   2.076  19.343  0.00  0.00    +0.000 N 
ATOM      2  C   UNL     1       1.532   2.611  18.388  0.00  0.00    +0.000 C 
ATOM      3  C   UNL     1       0.804   3.688  19.101  0.00  0.00    +0.000 C 
ATOM      4  C   UNL     1       1.911   4.318  19.967  0.00  0.00    +0.000 C 
ATOM      5  C   UNL     1       1.164   5.220  20.969  0.00  0.00    +0.000 C 
ATOM      6  N   UNL     1       1.719   6.554  20.774  0.00  0.00    +0.000 N 
ATOM      7  C   UNL     1       1.145   7.796  20.901  0.00  0.00    +0.000 C 
ATOM      8  C   UNL     1      -0.339   7.903  21.157  0.00  0.00    +0.000 C 
ATOM      9  O   UNL     1       1.798   8.832  20.785  0.00  0.00    +0.000 OA
ATOM     10  C   UNL     1       3.083   6.433  20.327  0.00  0.00    +0.000 C 
ATOM     11  C   UNL     1       3.033   5.274  19.301  0.00  0.00    +0.000 C 
ATOM     12  C   UNL     1       4.460   4.660  19.239  0.00  0.00    +0.000 C 
ATOM     13  C   UNL     1       5.497   5.566  18.571  0.00  0.00    +0.000 C 
ATOM     14  N   UNL     1       5.113   5.948  17.206  0.00  0.00    +0.000 NA
ATOM     15  C   UNL     1       3.823   6.646  17.243  0.00  0.00    +0.000 C 
ATOM     16  C   UNL     1       2.673   5.847  17.896  0.00  0.00    +0.000 C 
ATOM     17  C   UNL     1       2.598   2.993  20.413  0.00  0.00    +0.000 C 
ATOM     18  O   UNL     1       3.283   2.838  21.415  0.00  0.00    +0.000 OA
ENDROOT
BRANCH   1  20
ATOM     19  C   UNL     1       4.237   1.381  17.598  0.00  0.00    +0.000 C 
ATOM     20  C   UNL     1       3.387   1.085  18.815  0.00  0.00    +0.000 C 
ENDBRANCH   1  20
BRANCH  14  21
ATOM     21  C   UNL     1       5.181   4.793  16.300  0.00  0.00    +0.000 C 
BRANCH  21  22
ATOM     22  C   UNL     1       5.674   5.128  14.926  0.00  0.00    +0.000 C 
ATOM     23  C   UNL     1       7.082   4.841  14.469  0.00  0.00    +0.000 C 
ATOM     24  C   UNL     1       5.945   4.009  13.947  0.00  0.00    +0.000 C 
ENDBRANCH  21  22
ENDBRANCH  14  21
TORSDOF 3
ENDMDL
MODEL 3
REMARK VINA RESULT:      -5.6      8.633     11.195
REMARK  Name = 
REMARK  5 active torsions:
REMARK  status: ('A' for Active; 'I' for Inactive)
REMARK    1  A    between atoms: C_1  and  C_2
REMARK    2  A    between atoms: C_2  and  N_3
REMARK    3  A    between atoms: C_9  and  C_10
REMARK    4  A    between atoms: N_16  and  C_17
REMARK    5  A    between atoms: C_17  and  C_18
REMARK                            x       y       z     vdW  Elec       q    Type
REMARK                         _______ _______ _______ _____ _____    ______ ____
ROOT
ATOM      1  N   UNL     1       1.751  14.751  19.381  0.00  0.00    +0.000 N 
ATOM      2  C   UNL     1       2.213  14.077  20.549  0.00  0.00    +0.000 C 
ATOM      3  C   UNL     1       1.149  14.275  21.563  0.00  0.00    +0.000 C 
ATOM      4  C   UNL     1      -0.136  14.161  20.721  0.00  0.00    +0.000 C 
ATOM      5  C   UNL     1      -1.258  14.679  21.642  0.00  0.00    +0.000 C 
ATOM      6  N   UNL     1      -2.220  13.586  21.728  0.00  0.00    +0.000 N 
ATOM      7  C   UNL     1      -3.054  13.199  22.749  0.00  0.00    +0.000 C 
ATOM      8  C   UNL     1      -2.941  13.876  24.094  0.00  0.00    +0.000 C 
ATOM      9  O   UNL     1      -3.877  12.295  22.612  0.00  0.00    +0.000 OA
ATOM     10  C   UNL     1      -2.167  12.819  20.510  0.00  0.00    +0.000 C 
ATOM     11  C   UNL     1      -0.653  12.720  20.201  0.00  0.00    +0.000 C 
ATOM     12  C   UNL     1      -0.516  12.492  18.668  0.00  0.00    +0.000 C 
ATOM     13  C   UNL     1      -0.977  11.109  18.204  0.00  0.00    +0.000 C 
ATOM     14  N   UNL     1      -0.264  10.021  18.885  0.00  0.00    +0.000 NA
ATOM     15  C   UNL     1      -0.478  10.134  20.333  0.00  0.00    +0.000 C 
ATOM     16  C   UNL     1      -0.056  11.487  20.946  0.00  0.00    +0.000 C 
ATOM     17  C   UNL     1       0.356  14.979  19.490  0.00  0.00    +0.000 C 
ATOM     18  O   UNL     1      -0.354  15.560  18.680  0.00  0.00    +0.000 OA
ENDROOT
BRANCH   1  20
ATOM     19  C   UNL     1       3.380  15.708  17.600  0.00  0.00    +0.000 C 
ATOM     20  C   UNL     1       2.580  14.564  18.187  0.00  0.00    +0.000 C 
ENDBRANCH   1  20
BRANCH  14  21
ATOM     21  C   UNL     1       1.140   9.965  18.456  0.00  0.00    +0.000 C 
BRANCH  21  22
ATOM     22  C   UNL     1       1.565   8.625  17.940  0.00  0.00    +0.000 C 
ATOM     23  C   UNL     1       3.004   8.273  17.662  0.00  0.00    +0.000 C 
ATOM     24  C   UNL     1       2.310   7.683  18.858  0.00  0.00    +0.000 C 
ENDBRANCH  21  22
ENDBRANCH  14  21
TORSDOF 3
ENDMDL
MODEL 4
REMARK VINA RESULT:      -5.5      0.933      1.030
REMARK  Name = 
REMARK  5 active torsions:
REMARK  status: ('A' for Active; 'I' for Inactive)
REMARK    1  A    between atoms: C_1  and  C_2
REMARK    2  A    between atoms: C_2  and  N_3
REMARK    3  A    between atoms: C_9  and  C_10
REMARK    4  A    between atoms: N_16  and  C_17
REMARK    5  A    between atoms: C_17  and  C_18
REMARK                            x       y       z     vdW  Elec       q    Type
REMARK                         _______ _______ _______ _____ _____    ______ ____
ROOT
ATOM      1  N   UNL     1      10.586  11.761  19.145  0.00  0.00    +0.000 N 
ATOM      2  C   UNL     1      11.560  12.346  20.006  0.00  0.00    +0.000 C 
ATOM      3  C   UNL     1      12.030  13.561  19.297  0.00  0.00    +0.000 C 
ATOM      4  C   UNL     1      10.734  14.094  18.659  0.00  0.00    +0.000 C 
ATOM      5  C   UNL     1      11.200  15.159  17.647  0.00  0.00    +0.000 C 
ATOM      6  N   UNL     1      10.519  16.387  18.040  0.00  0.00    +0.000 N 
ATOM      7  C   UNL     1      10.907  17.702  17.947  0.00  0.00    +0.000 C 
ATOM      8  C   UNL     1      12.310  18.029  17.492  0.00  0.00    +0.000 C 
ATOM      9  O   UNL     1      10.156  18.628  18.248  0.00  0.00    +0.000 OA
ATOM     10  C   UNL     1       9.266  16.048  18.664  0.00  0.00    +0.000 C 
ATOM     11  C   UNL     1       9.617  14.837  19.562  0.00  0.00    +0.000 C 
ATOM     12  C   UNL     1       8.303  14.030  19.770  0.00  0.00    +0.000 C 
ATOM     13  C   UNL     1       7.276  14.736  20.658  0.00  0.00    +0.000 C 
ATOM     14  N   UNL     1       7.814  15.067  21.984  0.00  0.00    +0.000 NA
ATOM     15  C   UNL     1       8.986  15.936  21.827  0.00  0.00    +0.000 C 
ATOM     16  C   UNL     1      10.113  15.351  20.948  0.00  0.00    +0.000 C 
ATOM     17  C   UNL     1      10.158  12.723  18.197  0.00  0.00    +0.000 C 
ATOM     18  O   UNL     1       9.352  12.547  17.292  0.00  0.00    +0.000 OA
ENDROOT
BRANCH   1  20
ATOM     19  C   UNL     1       9.124  10.724  21.024  0.00  0.00    +0.000 C 
ATOM     20  C   UNL     1       9.867  10.615  19.709  0.00  0.00    +0.000 C 
ENDBRANCH   1  20
BRANCH  14  21
ATOM     21  C   UNL     1       8.030  13.853  22.781  0.00  0.00    +0.000 C 
BRANCH  21  22
ATOM     22  C   UNL     1       6.807  13.002  22.935  0.00  0.00    +0.000 C 
ATOM     23  C   UNL     1       6.790  11.729  23.743  0.00  0.00    +0.000 C 
ATOM     24  C   UNL     1       6.102  12.957  24.272  0.00  0.00    +0.000 C 
ENDBRANCH  21  22
ENDBRANCH  14  21
TORSDOF 3
ENDMDL
MODEL 5
REMARK VINA RESULT:      -5.4      9.711     11.600
REMARK  Name = 
REMARK  5 active torsions:
REMARK  status: ('A' for Active; 'I' for Inactive)
REMARK    1  A    between atoms: C_1  and  C_2
REMARK    2  A    between atoms: C_2  and  N_3
REMARK    3  A    between atoms: C_9  and  C_10
REMARK    4  A    between atoms: N_16  and  C_17
REMARK    5  A    between atoms: C_17  and  C_18
REMARK                            x       y       z     vdW  Elec       q    Type
REMARK                         _______ _______ _______ _____ _____    ______ ____
ROOT
ATOM      1  N   UNL     1       2.570   2.313  19.661  0.00  0.00    +0.000 N 
ATOM      2  C   UNL     1       3.732   2.798  20.329  0.00  0.00    +0.000 C 
ATOM      3  C   UNL     1       4.773   2.905  19.277  0.00  0.00    +0.000 C 
ATOM      4  C   UNL     1       3.968   3.408  18.064  0.00  0.00    +0.000 C 
ATOM      5  C   UNL     1       4.914   3.229  16.860  0.00  0.00    +0.000 C 
ATOM      6  N   UNL     1       5.039   4.555  16.268  0.00  0.00    +0.000 N 
ATOM      7  C   UNL     1       6.086   5.153  15.609  0.00  0.00    +0.000 C 
ATOM      8  C   UNL     1       7.420   4.448  15.548  0.00  0.00    +0.000 C 
ATOM      9  O   UNL     1       5.982   6.262  15.087  0.00  0.00    +0.000 OA
ATOM     10  C   UNL     1       3.828   5.294  16.516  0.00  0.00    +0.000 C 
ATOM     11  C   UNL     1       3.478   4.947  17.984  0.00  0.00    +0.000 C 
ATOM     12  C   UNL     1       1.945   5.153  18.148  0.00  0.00    +0.000 C 
ATOM     13  C   UNL     1       1.508   6.619  18.105  0.00  0.00    +0.000 C 
ATOM     14  N   UNL     1       2.181   7.435  19.124  0.00  0.00    +0.000 NA
ATOM     15  C   UNL     1       3.632   7.364  18.920  0.00  0.00    +0.000 C 
ATOM     16  C   UNL     1       4.219   5.935  18.936  0.00  0.00    +0.000 C 
ATOM     17  C   UNL     1       2.716   2.504  18.264  0.00  0.00    +0.000 C 
ATOM     18  O   UNL     1       1.919   2.174  17.395  0.00  0.00    +0.000 OA
ENDROOT
BRANCH   1  20
ATOM     19  C   UNL     1       1.332   2.844  21.880  0.00  0.00    +0.000 C 
ATOM     20  C   UNL     1       1.356   2.268  20.480  0.00  0.00    +0.000 C 
ENDBRANCH   1  20
BRANCH  14  21
ATOM     21  C   UNL     1       1.714   7.081  20.471  0.00  0.00    +0.000 C 
BRANCH  21  22
ATOM     22  C   UNL     1       1.287   8.258  21.294  0.00  0.00    +0.000 C 
ATOM     23  C   UNL     1       0.577   9.452  20.710  0.00  0.00    +0.000 C 
ATOM     24  C   UNL     1      -0.184   8.476  21.562  0.00  0.00    +0.000 C 
ENDBRANCH  21  22
ENDBRANCH  14  21
TORSDOF 3
ENDMDL
MODEL 6
REMARK VINA RESULT:      -5.4     10.974     13.183
REMARK  Name = 
REMARK  5 active torsions:
REMARK  status: ('A' for Active; 'I' for Inactive)
REMARK    1  A    between atoms: C_1  and  C_2
REMARK    2  A    between atoms: C_2  and  N_3
REMARK    3  A    between atoms: C_9  and  C_10
REMARK    4  A    between atoms: N_16  and  C_17
REMARK    5  A    between atoms: C_17  and  C_18
REMARK                            x       y       z     vdW  Elec       q    Type
REMARK                         _______ _______ _______ _____ _____    ______ ____
ROOT
ATOM      1  N   UNL     1      -5.175  13.221  21.358  0.00  0.00    +0.000 N 
ATOM      2  C   UNL     1      -4.931  14.373  20.554  0.00  0.00    +0.000 C 
ATOM      3  C   UNL     1      -4.121  15.280  21.403  0.00  0.00    +0.000 C 
ATOM      4  C   UNL     1      -3.194  14.299  22.145  0.00  0.00    +0.000 C 
ATOM      5  C   UNL     1      -2.558  15.133  23.274  0.00  0.00    +0.000 C 
ATOM      6  N   UNL     1      -1.118  15.025  23.068  0.00  0.00    +0.000 N 
ATOM      7  C   UNL     1      -0.103  15.915  23.322  0.00  0.00    +0.000 C 
ATOM      8  C   UNL     1      -0.443  17.316  23.774  0.00  0.00    +0.000 C 
ATOM      9  O   UNL     1       1.081  15.617  23.168  0.00  0.00    +0.000 OA
ATOM     10  C   UNL     1      -0.828  13.761  22.441  0.00  0.00    +0.000 C 
ATOM     11  C   UNL     1      -1.946  13.609  21.381  0.00  0.00    +0.000 C 
ATOM     12  C   UNL     1      -2.109  12.087  21.106  0.00  0.00    +0.000 C 
ATOM     13  C   UNL     1      -0.933  11.464  20.350  0.00  0.00    +0.000 C 
ATOM     14  N   UNL     1      -0.678  12.126  19.065  0.00  0.00    +0.000 NA
ATOM     15  C   UNL     1      -0.395  13.547  19.300  0.00  0.00    +0.000 C 
ATOM     16  C   UNL     1      -1.501  14.311  20.061  0.00  0.00    +0.000 C 
ATOM     17  C   UNL     1      -4.257  13.199  22.438  0.00  0.00    +0.000 C 
ATOM     18  O   UNL     1      -4.205  12.367  23.335  0.00  0.00    +0.000 OA
ENDROOT
BRANCH   1  20
ATOM     19  C   UNL     1      -7.237  11.674  21.054  0.00  0.00    +0.000 C 
ATOM     20  C   UNL     1      -5.840  12.112  20.669  0.00  0.00    +0.000 C 
ENDBRANCH   1  20
BRANCH  14  21
ATOM     21  C   UNL     1      -1.757  11.848  18.108  0.00  0.00    +0.000 C 
BRANCH  21  22
ATOM     22  C   UNL     1      -1.895  10.399  17.753  0.00  0.00    +0.000 C 
ATOM     23  C   UNL     1      -3.231   9.720  17.585  0.00  0.00    +0.000 C 
ATOM     24  C   UNL     1      -2.389  10.021  16.376  0.00  0.00    +0.000 C 
ENDBRANCH  21  22
ENDBRANCH  14  21
TORSDOF 3
ENDMDL
MODEL 7
REMARK VINA RESULT:      -5.4     11.489     13.863
REMARK  Name = 
REMARK  5 active torsions:
REMARK  status: ('A' for Active; 'I' for Inactive)
REMARK    1  A    between atoms: C_1  and  C_2
REMARK    2  A    between atoms: C_2  and  N_3
REMARK    3  A    between atoms: C_9  and  C_10
REMARK    4  A    between atoms: N_16  and  C_17
REMARK    5  A    between atoms: C_17  and  C_18
REMARK                            x       y       z     vdW  Elec       q    Type
REMARK                         _______ _______ _______ _____ _____    ______ ____
ROOT
ATOM      1  N   UNL     1      -5.961  13.236  22.402  0.00  0.00    +0.000 N 
ATOM      2  C   UNL     1      -5.745  14.468  21.718  0.00  0.00    +0.000 C 
ATOM      3  C   UNL     1      -5.063  15.347  22.699  0.00  0.00    +0.000 C 
ATOM      4  C   UNL     1      -4.122  14.366  23.424  0.00  0.00    +0.000 C 
ATOM      5  C   UNL     1      -3.628  15.136  24.664  0.00  0.00    +0.000 C 
ATOM      6  N   UNL     1      -2.173  15.142  24.560  0.00  0.00    +0.000 N 
ATOM      7  C   UNL     1      -1.245  16.070  24.964  0.00  0.00    +0.000 C 
ATOM      8  C   UNL     1      -1.714  17.400  25.504  0.00  0.00    +0.000 C 
ATOM      9  O   UNL     1      -0.035  15.865  24.876  0.00  0.00    +0.000 OA
ATOM     10  C   UNL     1      -1.750  13.960  23.854  0.00  0.00    +0.000 C 
ATOM     11  C   UNL     1      -2.777  13.830  22.702  0.00  0.00    +0.000 C 
ATOM     12  C   UNL     1      -2.811  12.331  22.290  0.00  0.00    +0.000 C 
ATOM     13  C   UNL     1      -1.544  11.855  21.576  0.00  0.00    +0.000 C 
ATOM     14  N   UNL     1      -1.248  12.644  20.373  0.00  0.00    +0.000 NA
ATOM     15  C   UNL     1      -1.084  14.054  20.748  0.00  0.00    +0.000 C 
ATOM     16  C   UNL     1      -2.292  14.673  21.484  0.00  0.00    +0.000 C 
ATOM     17  C   UNL     1      -5.121  13.178  23.543  0.00  0.00    +0.000 C 
ATOM     18  O   UNL     1      -5.073  12.275  24.368  0.00  0.00    +0.000 OA
ENDROOT
BRANCH   1  20
ATOM     19  C   UNL     1      -5.985  11.912  20.169  0.00  0.00    +0.000 C 
ATOM     20  C   UNL     1      -6.495  12.151  21.574  0.00  0.00    +0.000 C 
ENDBRANCH   1  20
BRANCH  14  21
ATOM     21  C   UNL     1      -2.234  12.382  19.318  0.00  0.00    +0.000 C 
BRANCH  21  22
ATOM     22  C   UNL     1      -1.681  11.640  18.140  0.00  0.00    +0.000 C 
ATOM     23  C   UNL     1      -0.956  10.324  18.267  0.00  0.00    +0.000 C 
ATOM     24  C   UNL     1      -2.347  10.357  17.696  0.00  0.00    +0.000 C 
ENDBRANCH  21  22
ENDBRANCH  14  21
TORSDOF 3
ENDMDL
MODEL 8
REMARK VINA RESULT:      -5.4      8.653     11.148
REMARK  Name = 
REMARK  5 active torsions:
REMARK  status: ('A' for Active; 'I' for Inactive)
REMARK    1  A    between atoms: C_1  and  C_2
REMARK    2  A    between atoms: C_2  and  N_3
REMARK    3  A    between atoms: C_9  and  C_10
REMARK    4  A    between atoms: N_16  and  C_17
REMARK    5  A    between atoms: C_17  and  C_18
REMARK                            x       y       z     vdW  Elec       q    Type
REMARK                         _______ _______ _______ _____ _____    ______ ____
ROOT
ATOM      1  N   UNL     1       0.420  11.106  19.504  0.00  0.00    +0.000 N 
ATOM      2  C   UNL     1      -0.773  11.625  18.923  0.00  0.00    +0.000 C 
ATOM      3  C   UNL     1      -1.754  11.692  20.034  0.00  0.00    +0.000 C 
ATOM      4  C   UNL     1      -0.879  12.141  21.220  0.00  0.00    +0.000 C 
ATOM      5  C   UNL     1      -1.758  11.915  22.466  0.00  0.00    +0.000 C 
ATOM      6  N   UNL     1      -1.840  13.216  23.120  0.00  0.00    +0.000 N 
ATOM      7  C   UNL     1      -2.844  13.790  23.860  0.00  0.00    +0.000 C 
ATOM      8  C   UNL     1      -4.179  13.090  23.966  0.00  0.00    +0.000 C 
ATOM      9  O   UNL     1      -2.703  14.876  24.421  0.00  0.00    +0.000 OA
ATOM     10  C   UNL     1      -0.639  13.959  22.835  0.00  0.00    +0.000 C 
ATOM     11  C   UNL     1      -0.374  13.672  21.337  0.00  0.00    +0.000 C 
ATOM     12  C   UNL     1       1.149  13.877  21.097  0.00  0.00    +0.000 C 
ATOM     13  C   UNL     1       1.598  15.338  21.177  0.00  0.00    +0.000 C 
ATOM     14  N   UNL     1       0.876  16.199  20.231  0.00  0.00    +0.000 NA
ATOM     15  C   UNL     1      -0.562  16.127  20.513  0.00  0.00    +0.000 C 
ATOM     16  C   UNL     1      -1.159  14.703  20.470  0.00  0.00    +0.000 C 
ATOM     17  C   UNL     1       0.354  11.240  20.914  0.00  0.00    +0.000 C 
ATOM     18  O   UNL     1       1.195  10.869  21.722  0.00  0.00    +0.000 OA
ENDROOT
BRANCH   1  20
ATOM     19  C   UNL     1       2.297  12.370  18.230  0.00  0.00    +0.000 C 
ATOM     20  C   UNL     1       1.587  11.090  18.617  0.00  0.00    +0.000 C 
ENDBRANCH   1  20
BRANCH  14  21
ATOM     21  C   UNL     1       1.265  15.900  18.847  0.00  0.00    +0.000 C 
BRANCH  21  22
ATOM     22  C   UNL     1       2.614  16.429  18.467  0.00  0.00    +0.000 C 
ATOM     23  C   UNL     1       3.512  15.743  17.470  0.00  0.00    +0.000 C 
ATOM     24  C   UNL     1       2.814  17.020  17.090  0.00  0.00    +0.000 C 
ENDBRANCH  21  22
ENDBRANCH  14  21
TORSDOF 3
ENDMDL
MODEL 9
REMARK VINA RESULT:      -5.3     13.485     15.590
REMARK  Name = 
REMARK  5 active torsions:
REMARK  status: ('A' for Active; 'I' for Inactive)
REMARK    1  A    between atoms: C_1  and  C_2
REMARK    2  A    between atoms: C_2  and  N_3
REMARK    3  A    between atoms: C_9  and  C_10
REMARK    4  A    between atoms: N_16  and  C_17
REMARK    5  A    between atoms: C_17  and  C_18
REMARK                            x       y       z     vdW  Elec       q    Type
REMARK                         _______ _______ _______ _____ _____    ______ ____
ROOT
ATOM      1  N   UNL     1      -7.547  12.142  21.000  0.00  0.00    +0.000 N 
ATOM      2  C   UNL     1      -7.459  13.245  20.101  0.00  0.00    +0.000 C 
ATOM      3  C   UNL     1      -7.572  14.454  20.952  0.00  0.00    +0.000 C 
ATOM      4  C   UNL     1      -6.774  14.052  22.207  0.00  0.00    +0.000 C 
ATOM      5  C   UNL     1      -7.122  15.125  23.257  0.00  0.00    +0.000 C 
ATOM      6  N   UNL     1      -5.845  15.703  23.655  0.00  0.00    +0.000 N 
ATOM      7  C   UNL     1      -5.518  16.975  24.060  0.00  0.00    +0.000 C 
ATOM      8  C   UNL     1      -6.563  18.063  23.994  0.00  0.00    +0.000 C 
ATOM      9  O   UNL     1      -4.389  17.266  24.452  0.00  0.00    +0.000 OA
ATOM     10  C   UNL     1      -4.815  14.705  23.514  0.00  0.00    +0.000 C 
ATOM     11  C   UNL     1      -5.157  14.009  22.175  0.00  0.00    +0.000 C 
ATOM     12  C   UNL     1      -4.542  12.581  22.234  0.00  0.00    +0.000 C 
ATOM     13  C   UNL     1      -3.013  12.562  22.166  0.00  0.00    +0.000 C 
ATOM     14  N   UNL     1      -2.497  13.223  20.960  0.00  0.00    +0.000 NA
ATOM     15  C   UNL     1      -2.958  14.616  20.937  0.00  0.00    +0.000 C 
ATOM     16  C   UNL     1      -4.491  14.792  21.003  0.00  0.00    +0.000 C 
ATOM     17  C   UNL     1      -7.301  12.591  22.322  0.00  0.00    +0.000 C 
ATOM     18  O   UNL     1      -7.329  11.913  23.340  0.00  0.00    +0.000 OA
ENDROOT
BRANCH   1  20
ATOM     19  C   UNL     1      -6.802  10.696  18.976  0.00  0.00    +0.000 C 
ATOM     20  C   UNL     1      -7.310  10.828  20.397  0.00  0.00    +0.000 C 
ENDBRANCH   1  20
BRANCH  14  21
ATOM     21  C   UNL     1      -2.804  12.436  19.758  0.00  0.00    +0.000 C 
BRANCH  21  22
ATOM     22  C   UNL     1      -1.593  11.903  19.056  0.00  0.00    +0.000 C 
ATOM     23  C   UNL     1      -0.994  10.555  19.365  0.00  0.00    +0.000 C 
ATOM     24  C   UNL     1      -1.750  10.759  18.081  0.00  0.00    +0.000 C 
ENDBRANCH  21  22
ENDBRANCH  14  21
TORSDOF 3
ENDMDL
