MODEL 1
REMARK VINA RESULT:      -7.2      0.000      0.000
REMARK  Name = 
REMARK  7 active torsions:
REMARK  status: ('A' for Active; 'I' for Inactive)
REMARK    1  A    between atoms: C_1  and  C_2
REMARK    2  A    between atoms: C_2  and  C_3
REMARK    3  A    between atoms: C_5  and  C_6
REMARK    4  A    between atoms: C_7  and  C_8
REMARK    5  A    between atoms: C_15  and  C_16
REMARK    6  A    between atoms: C_16  and  C_17
REMARK    7  A    between atoms: C_18  and  O_19
REMARK                            x       y       z     vdW  Elec       q    Type
REMARK                         _______ _______ _______ _____ _____    ______ ____
ROOT
ATOM      1  C   UNL     1       2.704   6.290  19.003  0.00  0.00    +0.000 A 
ATOM      2  C   UNL     1       3.370   5.846  17.849  0.00  0.00    +0.000 A 
ATOM      3  C   UNL     1       3.851   4.537  17.750  0.00  0.00    +0.000 A 
ATOM      4  C   UNL     1       3.631   3.658  18.819  0.00  0.00    +0.000 A 
ATOM      5  C   UNL     1       2.953   4.066  19.983  0.00  0.00    +0.000 A 
ATOM      6  C   UNL     1       2.504   5.392  20.062  0.00  0.00    +0.000 A 
ENDROOT
BRANCH   1   8
ATOM      7  C   UNL     1       2.178   8.369  17.723  0.00  0.00    +0.000 C 
ATOM      8  C   UNL     1       2.284   7.737  19.104  0.00  0.00    +0.000 C 
ENDBRANCH   1   8
BRANCH   3   9
ATOM      9  C   UNL     1       4.530   4.129  16.509  0.00  0.00    +0.000 C 
ATOM     10  C   UNL     1       5.238   4.955  15.721  0.00  0.00    +0.000 C 
BRANCH  10  11
ATOM     11  C   UNL     1       5.886   4.557  14.465  0.00  0.00    +0.000 A 
ATOM     12  C   UNL     1       5.304   3.675  13.549  0.00  0.00    +0.000 A 
ATOM     13  C   UNL     1       5.946   3.399  12.342  0.00  0.00    +0.000 A 
ATOM     14  C   UNL     1       7.155   4.021  12.082  0.00  0.00    +0.000 A 
ATOM     15  N   UNL     1       7.751   4.883  12.930  0.00  0.00    +0.000 NA
ATOM     16  C   UNL     1       7.101   5.132  14.094  0.00  0.00    +0.000 A 
ENDBRANCH  10  11
ENDBRANCH   3   9
BRANCH   5  17
ATOM     17  C   UNL     1       2.764   3.049  21.085  0.00  0.00    +0.000 C 
ATOM     18  C   UNL     1       1.311   2.623  21.239  0.00  0.00    +0.000 C 
ENDBRANCH   5  17
BRANCH   6  19
ATOM     19  O   UNL     1       1.859   5.877  21.168  0.00  0.00    +0.000 OA
ATOM     20  H   UNL     1       2.041   6.821  21.265  0.00  0.00    +0.000 HD
ENDBRANCH   6  19
TORSDOF 5
ENDMDL
MODEL 2
REMARK VINA RESULT:      -7.1      4.255      7.720
REMARK  Name = 
REMARK  7 active torsions:
REMARK  status: ('A' for Active; 'I' for Inactive)
REMARK    1  A    between atoms: C_1  and  C_2
REMARK    2  A    between atoms: C_2  and  C_3
REMARK    3  A    between atoms: C_5  and  C_6
REMARK    4  A    between atoms: C_7  and  C_8
REMARK    5  A    between atoms: C_15  and  C_16
REMARK    6  A    between atoms: C_16  and  C_17
REMARK    7  A    between atoms: C_18  and  O_19
REMARK                            x       y       z     vdW  Elec       q    Type
REMARK                         _______ _______ _______ _____ _____    ______ ____
ROOT
ATOM      1  C   UNL     1       4.224   5.207  18.308  0.00  0.00    +0.000 A 
ATOM      2  C   UNL     1       3.600   6.394  18.725  0.00  0.00    +0.000 A 
ATOM      3  C   UNL     1       2.489   6.368  19.573  0.00  0.00    +0.000 A 
ATOM      4  C   UNL     1       2.022   5.129  20.029  0.00  0.00    +0.000 A 
ATOM      5  C   UNL     1       2.634   3.920  19.644  0.00  0.00    +0.000 A 
ATOM      6  C   UNL     1       3.730   3.978  18.773  0.00  0.00    +0.000 A 
ENDROOT
BRANCH   1   8
ATOM      7  C   UNL     1       5.043   6.255  16.194  0.00  0.00    +0.000 C 
ATOM      8  C   UNL     1       5.362   5.278  17.317  0.00  0.00    +0.000 C 
ENDBRANCH   1   8
BRANCH   3   9
ATOM      9  C   UNL     1       1.887   7.647  19.984  0.00  0.00    +0.000 C 
ATOM     10  C   UNL     1       1.253   7.851  21.151  0.00  0.00    +0.000 C 
BRANCH  10  11
ATOM     11  C   UNL     1       0.620   9.116  21.546  0.00  0.00    +0.000 A 
ATOM     12  C   UNL     1       0.238  10.100  20.630  0.00  0.00    +0.000 A 
ATOM     13  C   UNL     1      -0.423  11.245  21.071  0.00  0.00    +0.000 A 
ATOM     14  C   UNL     1      -0.691  11.371  22.423  0.00  0.00    +0.000 A 
ATOM     15  N   UNL     1      -0.348  10.447  23.344  0.00  0.00    +0.000 NA
ATOM     16  C   UNL     1       0.293   9.344  22.882  0.00  0.00    +0.000 A 
ENDBRANCH  10  11
ENDBRANCH   3   9
BRANCH   5  17
ATOM     17  C   UNL     1       2.058   2.632  20.184  0.00  0.00    +0.000 C 
ATOM     18  C   UNL     1       1.569   2.771  21.619  0.00  0.00    +0.000 C 
ENDBRANCH   5  17
BRANCH   6  19
ATOM     19  O   UNL     1       4.368   2.852  18.329  0.00  0.00    +0.000 OA
ATOM     20  H   UNL     1       3.718   2.168  18.119  0.00  0.00    +0.000 HD
ENDBRANCH   6  19
TORSDOF 5
ENDMDL
MODEL 3
REMARK VINA RESULT:      -7.1      3.941      6.929
REMARK  Name = 
REMARK  7 active torsions:
REMARK  status: ('A' for Active; 'I' for Inactive)
REMARK    1  A    between atoms: C_1  and  C_2
REMARK    2  A    between atoms: C_2  and  C_3
REMARK    3  A    between atoms: C_5  and  C_6
REMARK    4  A    between atoms: C_7  and  C_8
REMARK    5  A    between atoms: C_15  and  C_16
REMARK    6  A    between atoms: C_16  and  C_17
REMARK    7  A    between atoms: C_18  and  O_19
REMARK                            x       y       z     vdW  Elec       q    Type
REMARK                         _______ _______ _______ _____ _____    ______ ____
ROOT
ATOM      1  C   UNL     1       5.175   5.603  17.112  0.00  0.00    +0.000 A 
ATOM      2  C   UNL     1       4.427   6.698  17.575  0.00  0.00    +0.000 A 
ATOM      3  C   UNL     1       3.093   6.550  17.965  0.00  0.00    +0.000 A 
ATOM      4  C   UNL     1       2.516   5.275  17.912  0.00  0.00    +0.000 A 
ATOM      5  C   UNL     1       3.241   4.152  17.469  0.00  0.00    +0.000 A 
ATOM      6  C   UNL     1       4.570   4.338  17.062  0.00  0.00    +0.000 A 
ENDROOT
BRANCH   1   8
ATOM      7  C   UNL     1       7.298   6.872  17.459  0.00  0.00    +0.000 C 
ATOM      8  C   UNL     1       6.583   5.827  16.614  0.00  0.00    +0.000 C 
ENDBRANCH   1   8
BRANCH   3   9
ATOM      9  C   UNL     1       2.366   7.734  18.452  0.00  0.00    +0.000 C 
ATOM     10  C   UNL     1       2.208   8.871  17.754  0.00  0.00    +0.000 C 
BRANCH  10  11
ATOM     11  C   UNL     1       1.515  10.066  18.254  0.00  0.00    +0.000 A 
ATOM     12  C   UNL     1       2.096  11.337  18.273  0.00  0.00    +0.000 A 
ATOM     13  C   UNL     1       1.352  12.438  18.694  0.00  0.00    +0.000 A 
ATOM     14  C   UNL     1       0.038  12.237  19.080  0.00  0.00    +0.000 A 
ATOM     15  N   UNL     1      -0.568  11.032  19.073  0.00  0.00    +0.000 NA
ATOM     16  C   UNL     1       0.183   9.982  18.656  0.00  0.00    +0.000 A 
ENDBRANCH  10  11
ENDBRANCH   3   9
BRANCH   5  17
ATOM     17  C   UNL     1       2.535   2.817  17.445  0.00  0.00    +0.000 C 
ATOM     18  C   UNL     1       1.432   2.725  18.490  0.00  0.00    +0.000 C 
ENDBRANCH   5  17
BRANCH   6  19
ATOM     19  O   UNL     1       5.339   3.306  16.594  0.00  0.00    +0.000 OA
ATOM     20  H   UNL     1       6.275   3.504  16.737  0.00  0.00    +0.000 HD
ENDBRANCH   6  19
TORSDOF 5
ENDMDL
MODEL 4
REMARK VINA RESULT:      -7.0      4.129      7.526
REMARK  Name = 
REMARK  7 active torsions:
REMARK  status: ('A' for Active; 'I' for Inactive)
REMARK    1  A    between atoms: C_1  and  C_2
REMARK    2  A    between atoms: C_2  and  C_3
REMARK    3  A    between atoms: C_5  and  C_6
REMARK    4  A    between atoms: C_7  and  C_8
REMARK    5  A    between atoms: C_15  and  C_16
REMARK    6  A    between atoms: C_16  and  C_17
REMARK    7  A    between atoms: C_18  and  O_19
REMARK                            x       y       z     vdW  Elec       q    Type
REMARK                         _______ _______ _______ _____ _____    ______ ____
ROOT
ATOM      1  C   UNL     1       4.672   5.759  17.141  0.00  0.00    +0.000 A 
ATOM      2  C   UNL     1       3.949   6.806  17.736  0.00  0.00    +0.000 A 
ATOM      3  C   UNL     1       2.721   6.573  18.362  0.00  0.00    +0.000 A 
ATOM      4  C   UNL     1       2.232   5.261  18.412  0.00  0.00    +0.000 A 
ATOM      5  C   UNL     1       2.939   4.186  17.841  0.00  0.00    +0.000 A 
ATOM      6  C   UNL     1       4.156   4.456  17.199  0.00  0.00    +0.000 A 
ENDROOT
BRANCH   1   8
ATOM      7  C   UNL     1       7.124   6.187  17.355  0.00  0.00    +0.000 C 
ATOM      8  C   UNL     1       5.948   6.072  16.395  0.00  0.00    +0.000 C 
ENDBRANCH   1   8
BRANCH   3   9
ATOM      9  C   UNL     1       2.017   7.709  18.977  0.00  0.00    +0.000 C 
ATOM     10  C   UNL     1       1.762   7.827  20.291  0.00  0.00    +0.000 C 
BRANCH  10  11
ATOM     11  C   UNL     1       1.028   8.944  20.901  0.00  0.00    +0.000 A 
ATOM     12  C   UNL     1       0.214   9.814  20.172  0.00  0.00    +0.000 A 
ATOM     13  C   UNL     1      -0.510  10.809  20.829  0.00  0.00    +0.000 A 
ATOM     14  C   UNL     1      -0.403  10.899  22.206  0.00  0.00    +0.000 A 
ATOM     15  N   UNL     1       0.364  10.079  22.953  0.00  0.00    +0.000 NA
ATOM     16  C   UNL     1       1.053   9.122  22.284  0.00  0.00    +0.000 A 
ENDBRANCH  10  11
ENDBRANCH   3   9
BRANCH   5  17
ATOM     17  C   UNL     1       2.332   2.805  17.943  0.00  0.00    +0.000 C 
ATOM     18  C   UNL     1       1.069   2.788  18.791  0.00  0.00    +0.000 C 
ENDBRANCH   5  17
BRANCH   6  19
ATOM     19  O   UNL     1       4.895   3.474  16.596  0.00  0.00    +0.000 OA
ATOM     20  H   UNL     1       5.816   3.757  16.519  0.00  0.00    +0.000 HD
ENDBRANCH   6  19
TORSDOF 5
ENDMDL
MODEL 5
REMARK VINA RESULT:      -7.0      7.485      8.966
REMARK  Name = 
REMARK  7 active torsions:
REMARK  status: ('A' for Active; 'I' for Inactive)
REMARK    1  A    between atoms: C_1  and  C_2
REMARK    2  A    between atoms: C_2  and  C_3
REMARK    3  A    between atoms: C_5  and  C_6
REMARK    4  A    between atoms: C_7  and  C_8
REMARK    5  A    between atoms: C_15  and  C_16
REMARK    6  A    between atoms: C_16  and  C_17
REMARK    7  A    between atoms: C_18  and  O_19
REMARK                            x       y       z     vdW  Elec       q    Type
REMARK                         _______ _______ _______ _____ _____    ______ ____
ROOT
ATOM      1  C   UNL     1       9.628  12.232  20.663  0.00  0.00    +0.000 A 
ATOM      2  C   UNL     1       9.292  10.901  20.363  0.00  0.00    +0.000 A 
ATOM      3  C   UNL     1       9.350  10.419  19.052  0.00  0.00    +0.000 A 
ATOM      4  C   UNL     1       9.781  11.283  18.037  0.00  0.00    +0.000 A 
ATOM      5  C   UNL     1      10.141  12.618  18.306  0.00  0.00    +0.000 A 
ATOM      6  C   UNL     1      10.048  13.079  19.626  0.00  0.00    +0.000 A 
ENDROOT
BRANCH   1   8
ATOM      7  C   UNL     1       8.113  12.315  22.647  0.00  0.00    +0.000 C 
ATOM      8  C   UNL     1       9.460  12.736  22.077  0.00  0.00    +0.000 C 
ENDBRANCH   1   8
BRANCH   3   9
ATOM      9  C   UNL     1       8.997   9.012  18.804  0.00  0.00    +0.000 C 
ATOM     10  C   UNL     1       8.003   8.607  17.996  0.00  0.00    +0.000 C 
BRANCH  10  11
ATOM     11  C   UNL     1       7.626   7.204  17.776  0.00  0.00    +0.000 A 
ATOM     12  C   UNL     1       7.132   6.727  16.559  0.00  0.00    +0.000 A 
ATOM     13  C   UNL     1       6.863   5.368  16.400  0.00  0.00    +0.000 A 
ATOM     14  C   UNL     1       7.104   4.520  17.467  0.00  0.00    +0.000 A 
ATOM     15  N   UNL     1       7.586   4.932  18.657  0.00  0.00    +0.000 NA
ATOM     16  C   UNL     1       7.839   6.259  18.778  0.00  0.00    +0.000 A 
ENDBRANCH  10  11
ENDBRANCH   3   9
BRANCH   5  17
ATOM     17  C   UNL     1      10.591  13.477  17.146  0.00  0.00    +0.000 C 
ATOM     18  C   UNL     1      12.093  13.397  16.914  0.00  0.00    +0.000 C 
ENDBRANCH   5  17
BRANCH   6  19
ATOM     19  O   UNL     1      10.354  14.368  19.971  0.00  0.00    +0.000 OA
ATOM     20  H   UNL     1      10.503  14.894  19.173  0.00  0.00    +0.000 HD
ENDBRANCH   6  19
TORSDOF 5
ENDMDL
MODEL 6
REMARK VINA RESULT:      -7.0      4.024      7.622
REMARK  Name = 
REMARK  7 active torsions:
REMARK  status: ('A' for Active; 'I' for Inactive)
REMARK    1  A    between atoms: C_1  and  C_2
REMARK    2  A    between atoms: C_2  and  C_3
REMARK    3  A    between atoms: C_5  and  C_6
REMARK    4  A    between atoms: C_7  and  C_8
REMARK    5  A    between atoms: C_15  and  C_16
REMARK    6  A    between atoms: C_16  and  C_17
REMARK    7  A    between atoms: C_18  and  O_19
REMARK                            x       y       z     vdW  Elec       q    Type
REMARK                         _______ _______ _______ _____ _____    ______ ____
ROOT
ATOM      1  C   UNL     1       3.993   5.177  17.936  0.00  0.00    +0.000 A 
ATOM      2  C   UNL     1       3.408   6.359  18.419  0.00  0.00    +0.000 A 
ATOM      3  C   UNL     1       2.509   6.336  19.490  0.00  0.00    +0.000 A 
ATOM      4  C   UNL     1       2.221   5.107  20.098  0.00  0.00    +0.000 A 
ATOM      5  C   UNL     1       2.804   3.906  19.651  0.00  0.00    +0.000 A 
ATOM      6  C   UNL     1       3.681   3.959  18.559  0.00  0.00    +0.000 A 
ENDROOT
BRANCH   1   8
ATOM      7  C   UNL     1       5.067   6.674  16.250  0.00  0.00    +0.000 C 
ATOM      8  C   UNL     1       4.885   5.237  16.719  0.00  0.00    +0.000 C 
ENDBRANCH   1   8
BRANCH   3   9
ATOM      9  C   UNL     1       1.939   7.609  19.957  0.00  0.00    +0.000 C 
ATOM     10  C   UNL     1       1.111   7.733  21.008  0.00  0.00    +0.000 C 
BRANCH  10  11
ATOM     11  C   UNL     1       0.512   8.998  21.454  0.00  0.00    +0.000 A 
ATOM     12  C   UNL     1      -0.325   9.098  22.569  0.00  0.00    +0.000 A 
ATOM     13  C   UNL     1      -0.800  10.345  22.975  0.00  0.00    +0.000 A 
ATOM     14  C   UNL     1      -0.416  11.463  22.255  0.00  0.00    +0.000 A 
ATOM     15  N   UNL     1       0.393  11.417  21.177  0.00  0.00    +0.000 NA
ATOM     16  C   UNL     1       0.839  10.190  20.809  0.00  0.00    +0.000 A 
ENDBRANCH  10  11
ENDBRANCH   3   9
BRANCH   5  17
ATOM     17  C   UNL     1       2.432   2.628  20.367  0.00  0.00    +0.000 C 
ATOM     18  C   UNL     1       1.909   2.884  21.774  0.00  0.00    +0.000 C 
ENDBRANCH   5  17
BRANCH   6  19
ATOM     19  O   UNL     1       4.271   2.836  18.044  0.00  0.00    +0.000 OA
ATOM     20  H   UNL     1       3.594   2.187  17.810  0.00  0.00    +0.000 HD
ENDBRANCH   6  19
TORSDOF 5
ENDMDL
MODEL 7
REMARK VINA RESULT:      -7.0      3.934      7.348
REMARK  Name = 
REMARK  7 active torsions:
REMARK  status: ('A' for Active; 'I' for Inactive)
REMARK    1  A    between atoms: C_1  and  C_2
REMARK    2  A    between atoms: C_2  and  C_3
REMARK    3  A    between atoms: C_5  and  C_6
REMARK    4  A    between atoms: C_7  and  C_8
REMARK    5  A    between atoms: C_15  and  C_16
REMARK    6  A    between atoms: C_16  and  C_17
REMARK    7  A    between atoms: C_18  and  O_19
REMARK                            x       y       z     vdW  Elec       q    Type
REMARK                         _______ _______ _______ _____ _____    ______ ____
ROOT
ATOM      1  C   UNL     1       3.240   4.258  17.489  0.00  0.00    +0.000 A 
ATOM      2  C   UNL     1       2.534   5.384  17.944  0.00  0.00    +0.000 A 
ATOM      3  C   UNL     1       3.137   6.644  17.993  0.00  0.00    +0.000 A 
ATOM      4  C   UNL     1       4.459   6.773  17.549  0.00  0.00    +0.000 A 
ATOM      5  C   UNL     1       5.190   5.669  17.070  0.00  0.00    +0.000 A 
ATOM      6  C   UNL     1       4.566   4.413  17.058  0.00  0.00    +0.000 A 
ENDROOT
BRANCH   1   8
ATOM      7  C   UNL     1       1.490   2.868  18.605  0.00  0.00    +0.000 C 
ATOM      8  C   UNL     1       2.580   2.900  17.543  0.00  0.00    +0.000 C 
ENDBRANCH   1   8
BRANCH   3   9
ATOM      9  C   UNL     1       2.341   7.787  18.469  0.00  0.00    +0.000 C 
ATOM     10  C   UNL     1       1.983   8.835  17.708  0.00  0.00    +0.000 C 
BRANCH  10  11
ATOM     11  C   UNL     1       1.219   9.994  18.191  0.00  0.00    +0.000 A 
ATOM     12  C   UNL     1       1.809  11.220  18.511  0.00  0.00    +0.000 A 
ATOM     13  C   UNL     1       1.013  12.298  18.896  0.00  0.00    +0.000 A 
ATOM     14  C   UNL     1      -0.359  12.120  18.942  0.00  0.00    +0.000 A 
ATOM     15  N   UNL     1      -0.974  10.959  18.636  0.00  0.00    +0.000 NA
ATOM     16  C   UNL     1      -0.171   9.931  18.265  0.00  0.00    +0.000 A 
ENDBRANCH  10  11
ENDBRANCH   3   9
BRANCH   5  17
ATOM     17  C   UNL     1       6.611   5.904  16.614  0.00  0.00    +0.000 C 
ATOM     18  C   UNL     1       7.424   6.692  17.631  0.00  0.00    +0.000 C 
ENDBRANCH   5  17
BRANCH   6  19
ATOM     19  O   UNL     1       5.211   3.284  16.633  0.00  0.00    +0.000 OA
ATOM     20  H   UNL     1       4.576   2.673  16.235  0.00  0.00    +0.000 HD
ENDBRANCH   6  19
TORSDOF 5
ENDMDL
MODEL 8
REMARK VINA RESULT:      -7.0      3.868      6.947
REMARK  Name = 
REMARK  7 active torsions:
REMARK  status: ('A' for Active; 'I' for Inactive)
REMARK    1  A    between atoms: C_1  and  C_2
REMARK    2  A    between atoms: C_2  and  C_3
REMARK    3  A    between atoms: C_5  and  C_6
REMARK    4  A    between atoms: C_7  and  C_8
REMARK    5  A    between atoms: C_15  and  C_16
REMARK    6  A    between atoms: C_16  and  C_17
REMARK    7  A    between atoms: C_18  and  O_19
REMARK                            x       y       z     vdW  Elec       q    Type
REMARK                         _______ _______ _______ _____ _____    ______ ____
ROOT
ATOM      1  C   UNL     1       5.089   5.738  17.100  0.00  0.00    +0.000 A 
ATOM      2  C   UNL     1       4.355   6.852  17.541  0.00  0.00    +0.000 A 
ATOM      3  C   UNL     1       3.035   6.719  17.984  0.00  0.00    +0.000 A 
ATOM      4  C   UNL     1       2.461   5.442  18.008  0.00  0.00    +0.000 A 
ATOM      5  C   UNL     1       3.173   4.302  17.589  0.00  0.00    +0.000 A 
ATOM      6  C   UNL     1       4.486   4.471  17.127  0.00  0.00    +0.000 A 
ENDROOT
BRANCH   1   8
ATOM      7  C   UNL     1       7.404   6.535  17.596  0.00  0.00    +0.000 C 
ATOM      8  C   UNL     1       6.478   5.941  16.543  0.00  0.00    +0.000 C 
ENDBRANCH   1   8
BRANCH   3   9
ATOM      9  C   UNL     1       2.324   7.922  18.445  0.00  0.00    +0.000 C 
ATOM     10  C   UNL     1       1.535   8.684  17.669  0.00  0.00    +0.000 C 
BRANCH  10  11
ATOM     11  C   UNL     1       0.853   9.905  18.118  0.00  0.00    +0.000 A 
ATOM     12  C   UNL     1      -0.539  10.036  18.154  0.00  0.00    +0.000 A 
ATOM     13  C   UNL     1      -1.117  11.199  18.660  0.00  0.00    +0.000 A 
ATOM     14  C   UNL     1      -0.284  12.201  19.125  0.00  0.00    +0.000 A 
ATOM     15  N   UNL     1       1.062  12.119  19.116  0.00  0.00    +0.000 NA
ATOM     16  C   UNL     1       1.594  10.974  18.619  0.00  0.00    +0.000 A 
ENDBRANCH  10  11
ENDBRANCH   3   9
BRANCH   5  17
ATOM     17  C   UNL     1       2.470   2.966  17.649  0.00  0.00    +0.000 C 
ATOM     18  C   UNL     1       1.240   2.997  18.545  0.00  0.00    +0.000 C 
ENDBRANCH   5  17
BRANCH   6  19
ATOM     19  O   UNL     1       5.241   3.421  16.678  0.00  0.00    +0.000 OA
ATOM     20  H   UNL     1       6.123   3.459  17.072  0.00  0.00    +0.000 HD
ENDBRANCH   6  19
TORSDOF 5
ENDMDL
MODEL 9
REMARK VINA RESULT:      -7.0      3.840      7.249
REMARK  Name = 
REMARK  7 active torsions:
REMARK  status: ('A' for Active; 'I' for Inactive)
REMARK    1  A    between atoms: C_1  and  C_2
REMARK    2  A    between atoms: C_2  and  C_3
REMARK    3  A    between atoms: C_5  and  C_6
REMARK    4  A    between atoms: C_7  and  C_8
REMARK    5  A    between atoms: C_15  and  C_16
REMARK    6  A    between atoms: C_16  and  C_17
REMARK    7  A    between atoms: C_18  and  O_19
REMARK                            x       y       z     vdW  Elec       q    Type
REMARK                         _______ _______ _______ _____ _____    ______ ____
ROOT
ATOM      1  C   UNL     1       3.480   4.157  17.520  0.00  0.00    +0.000 A 
ATOM      2  C   UNL     1       2.660   5.241  17.871  0.00  0.00    +0.000 A 
ATOM      3  C   UNL     1       3.149   6.550  17.866  0.00  0.00    +0.000 A 
ATOM      4  C   UNL     1       4.477   6.769  17.474  0.00  0.00    +0.000 A 
ATOM      5  C   UNL     1       5.322   5.707  17.100  0.00  0.00    +0.000 A 
ATOM      6  C   UNL     1       4.809   4.403  17.139  0.00  0.00    +0.000 A 
ENDROOT
BRANCH   1   8
ATOM      7  C   UNL     1       2.667   2.386  19.083  0.00  0.00    +0.000 C 
ATOM      8  C   UNL     1       2.937   2.751  17.630  0.00  0.00    +0.000 C 
ENDBRANCH   1   8
BRANCH   3   9
ATOM      9  C   UNL     1       2.236   7.645  18.233  0.00  0.00    +0.000 C 
ATOM     10  C   UNL     1       2.314   8.896  17.749  0.00  0.00    +0.000 C 
BRANCH  10  11
ATOM     11  C   UNL     1       1.425   9.998  18.142  0.00  0.00    +0.000 A 
ATOM     12  C   UNL     1       0.052   9.838  18.347  0.00  0.00    +0.000 A 
ATOM     13  C   UNL     1      -0.717  10.914  18.789  0.00  0.00    +0.000 A 
ATOM     14  C   UNL     1      -0.086  12.124  19.020  0.00  0.00    +0.000 A 
ATOM     15  N   UNL     1       1.236  12.325  18.842  0.00  0.00    +0.000 NA
ATOM     16  C   UNL     1       1.956  11.258  18.413  0.00  0.00    +0.000 A 
ENDBRANCH  10  11
ENDBRANCH   3   9
BRANCH   5  17
ATOM     17  C   UNL     1       6.739   6.039  16.693  0.00  0.00    +0.000 C 
ATOM     18  C   UNL     1       7.432   6.950  17.697  0.00  0.00    +0.000 C 
ENDBRANCH   5  17
BRANCH   6  19
ATOM     19  O   UNL     1       5.568   3.311  16.816  0.00  0.00    +0.000 OA
ATOM     20  H   UNL     1       5.242   2.533  17.287  0.00  0.00    +0.000 HD
ENDBRANCH   6  19
TORSDOF 5
ENDMDL
