MODEL 1
REMARK VINA RESULT:      -8.8      0.000      0.000
REMARK  Name = 
REMARK  5 active torsions:
REMARK  status: ('A' for Active; 'I' for Inactive)
REMARK    1  A    between atoms: C_1  and  C_2
REMARK    2  A    between atoms: N_4  and  C_5
REMARK    3  A    between atoms: C_8  and  C_9
REMARK    4  A    between atoms: N_13  and  C_14
REMARK    5  A    between atoms: C_20  and  C_21
REMARK                            x       y       z     vdW  Elec       q    Type
REMARK                         _______ _______ _______ _____ _____    ______ ____
ROOT
ATOM      1  C   UNL     1       2.631   6.221  19.360  0.00  0.00    +0.000 A 
ATOM      2  C   UNL     1       2.091   5.198  20.110  0.00  0.00    +0.000 A 
ATOM      3  S   UNL     1       3.033   3.783  19.936  0.00  0.00    +0.000 S 
ATOM      4  C   UNL     1       4.090   4.621  18.858  0.00  0.00    +0.000 A 
ATOM      5  N   UNL     1       5.155   3.986  18.339  0.00  0.00    +0.000 N 
ATOM      6  N   UNL     1       3.770   5.885  18.655  0.00  0.00    +0.000 NA
ATOM      7  H   UNL     1       5.463   3.126  18.783  0.00  0.00    +0.000 HD
ENDROOT
BRANCH   5   8
ATOM      8  C   UNL     1       5.723   4.222  17.074  0.00  0.00    +0.000 A 
ATOM      9  C   UNL     1       5.008   3.967  15.893  0.00  0.00    +0.000 A 
ATOM     10  C   UNL     1       5.568   4.247  14.650  0.00  0.00    +0.000 A 
ATOM     11  F   UNL     1       4.872   3.977  13.539  0.00  0.00    +0.000 F 
ATOM     12  C   UNL     1       6.837   4.790  14.549  0.00  0.00    +0.000 A 
ATOM     13  C   UNL     1       7.565   5.057  15.707  0.00  0.00    +0.000 A 
ATOM     14  C   UNL     1       7.022   4.773  16.972  0.00  0.00    +0.000 A 
ATOM     15  C   UNL     1       7.842   5.056  18.203  0.00  0.00    +0.000 C 
ENDBRANCH   5   8
BRANCH   1  19
ATOM     16  C   UNL     1       0.969  10.128  19.232  0.00  0.00    +0.000 A 
ATOM     17  C   UNL     1       1.527   9.580  18.075  0.00  0.00    +0.000 A 
ATOM     18  C   UNL     1       2.102   8.309  18.130  0.00  0.00    +0.000 A 
ATOM     19  C   UNL     1       2.074   7.561  19.319  0.00  0.00    +0.000 A 
ATOM     20  C   UNL     1       1.501   8.113  20.465  0.00  0.00    +0.000 A 
ATOM     21  C   UNL     1       0.967   9.394  20.422  0.00  0.00    +0.000 A 
ATOM     22  F   UNL     1       0.388   9.873  21.532  0.00  0.00    +0.000 F 
BRANCH  16  26
ATOM     23  C   UNL     1       0.312  15.062  18.998  0.00  0.00    +0.000 C 
ATOM     24  C   UNL     1       0.137  13.595  19.120  0.00  0.00    +0.000 A 
ATOM     25  C   UNL     1       1.098  12.613  19.169  0.00  0.00    +0.000 A 
ATOM     26  N   UNL     1       0.412  11.421  19.208  0.00  0.00    +0.000 N 
ATOM     27  C   UNL     1      -0.922  11.750  19.228  0.00  0.00    +0.000 A 
ATOM     28  N   UNL     1      -1.117  13.048  19.179  0.00  0.00    +0.000 NA
ENDBRANCH  16  26
ENDBRANCH   1  19
TORSDOF 3
ENDMDL
MODEL 2
REMARK VINA RESULT:      -8.8      1.225      1.665
REMARK  Name = 
REMARK  5 active torsions:
REMARK  status: ('A' for Active; 'I' for Inactive)
REMARK    1  A    between atoms: C_1  and  C_2
REMARK    2  A    between atoms: N_4  and  C_5
REMARK    3  A    between atoms: C_8  and  C_9
REMARK    4  A    between atoms: N_13  and  C_14
REMARK    5  A    between atoms: C_20  and  C_21
REMARK                            x       y       z     vdW  Elec       q    Type
REMARK                         _______ _______ _______ _____ _____    ______ ____
ROOT
ATOM      1  C   UNL     1       2.694   5.694  19.541  0.00  0.00    +0.000 A 
ATOM      2  C   UNL     1       2.192   4.579  20.178  0.00  0.00    +0.000 A 
ATOM      3  S   UNL     1       3.154   3.214  19.817  0.00  0.00    +0.000 S 
ATOM      4  C   UNL     1       4.167   4.195  18.820  0.00  0.00    +0.000 A 
ATOM      5  N   UNL     1       5.230   3.648  18.204  0.00  0.00    +0.000 N 
ATOM      6  N   UNL     1       3.820   5.467  18.775  0.00  0.00    +0.000 NA
ATOM      7  H   UNL     1       5.564   2.747  18.536  0.00  0.00    +0.000 HD
ENDROOT
BRANCH   5   8
ATOM      8  C   UNL     1       5.760   4.042  16.962  0.00  0.00    +0.000 A 
ATOM      9  C   UNL     1       5.060   3.820  15.765  0.00  0.00    +0.000 A 
ATOM     10  C   UNL     1       5.579   4.256  14.550  0.00  0.00    +0.000 A 
ATOM     11  F   UNL     1       4.900   4.015  13.421  0.00  0.00    +0.000 F 
ATOM     12  C   UNL     1       6.790   4.923  14.492  0.00  0.00    +0.000 A 
ATOM     13  C   UNL     1       7.501   5.160  15.668  0.00  0.00    +0.000 A 
ATOM     14  C   UNL     1       7.000   4.720  16.905  0.00  0.00    +0.000 A 
ATOM     15  C   UNL     1       7.802   4.976  18.154  0.00  0.00    +0.000 C 
ENDBRANCH   5   8
BRANCH   1  19
ATOM     16  C   UNL     1       1.024   9.580  19.932  0.00  0.00    +0.000 A 
ATOM     17  C   UNL     1       0.995   8.706  21.021  0.00  0.00    +0.000 A 
ATOM     18  C   UNL     1       1.514   7.419  20.878  0.00  0.00    +0.000 A 
ATOM     19  C   UNL     1       2.112   7.018  19.672  0.00  0.00    +0.000 A 
ATOM     20  C   UNL     1       2.149   7.904  18.595  0.00  0.00    +0.000 A 
ATOM     21  C   UNL     1       1.593   9.171  18.723  0.00  0.00    +0.000 A 
ATOM     22  F   UNL     1       1.686  10.008  17.680  0.00  0.00    +0.000 F 
BRANCH  16  26
ATOM     23  C   UNL     1      -2.089  13.453  20.302  0.00  0.00    +0.000 C 
ATOM     24  C   UNL     1      -0.903  12.571  20.190  0.00  0.00    +0.000 A 
ATOM     25  C   UNL     1      -0.856  11.210  20.003  0.00  0.00    +0.000 A 
ATOM     26  N   UNL     1       0.477  10.873  20.044  0.00  0.00    +0.000 N 
ATOM     27  C   UNL     1       1.163  12.053  20.207  0.00  0.00    +0.000 A 
ATOM     28  N   UNL     1       0.360  13.089  20.294  0.00  0.00    +0.000 NA
ENDBRANCH  16  26
ENDBRANCH   1  19
TORSDOF 3
ENDMDL
MODEL 3
REMARK VINA RESULT:      -8.8      0.998      1.192
REMARK  Name = 
REMARK  5 active torsions:
REMARK  status: ('A' for Active; 'I' for Inactive)
REMARK    1  A    between atoms: C_1  and  C_2
REMARK    2  A    between atoms: N_4  and  C_5
REMARK    3  A    between atoms: C_8  and  C_9
REMARK    4  A    between atoms: N_13  and  C_14
REMARK    5  A    between atoms: C_20  and  C_21
REMARK                            x       y       z     vdW  Elec       q    Type
REMARK                         _______ _______ _______ _____ _____    ______ ____
ROOT
ATOM      1  C   UNL     1       2.712   5.701  19.540  0.00  0.00    +0.000 A 
ATOM      2  C   UNL     1       2.210   4.585  20.174  0.00  0.00    +0.000 A 
ATOM      3  S   UNL     1       3.167   3.218  19.804  0.00  0.00    +0.000 S 
ATOM      4  C   UNL     1       4.180   4.201  18.808  0.00  0.00    +0.000 A 
ATOM      5  N   UNL     1       5.238   3.654  18.187  0.00  0.00    +0.000 N 
ATOM      6  N   UNL     1       3.836   5.474  18.769  0.00  0.00    +0.000 NA
ATOM      7  H   UNL     1       5.572   2.751  18.514  0.00  0.00    +0.000 HD
ENDROOT
BRANCH   5   8
ATOM      8  C   UNL     1       5.766   4.052  16.945  0.00  0.00    +0.000 A 
ATOM      9  C   UNL     1       5.073   3.815  15.747  0.00  0.00    +0.000 A 
ATOM     10  C   UNL     1       5.588   4.255  14.532  0.00  0.00    +0.000 A 
ATOM     11  F   UNL     1       4.916   4.001  13.402  0.00  0.00    +0.000 F 
ATOM     12  C   UNL     1       6.789   4.941  14.474  0.00  0.00    +0.000 A 
ATOM     13  C   UNL     1       7.493   5.192  15.651  0.00  0.00    +0.000 A 
ATOM     14  C   UNL     1       6.995   4.749  16.889  0.00  0.00    +0.000 A 
ATOM     15  C   UNL     1       7.791   5.020  18.139  0.00  0.00    +0.000 C 
ENDBRANCH   5   8
BRANCH   1  19
ATOM     16  C   UNL     1       0.990   9.564  19.935  0.00  0.00    +0.000 A 
ATOM     17  C   UNL     1       1.565   9.188  18.718  0.00  0.00    +0.000 A 
ATOM     18  C   UNL     1       2.160   7.930  18.604  0.00  0.00    +0.000 A 
ATOM     19  C   UNL     1       2.134   7.026  19.678  0.00  0.00    +0.000 A 
ATOM     20  C   UNL     1       1.544   7.407  20.884  0.00  0.00    +0.000 A 
ATOM     21  C   UNL     1       0.991   8.674  21.012  0.00  0.00    +0.000 A 
ATOM     22  F   UNL     1       0.396   8.987  22.172  0.00  0.00    +0.000 F 
BRANCH  16  26
ATOM     23  C   UNL     1      -2.215  13.353  20.381  0.00  0.00    +0.000 C 
ATOM     24  C   UNL     1      -1.008  12.501  20.262  0.00  0.00    +0.000 A 
ATOM     25  C   UNL     1      -0.927  11.149  20.026  0.00  0.00    +0.000 A 
ATOM     26  N   UNL     1       0.412  10.839  20.082  0.00  0.00    +0.000 N 
ATOM     27  C   UNL     1       1.068  12.027  20.302  0.00  0.00    +0.000 A 
ATOM     28  N   UNL     1       0.242  13.042  20.410  0.00  0.00    +0.000 NA
ENDBRANCH  16  26
ENDBRANCH   1  19
TORSDOF 3
ENDMDL
MODEL 4
REMARK VINA RESULT:      -8.4      1.140      1.480
REMARK  Name = 
REMARK  5 active torsions:
REMARK  status: ('A' for Active; 'I' for Inactive)
REMARK    1  A    between atoms: C_1  and  C_2
REMARK    2  A    between atoms: N_4  and  C_5
REMARK    3  A    between atoms: C_8  and  C_9
REMARK    4  A    between atoms: N_13  and  C_14
REMARK    5  A    between atoms: C_20  and  C_21
REMARK                            x       y       z     vdW  Elec       q    Type
REMARK                         _______ _______ _______ _____ _____    ______ ____
ROOT
ATOM      1  C   UNL     1       2.341   6.209  20.017  0.00  0.00    +0.000 A 
ATOM      2  C   UNL     1       1.765   5.132  20.656  0.00  0.00    +0.000 A 
ATOM      3  S   UNL     1       2.718   3.732  20.422  0.00  0.00    +0.000 S 
ATOM      4  C   UNL     1       3.827   4.649  19.469  0.00  0.00    +0.000 A 
ATOM      5  N   UNL     1       4.919   4.055  18.958  0.00  0.00    +0.000 N 
ATOM      6  N   UNL     1       3.516   5.926  19.348  0.00  0.00    +0.000 NA
ATOM      7  H   UNL     1       5.205   3.161  19.349  0.00  0.00    +0.000 HD
ENDROOT
BRANCH   5   8
ATOM      8  C   UNL     1       5.551   4.387  17.746  0.00  0.00    +0.000 A 
ATOM      9  C   UNL     1       5.009   4.002  16.509  0.00  0.00    +0.000 A 
ATOM     10  C   UNL     1       5.623   4.377  15.318  0.00  0.00    +0.000 A 
ATOM     11  F   UNL     1       5.096   3.981  14.153  0.00  0.00    +0.000 F 
ATOM     12  C   UNL     1       6.777   5.142  15.323  0.00  0.00    +0.000 A 
ATOM     13  C   UNL     1       7.332   5.540  16.538  0.00  0.00    +0.000 A 
ATOM     14  C   UNL     1       6.732   5.165  17.753  0.00  0.00    +0.000 A 
ATOM     15  C   UNL     1       7.369   5.596  19.049  0.00  0.00    +0.000 C 
ENDBRANCH   5   8
BRANCH   1  19
ATOM     16  C   UNL     1       0.745  10.144  20.126  0.00  0.00    +0.000 A 
ATOM     17  C   UNL     1       0.686   9.345  21.271  0.00  0.00    +0.000 A 
ATOM     18  C   UNL     1       1.181   8.041  21.220  0.00  0.00    +0.000 A 
ATOM     19  C   UNL     1       1.785   7.549  20.051  0.00  0.00    +0.000 A 
ATOM     20  C   UNL     1       1.852   8.361  18.918  0.00  0.00    +0.000 A 
ATOM     21  C   UNL     1       1.320   9.643  18.955  0.00  0.00    +0.000 A 
ATOM     22  F   UNL     1       1.442  10.407  17.860  0.00  0.00    +0.000 F 
BRANCH  16  26
ATOM     23  C   UNL     1       0.159  15.065  20.641  0.00  0.00    +0.000 C 
ATOM     24  C   UNL     1      -0.028  13.616  20.391  0.00  0.00    +0.000 A 
ATOM     25  C   UNL     1       0.851  12.582  20.613  0.00  0.00    +0.000 A 
ATOM     26  N   UNL     1       0.223  11.451  20.145  0.00  0.00    +0.000 N 
ATOM     27  C   UNL     1      -1.016  11.856  19.712  0.00  0.00    +0.000 A 
ATOM     28  N   UNL     1      -1.196  13.149  19.851  0.00  0.00    +0.000 NA
ENDBRANCH  16  26
ENDBRANCH   1  19
TORSDOF 3
ENDMDL
MODEL 5
REMARK VINA RESULT:      -8.3      3.355      9.349
REMARK  Name = 
REMARK  5 active torsions:
REMARK  status: ('A' for Active; 'I' for Inactive)
REMARK    1  A    between atoms: C_1  and  C_2
REMARK    2  A    between atoms: N_4  and  C_5
REMARK    3  A    between atoms: C_8  and  C_9
REMARK    4  A    between atoms: N_13  and  C_14
REMARK    5  A    between atoms: C_20  and  C_21
REMARK                            x       y       z     vdW  Elec       q    Type
REMARK                         _______ _______ _______ _____ _____    ______ ____
ROOT
ATOM      1  C   UNL     1       0.632   9.971  20.128  0.00  0.00    +0.000 A 
ATOM      2  C   UNL     1       1.168  11.019  20.847  0.00  0.00    +0.000 A 
ATOM      3  S   UNL     1       0.066  12.324  20.891  0.00  0.00    +0.000 S 
ATOM      4  C   UNL     1      -1.047  11.414  19.934  0.00  0.00    +0.000 A 
ATOM      5  N   UNL     1      -2.239  11.945  19.612  0.00  0.00    +0.000 N 
ATOM      6  N   UNL     1      -0.630  10.204  19.617  0.00  0.00    +0.000 NA
ATOM      7  H   UNL     1      -2.566  12.747  20.143  0.00  0.00    +0.000 HD
ENDROOT
BRANCH   5   8
ATOM      8  C   UNL     1      -2.964  11.695  18.433  0.00  0.00    +0.000 A 
ATOM      9  C   UNL     1      -2.321  11.291  17.252  0.00  0.00    +0.000 A 
ATOM     10  C   UNL     1      -3.057  11.006  16.106  0.00  0.00    +0.000 A 
ATOM     11  F   UNL     1      -2.418  10.639  14.988  0.00  0.00    +0.000 F 
ATOM     12  C   UNL     1      -4.438  11.107  16.104  0.00  0.00    +0.000 A 
ATOM     13  C   UNL     1      -5.099  11.501  17.266  0.00  0.00    +0.000 A 
ATOM     14  C   UNL     1      -4.374  11.803  18.432  0.00  0.00    +0.000 A 
ATOM     15  C   UNL     1      -5.119  12.245  19.664  0.00  0.00    +0.000 C 
ENDBRANCH   5   8
BRANCH   1  19
ATOM     16  C   UNL     1       2.601   6.254  19.538  0.00  0.00    +0.000 A 
ATOM     17  C   UNL     1       1.890   6.476  20.719  0.00  0.00    +0.000 A 
ATOM     18  C   UNL     1       1.273   7.711  20.924  0.00  0.00    +0.000 A 
ATOM     19  C   UNL     1       1.315   8.705  19.932  0.00  0.00    +0.000 A 
ATOM     20  C   UNL     1       2.017   8.467  18.750  0.00  0.00    +0.000 A 
ATOM     21  C   UNL     1       2.668   7.255  18.565  0.00  0.00    +0.000 A 
ATOM     22  F   UNL     1       3.296   7.049  17.398  0.00  0.00    +0.000 F 
BRANCH  16  26
ATOM     23  C   UNL     1       3.663   1.514  18.430  0.00  0.00    +0.000 C 
ATOM     24  C   UNL     1       3.711   2.934  18.850  0.00  0.00    +0.000 A 
ATOM     25  C   UNL     1       2.675   3.828  18.984  0.00  0.00    +0.000 A 
ATOM     26  N   UNL     1       3.258   5.027  19.325  0.00  0.00    +0.000 N 
ATOM     27  C   UNL     1       4.607   4.779  19.423  0.00  0.00    +0.000 A 
ATOM     28  N   UNL     1       4.907   3.531  19.147  0.00  0.00    +0.000 NA
ENDBRANCH  16  26
ENDBRANCH   1  19
TORSDOF 3
ENDMDL
MODEL 6
REMARK VINA RESULT:      -8.1      3.445      9.261
REMARK  Name = 
REMARK  5 active torsions:
REMARK  status: ('A' for Active; 'I' for Inactive)
REMARK    1  A    between atoms: C_1  and  C_2
REMARK    2  A    between atoms: N_4  and  C_5
REMARK    3  A    between atoms: C_8  and  C_9
REMARK    4  A    between atoms: N_13  and  C_14
REMARK    5  A    between atoms: C_20  and  C_21
REMARK                            x       y       z     vdW  Elec       q    Type
REMARK                         _______ _______ _______ _____ _____    ______ ____
ROOT
ATOM      1  C   UNL     1       0.766   9.945  19.845  0.00  0.00    +0.000 A 
ATOM      2  C   UNL     1       1.342  10.999  20.521  0.00  0.00    +0.000 A 
ATOM      3  S   UNL     1       0.254  12.315  20.594  0.00  0.00    +0.000 S 
ATOM      4  C   UNL     1      -0.908  11.400  19.704  0.00  0.00    +0.000 A 
ATOM      5  N   UNL     1      -2.110  11.936  19.428  0.00  0.00    +0.000 N 
ATOM      6  N   UNL     1      -0.516  10.181  19.388  0.00  0.00    +0.000 NA
ATOM      7  H   UNL     1      -2.406  12.750  19.960  0.00  0.00    +0.000 HD
ENDROOT
BRANCH   5   8
ATOM      8  C   UNL     1      -2.890  11.674  18.287  0.00  0.00    +0.000 A 
ATOM      9  C   UNL     1      -2.304  11.247  17.084  0.00  0.00    +0.000 A 
ATOM     10  C   UNL     1      -3.094  10.950  15.978  0.00  0.00    +0.000 A 
ATOM     11  F   UNL     1      -2.510  10.562  14.837  0.00  0.00    +0.000 F 
ATOM     12  C   UNL     1      -4.473  11.061  16.038  0.00  0.00    +0.000 A 
ATOM     13  C   UNL     1      -5.077  11.478  17.222  0.00  0.00    +0.000 A 
ATOM     14  C   UNL     1      -4.298  11.792  18.349  0.00  0.00    +0.000 A 
ATOM     15  C   UNL     1      -4.982  12.259  19.607  0.00  0.00    +0.000 C 
ENDBRANCH   5   8
BRANCH   1  19
ATOM     16  C   UNL     1       2.735   6.227  19.259  0.00  0.00    +0.000 A 
ATOM     17  C   UNL     1       2.806   7.208  18.267  0.00  0.00    +0.000 A 
ATOM     18  C   UNL     1       2.129   8.415  18.449  0.00  0.00    +0.000 A 
ATOM     19  C   UNL     1       1.429   8.670  19.639  0.00  0.00    +0.000 A 
ATOM     20  C   UNL     1       1.377   7.690  20.630  0.00  0.00    +0.000 A 
ATOM     21  C   UNL     1       2.013   6.471  20.431  0.00  0.00    +0.000 A 
ATOM     22  F   UNL     1       1.976   5.572  21.424  0.00  0.00    +0.000 F 
BRANCH  16  26
ATOM     23  C   UNL     1       3.774   1.462  18.239  0.00  0.00    +0.000 C 
ATOM     24  C   UNL     1       3.825   2.887  18.646  0.00  0.00    +0.000 A 
ATOM     25  C   UNL     1       2.797   3.795  18.733  0.00  0.00    +0.000 A 
ATOM     26  N   UNL     1       3.383   4.990  19.083  0.00  0.00    +0.000 N 
ATOM     27  C   UNL     1       4.723   4.726  19.233  0.00  0.00    +0.000 A 
ATOM     28  N   UNL     1       5.017   3.472  18.981  0.00  0.00    +0.000 NA
ENDBRANCH  16  26
ENDBRANCH   1  19
TORSDOF 3
ENDMDL
MODEL 7
REMARK VINA RESULT:      -8.0      3.466      9.515
REMARK  Name = 
REMARK  5 active torsions:
REMARK  status: ('A' for Active; 'I' for Inactive)
REMARK    1  A    between atoms: C_1  and  C_2
REMARK    2  A    between atoms: N_4  and  C_5
REMARK    3  A    between atoms: C_8  and  C_9
REMARK    4  A    between atoms: N_13  and  C_14
REMARK    5  A    between atoms: C_20  and  C_21
REMARK                            x       y       z     vdW  Elec       q    Type
REMARK                         _______ _______ _______ _____ _____    ______ ____
ROOT
ATOM      1  C   UNL     1       0.952  10.662  18.981  0.00  0.00    +0.000 A 
ATOM      2  C   UNL     1       1.717  11.807  18.924  0.00  0.00    +0.000 A 
ATOM      3  S   UNL     1       0.714  13.189  19.016  0.00  0.00    +0.000 S 
ATOM      4  C   UNL     1      -0.677  12.170  19.109  0.00  0.00    +0.000 A 
ATOM      5  N   UNL     1      -1.898  12.717  19.229  0.00  0.00    +0.000 N 
ATOM      6  N   UNL     1      -0.408  10.878  19.091  0.00  0.00    +0.000 NA
ATOM      7  H   UNL     1      -1.961  13.688  19.522  0.00  0.00    +0.000 HD
ENDROOT
BRANCH   5   8
ATOM      8  C   UNL     1      -3.097  12.186  18.720  0.00  0.00    +0.000 A 
ATOM      9  C   UNL     1      -3.149  11.584  17.452  0.00  0.00    +0.000 A 
ATOM     10  C   UNL     1      -4.333  11.024  16.982  0.00  0.00    +0.000 A 
ATOM     11  F   UNL     1      -4.360  10.473  15.762  0.00  0.00    +0.000 F 
ATOM     12  C   UNL     1      -5.483  11.040  17.752  0.00  0.00    +0.000 A 
ATOM     13  C   UNL     1      -5.454  11.627  19.016  0.00  0.00    +0.000 A 
ATOM     14  C   UNL     1      -4.272  12.206  19.507  0.00  0.00    +0.000 A 
ATOM     15  C   UNL     1      -4.281  12.849  20.870  0.00  0.00    +0.000 C 
ENDBRANCH   5   8
BRANCH   1  19
ATOM     16  C   UNL     1       2.625   6.759  18.916  0.00  0.00    +0.000 A 
ATOM     17  C   UNL     1       2.805   7.603  17.818  0.00  0.00    +0.000 A 
ATOM     18  C   UNL     1       2.225   8.872  17.829  0.00  0.00    +0.000 A 
ATOM     19  C   UNL     1       1.513   9.323  18.953  0.00  0.00    +0.000 A 
ATOM     20  C   UNL     1       1.352   8.477  20.050  0.00  0.00    +0.000 A 
ATOM     21  C   UNL     1       1.892   7.198  20.022  0.00  0.00    +0.000 A 
ATOM     22  F   UNL     1       1.751   6.431  21.112  0.00  0.00    +0.000 F 
BRANCH  16  26
ATOM     23  C   UNL     1       3.409   1.886  18.231  0.00  0.00    +0.000 C 
ATOM     24  C   UNL     1       3.501   3.313  18.619  0.00  0.00    +0.000 A 
ATOM     25  C   UNL     1       2.573   4.314  18.452  0.00  0.00    +0.000 A 
ATOM     26  N   UNL     1       3.174   5.462  18.912  0.00  0.00    +0.000 N 
ATOM     27  C   UNL     1       4.412   5.084  19.375  0.00  0.00    +0.000 A 
ATOM     28  N   UNL     1       4.634   3.800  19.216  0.00  0.00    +0.000 NA
ENDBRANCH  16  26
ENDBRANCH   1  19
TORSDOF 3
ENDMDL
MODEL 8
REMARK VINA RESULT:      -7.8      3.313      9.529
REMARK  Name = 
REMARK  5 active torsions:
REMARK  status: ('A' for Active; 'I' for Inactive)
REMARK    1  A    between atoms: C_1  and  C_2
REMARK    2  A    between atoms: N_4  and  C_5
REMARK    3  A    between atoms: C_8  and  C_9
REMARK    4  A    between atoms: N_13  and  C_14
REMARK    5  A    between atoms: C_20  and  C_21
REMARK                            x       y       z     vdW  Elec       q    Type
REMARK                         _______ _______ _______ _____ _____    ______ ____
ROOT
ATOM      1  C   UNL     1       1.112  10.610  18.893  0.00  0.00    +0.000 A 
ATOM      2  C   UNL     1       1.872  11.756  18.801  0.00  0.00    +0.000 A 
ATOM      3  S   UNL     1       0.862  13.135  18.828  0.00  0.00    +0.000 S 
ATOM      4  C   UNL     1      -0.525  12.112  18.944  0.00  0.00    +0.000 A 
ATOM      5  N   UNL     1      -1.751  12.657  19.029  0.00  0.00    +0.000 N 
ATOM      6  N   UNL     1      -0.250  10.823  18.979  0.00  0.00    +0.000 NA
ATOM      7  H   UNL     1      -1.823  13.639  19.283  0.00  0.00    +0.000 HD
ENDROOT
BRANCH   5   8
ATOM      8  C   UNL     1      -2.941  12.100  18.526  0.00  0.00    +0.000 A 
ATOM      9  C   UNL     1      -2.978  11.461  17.276  0.00  0.00    +0.000 A 
ATOM     10  C   UNL     1      -4.152  10.877  16.814  0.00  0.00    +0.000 A 
ATOM     11  F   UNL     1      -4.165  10.290  15.610  0.00  0.00    +0.000 F 
ATOM     12  C   UNL     1      -5.308  10.905  17.574  0.00  0.00    +0.000 A 
ATOM     13  C   UNL     1      -5.296  11.529  18.821  0.00  0.00    +0.000 A 
ATOM     14  C   UNL     1      -4.122  12.134  19.303  0.00  0.00    +0.000 A 
ATOM     15  C   UNL     1      -4.148  12.816  20.646  0.00  0.00    +0.000 C 
ENDBRANCH   5   8
BRANCH   1  19
ATOM     16  C   UNL     1       2.747   6.691  18.965  0.00  0.00    +0.000 A 
ATOM     17  C   UNL     1       1.978   7.135  20.043  0.00  0.00    +0.000 A 
ATOM     18  C   UNL     1       1.471   8.435  20.030  0.00  0.00    +0.000 A 
ATOM     19  C   UNL     1       1.681   9.274  18.924  0.00  0.00    +0.000 A 
ATOM     20  C   UNL     1       2.439   8.815  17.846  0.00  0.00    +0.000 A 
ATOM     21  C   UNL     1       2.980   7.537  17.878  0.00  0.00    +0.000 A 
ATOM     22  F   UNL     1       3.667   7.118  16.805  0.00  0.00    +0.000 F 
BRANCH  16  26
ATOM     23  C   UNL     1       3.494   1.799  18.381  0.00  0.00    +0.000 C 
ATOM     24  C   UNL     1       3.606   3.236  18.723  0.00  0.00    +0.000 A 
ATOM     25  C   UNL     1       2.671   4.233  18.574  0.00  0.00    +0.000 A 
ATOM     26  N   UNL     1       3.295   5.394  18.971  0.00  0.00    +0.000 N 
ATOM     27  C   UNL     1       4.554   5.027  19.382  0.00  0.00    +0.000 A 
ATOM     28  N   UNL     1       4.768   3.738  19.248  0.00  0.00    +0.000 NA
ENDBRANCH  16  26
ENDBRANCH   1  19
TORSDOF 3
ENDMDL
MODEL 9
REMARK VINA RESULT:      -7.6      3.566      9.900
REMARK  Name = 
REMARK  5 active torsions:
REMARK  status: ('A' for Active; 'I' for Inactive)
REMARK    1  A    between atoms: C_1  and  C_2
REMARK    2  A    between atoms: N_4  and  C_5
REMARK    3  A    between atoms: C_8  and  C_9
REMARK    4  A    between atoms: N_13  and  C_14
REMARK    5  A    between atoms: C_20  and  C_21
REMARK                            x       y       z     vdW  Elec       q    Type
REMARK                         _______ _______ _______ _____ _____    ______ ____
ROOT
ATOM      1  C   UNL     1       0.415  11.316  19.288  0.00  0.00    +0.000 A 
ATOM      2  C   UNL     1       1.098  12.491  19.057  0.00  0.00    +0.000 A 
ATOM      3  S   UNL     1       0.076  13.831  19.344  0.00  0.00    +0.000 S 
ATOM      4  C   UNL     1      -1.216  12.756  19.740  0.00  0.00    +0.000 A 
ATOM      5  N   UNL     1      -2.409  13.254  20.111  0.00  0.00    +0.000 N 
ATOM      6  N   UNL     1      -0.899  11.477  19.681  0.00  0.00    +0.000 NA
ATOM      7  H   UNL     1      -2.453  14.227  20.399  0.00  0.00    +0.000 HD
ENDROOT
BRANCH   5   8
ATOM      8  C   UNL     1      -3.662  12.662  19.873  0.00  0.00    +0.000 A 
ATOM      9  C   UNL     1      -3.943  12.005  18.664  0.00  0.00    +0.000 A 
ATOM     10  C   UNL     1      -5.173  11.387  18.462  0.00  0.00    +0.000 A 
ATOM     11  F   UNL     1      -5.421  10.783  17.293  0.00  0.00    +0.000 F 
ATOM     12  C   UNL     1      -6.144  11.397  19.448  0.00  0.00    +0.000 A 
ATOM     13  C   UNL     1      -5.888  12.039  20.659  0.00  0.00    +0.000 A 
ATOM     14  C   UNL     1      -4.655  12.678  20.880  0.00  0.00    +0.000 A 
ATOM     15  C   UNL     1      -4.418  13.378  22.193  0.00  0.00    +0.000 C 
ENDBRANCH   5   8
BRANCH   1  19
ATOM     16  C   UNL     1       2.212   7.485  18.919  0.00  0.00    +0.000 A 
ATOM     17  C   UNL     1       2.256   8.372  17.840  0.00  0.00    +0.000 A 
ATOM     18  C   UNL     1       1.634   9.617  17.954  0.00  0.00    +0.000 A 
ATOM     19  C   UNL     1       1.019  10.002  19.157  0.00  0.00    +0.000 A 
ATOM     20  C   UNL     1       0.995   9.114  20.232  0.00  0.00    +0.000 A 
ATOM     21  C   UNL     1       1.574   7.858  20.105  0.00  0.00    +0.000 A 
ATOM     22  F   UNL     1       1.568   7.050  21.174  0.00  0.00    +0.000 F 
BRANCH  16  26
ATOM     23  C   UNL     1       3.218   2.746  17.753  0.00  0.00    +0.000 C 
ATOM     24  C   UNL     1       3.228   4.120  18.308  0.00  0.00    +0.000 A 
ATOM     25  C   UNL     1       2.283   5.110  18.176  0.00  0.00    +0.000 A 
ATOM     26  N   UNL     1       2.805   6.212  18.814  0.00  0.00    +0.000 N 
ATOM     27  C   UNL     1       4.012   5.813  19.335  0.00  0.00    +0.000 A 
ATOM     28  N   UNL     1       4.291   4.562  19.050  0.00  0.00    +0.000 NA
ENDBRANCH  16  26
ENDBRANCH   1  19
TORSDOF 3
ENDMDL
