MODEL 1
REMARK VINA RESULT:      -7.1      0.000      0.000
REMARK  Name = 
REMARK  3 active torsions:
REMARK  status: ('A' for Active; 'I' for Inactive)
REMARK    1  A    between atoms: C_1  and  N_2
REMARK    2  A    between atoms: N_2  and  C_3
REMARK    3  A    between atoms: C_11  and  N_12
REMARK                            x       y       z     vdW  Elec       q    Type
REMARK                         _______ _______ _______ _____ _____    ______ ____
ROOT
ATOM      1  C   UNL     1       7.575   7.568  17.762  0.00  0.00    +0.000 A 
ATOM      2  C   UNL     1       8.188   6.782  18.735  0.00  0.00    +0.000 A 
ATOM      3  C   UNL     1       7.575   5.610  19.217  0.00  0.00    +0.000 A 
ATOM      4  C   UNL     1       6.325   5.196  18.785  0.00  0.00    +0.000 A 
ATOM      5  N   UNL     1       5.792   4.093  19.366  0.00  0.00    +0.000 NA
ATOM      6  C   UNL     1       4.539   3.661  19.101  0.00  0.00    +0.000 A 
ATOM      7  C   UNL     1       4.047   2.607  19.854  0.00  0.00    +0.000 A 
ATOM      8  C   UNL     1       2.738   2.115  19.698  0.00  0.00    +0.000 A 
ATOM      9  C   UNL     1       1.889   2.645  18.732  0.00  0.00    +0.000 A 
ATOM     10  C   UNL     1       2.343   3.726  17.988  0.00  0.00    +0.000 A 
ATOM     11  C   UNL     1       3.651   4.212  18.154  0.00  0.00    +0.000 A 
ATOM     12  S   UNL     1       4.118   5.586  17.116  0.00  0.00    +0.000 S 
ATOM     13  C   UNL     1       5.713   5.999  17.805  0.00  0.00    +0.000 A 
ATOM     14  C   UNL     1       6.315   7.169  17.322  0.00  0.00    +0.000 A 
ENDROOT
BRANCH   1  16
ATOM     15  C   UNL     1       8.623   9.713  18.303  0.00  0.00    +0.000 C 
ATOM     16  N   UNL     1       8.073   8.797  17.315  0.00  0.00    +0.000 N 
ATOM     17  H   UNL     1       8.761   8.664  16.573  0.00  0.00    +0.000 HD
ENDBRANCH   1  16
BRANCH   9  18
ATOM     18  N   UNL     1       0.543   2.273  18.667  0.00  0.00    +0.000 N 
ATOM     19  H   UNL     1       0.386   1.359  18.255  0.00  0.00    +0.000 HD
ATOM     20  H   UNL     1      -0.060   2.986  18.265  0.00  0.00    +0.000 HD
ENDBRANCH   9  18
TORSDOF 2
ENDMDL
MODEL 2
REMARK VINA RESULT:      -6.7      3.097      4.081
REMARK  Name = 
REMARK  3 active torsions:
REMARK  status: ('A' for Active; 'I' for Inactive)
REMARK    1  A    between atoms: C_1  and  N_2
REMARK    2  A    between atoms: N_2  and  C_3
REMARK    3  A    between atoms: C_11  and  N_12
REMARK                            x       y       z     vdW  Elec       q    Type
REMARK                         _______ _______ _______ _____ _____    ______ ____
ROOT
ATOM      1  C   UNL     1       5.934   4.259  14.738  0.00  0.00    +0.000 A 
ATOM      2  C   UNL     1       5.697   5.613  14.967  0.00  0.00    +0.000 A 
ATOM      3  C   UNL     1       5.040   6.051  16.132  0.00  0.00    +0.000 A 
ATOM      4  C   UNL     1       4.561   5.170  17.089  0.00  0.00    +0.000 A 
ATOM      5  N   UNL     1       3.878   5.690  18.138  0.00  0.00    +0.000 NA
ATOM      6  C   UNL     1       3.276   4.920  19.072  0.00  0.00    +0.000 A 
ATOM      7  C   UNL     1       2.488   5.552  20.019  0.00  0.00    +0.000 A 
ATOM      8  C   UNL     1       1.774   4.842  21.002  0.00  0.00    +0.000 A 
ATOM      9  C   UNL     1       1.872   3.458  21.092  0.00  0.00    +0.000 A 
ATOM     10  C   UNL     1       2.625   2.794  20.132  0.00  0.00    +0.000 A 
ATOM     11  C   UNL     1       3.331   3.513  19.152  0.00  0.00    +0.000 A 
ATOM     12  S   UNL     1       4.284   2.542  17.998  0.00  0.00    +0.000 S 
ATOM     13  C   UNL     1       4.803   3.805  16.847  0.00  0.00    +0.000 A 
ATOM     14  C   UNL     1       5.454   3.360  15.688  0.00  0.00    +0.000 A 
ENDROOT
BRANCH   1  16
ATOM     15  C   UNL     1       5.578   3.409  12.471  0.00  0.00    +0.000 C 
ATOM     16  N   UNL     1       6.484   3.745  13.559  0.00  0.00    +0.000 N 
ATOM     17  H   UNL     1       7.215   4.360  13.198  0.00  0.00    +0.000 HD
ENDBRANCH   1  16
BRANCH   9  18
ATOM     18  N   UNL     1       1.054   2.728  21.960  0.00  0.00    +0.000 N 
ATOM     19  H   UNL     1       0.493   3.302  22.579  0.00  0.00    +0.000 HD
ATOM     20  H   UNL     1       1.543   1.988  22.458  0.00  0.00    +0.000 HD
ENDBRANCH   9  18
TORSDOF 2
ENDMDL
MODEL 3
REMARK VINA RESULT:      -6.6      1.899      2.450
REMARK  Name = 
REMARK  3 active torsions:
REMARK  status: ('A' for Active; 'I' for Inactive)
REMARK    1  A    between atoms: C_1  and  N_2
REMARK    2  A    between atoms: N_2  and  C_3
REMARK    3  A    between atoms: C_11  and  N_12
REMARK                            x       y       z     vdW  Elec       q    Type
REMARK                         _______ _______ _______ _____ _____    ______ ____
ROOT
ATOM      1  C   UNL     1       6.755   6.175  16.727  0.00  0.00    +0.000 A 
ATOM      2  C   UNL     1       6.469   5.144  15.834  0.00  0.00    +0.000 A 
ATOM      3  C   UNL     1       5.430   4.228  16.089  0.00  0.00    +0.000 A 
ATOM      4  C   UNL     1       4.668   4.274  17.246  0.00  0.00    +0.000 A 
ATOM      5  N   UNL     1       3.742   3.301  17.429  0.00  0.00    +0.000 NA
ATOM      6  C   UNL     1       3.019   3.185  18.565  0.00  0.00    +0.000 A 
ATOM      7  C   UNL     1       2.203   2.073  18.700  0.00  0.00    +0.000 A 
ATOM      8  C   UNL     1       1.451   1.827  19.862  0.00  0.00    +0.000 A 
ATOM      9  C   UNL     1       1.458   2.730  20.920  0.00  0.00    +0.000 A 
ATOM     10  C   UNL     1       2.295   3.834  20.827  0.00  0.00    +0.000 A 
ATOM     11  C   UNL     1       3.046   4.069  19.663  0.00  0.00    +0.000 A 
ATOM     12  S   UNL     1       4.057   5.539  19.661  0.00  0.00    +0.000 S 
ATOM     13  C   UNL     1       4.968   5.316  18.142  0.00  0.00    +0.000 A 
ATOM     14  C   UNL     1       6.002   6.231  17.897  0.00  0.00    +0.000 A 
ENDROOT
BRANCH   1  16
ATOM     15  C   UNL     1       7.929   8.170  17.521  0.00  0.00    +0.000 C 
ATOM     16  N   UNL     1       7.835   7.054  16.592  0.00  0.00    +0.000 N 
ATOM     17  H   UNL     1       8.721   6.548  16.598  0.00  0.00    +0.000 HD
ENDBRANCH   1  16
BRANCH   9  18
ATOM     18  N   UNL     1       0.839   2.427  22.137  0.00  0.00    +0.000 N 
ATOM     19  H   UNL     1       0.284   1.578  22.118  0.00  0.00    +0.000 HD
ATOM     20  H   UNL     1       0.333   3.209  22.545  0.00  0.00    +0.000 HD
ENDBRANCH   9  18
TORSDOF 2
ENDMDL
MODEL 4
REMARK VINA RESULT:      -6.4      4.035      4.609
REMARK  Name = 
REMARK  3 active torsions:
REMARK  status: ('A' for Active; 'I' for Inactive)
REMARK    1  A    between atoms: C_1  and  N_2
REMARK    2  A    between atoms: N_2  and  C_3
REMARK    3  A    between atoms: C_11  and  N_12
REMARK                            x       y       z     vdW  Elec       q    Type
REMARK                         _______ _______ _______ _____ _____    ______ ____
ROOT
ATOM      1  C   UNL     1       1.560   9.466  18.744  0.00  0.00    +0.000 A 
ATOM      2  C   UNL     1       1.076   9.191  20.021  0.00  0.00    +0.000 A 
ATOM      3  C   UNL     1       1.321   7.951  20.642  0.00  0.00    +0.000 A 
ATOM      4  C   UNL     1       2.015   6.930  20.011  0.00  0.00    +0.000 A 
ATOM      5  N   UNL     1       2.133   5.750  20.668  0.00  0.00    +0.000 NA
ATOM      6  C   UNL     1       2.694   4.656  20.107  0.00  0.00    +0.000 A 
ATOM      7  C   UNL     1       2.635   3.466  20.816  0.00  0.00    +0.000 A 
ATOM      8  C   UNL     1       3.139   2.257  20.302  0.00  0.00    +0.000 A 
ATOM      9  C   UNL     1       3.769   2.218  19.063  0.00  0.00    +0.000 A 
ATOM     10  C   UNL     1       3.809   3.387  18.315  0.00  0.00    +0.000 A 
ATOM     11  C   UNL     1       3.300   4.589  18.835  0.00  0.00    +0.000 A 
ATOM     12  S   UNL     1       3.440   6.024  17.785  0.00  0.00    +0.000 S 
ATOM     13  C   UNL     1       2.496   7.217  18.720  0.00  0.00    +0.000 A 
ATOM     14  C   UNL     1       2.254   8.448  18.094  0.00  0.00    +0.000 A 
ENDROOT
BRANCH   1  16
ATOM     15  C   UNL     1       1.134  11.876  18.766  0.00  0.00    +0.000 C 
ATOM     16  N   UNL     1       1.267  10.630  18.025  0.00  0.00    +0.000 N 
ATOM     17  H   UNL     1       1.936  10.769  17.267  0.00  0.00    +0.000 HD
ENDBRANCH   1  16
BRANCH   9  18
ATOM     18  N   UNL     1       4.137   1.004  18.474  0.00  0.00    +0.000 N 
ATOM     19  H   UNL     1       4.846   1.092  17.754  0.00  0.00    +0.000 HD
ATOM     20  H   UNL     1       3.347   0.440  18.171  0.00  0.00    +0.000 HD
ENDBRANCH   9  18
TORSDOF 2
ENDMDL
MODEL 5
REMARK VINA RESULT:      -6.2      3.159      5.817
REMARK  Name = 
REMARK  3 active torsions:
REMARK  status: ('A' for Active; 'I' for Inactive)
REMARK    1  A    between atoms: C_1  and  N_2
REMARK    2  A    between atoms: N_2  and  C_3
REMARK    3  A    between atoms: C_11  and  N_12
REMARK                            x       y       z     vdW  Elec       q    Type
REMARK                         _______ _______ _______ _____ _____    ______ ____
ROOT
ATOM      1  C   UNL     1       2.385   5.459  19.943  0.00  0.00    +0.000 A 
ATOM      2  C   UNL     1       1.751   4.451  19.219  0.00  0.00    +0.000 A 
ATOM      3  C   UNL     1       2.340   3.904  18.064  0.00  0.00    +0.000 A 
ATOM      4  C   UNL     1       3.550   4.357  17.562  0.00  0.00    +0.000 A 
ATOM      5  N   UNL     1       3.994   3.814  16.402  0.00  0.00    +0.000 NA
ATOM      6  C   UNL     1       5.103   4.253  15.767  0.00  0.00    +0.000 A 
ATOM      7  C   UNL     1       5.386   3.721  14.520  0.00  0.00    +0.000 A 
ATOM      8  C   UNL     1       6.484   4.146  13.750  0.00  0.00    +0.000 A 
ATOM      9  C   UNL     1       7.371   5.099  14.240  0.00  0.00    +0.000 A 
ATOM     10  C   UNL     1       7.092   5.676  15.472  0.00  0.00    +0.000 A 
ATOM     11  C   UNL     1       5.990   5.247  16.231  0.00  0.00    +0.000 A 
ATOM     12  S   UNL     1       5.761   6.048  17.809  0.00  0.00    +0.000 S 
ATOM     13  C   UNL     1       4.180   5.378  18.298  0.00  0.00    +0.000 A 
ATOM     14  C   UNL     1       3.599   5.930  19.449  0.00  0.00    +0.000 A 
ENDROOT
BRANCH   1  16
ATOM     15  C   UNL     1       1.486   7.531  20.885  0.00  0.00    +0.000 C 
ATOM     16  N   UNL     1       1.814   6.121  21.035  0.00  0.00    +0.000 N 
ATOM     17  H   UNL     1       0.986   5.627  21.370  0.00  0.00    +0.000 HD
ENDBRANCH   1  16
BRANCH   9  18
ATOM     18  N   UNL     1       8.374   5.641  13.431  0.00  0.00    +0.000 N 
ATOM     19  H   UNL     1       9.309   5.545  13.812  0.00  0.00    +0.000 HD
ATOM     20  H   UNL     1       8.181   6.588  13.118  0.00  0.00    +0.000 HD
ENDBRANCH   9  18
TORSDOF 2
ENDMDL
MODEL 6
REMARK VINA RESULT:      -6.1      2.293      2.792
REMARK  Name = 
REMARK  3 active torsions:
REMARK  status: ('A' for Active; 'I' for Inactive)
REMARK    1  A    between atoms: C_1  and  N_2
REMARK    2  A    between atoms: N_2  and  C_3
REMARK    3  A    between atoms: C_11  and  N_12
REMARK                            x       y       z     vdW  Elec       q    Type
REMARK                         _______ _______ _______ _____ _____    ______ ____
ROOT
ATOM      1  C   UNL     1       7.127   5.448  15.767  0.00  0.00    +0.000 A 
ATOM      2  C   UNL     1       7.293   6.376  16.793  0.00  0.00    +0.000 A 
ATOM      3  C   UNL     1       6.479   6.345  17.941  0.00  0.00    +0.000 A 
ATOM      4  C   UNL     1       5.453   5.427  18.099  0.00  0.00    +0.000 A 
ATOM      5  N   UNL     1       4.681   5.529  19.208  0.00  0.00    +0.000 NA
ATOM      6  C   UNL     1       3.590   4.758  19.413  0.00  0.00    +0.000 A 
ATOM      7  C   UNL     1       2.796   5.043  20.512  0.00  0.00    +0.000 A 
ATOM      8  C   UNL     1       1.610   4.339  20.787  0.00  0.00    +0.000 A 
ATOM      9  C   UNL     1       1.207   3.279  19.981  0.00  0.00    +0.000 A 
ATOM     10  C   UNL     1       1.965   2.995  18.852  0.00  0.00    +0.000 A 
ATOM     11  C   UNL     1       3.145   3.708  18.584  0.00  0.00    +0.000 A 
ATOM     12  S   UNL     1       4.041   3.224  17.118  0.00  0.00    +0.000 S 
ATOM     13  C   UNL     1       5.292   4.497  17.055  0.00  0.00    +0.000 A 
ATOM     14  C   UNL     1       6.096   4.522  15.907  0.00  0.00    +0.000 A 
ENDROOT
BRANCH   1  16
ATOM     15  C   UNL     1       7.245   4.792  13.412  0.00  0.00    +0.000 C 
ATOM     16  N   UNL     1       7.825   5.483  14.555  0.00  0.00    +0.000 N 
ATOM     17  H   UNL     1       8.038   6.443  14.284  0.00  0.00    +0.000 HD
ENDBRANCH   1  16
BRANCH   9  18
ATOM     18  N   UNL     1      -0.040   2.671  20.152  0.00  0.00    +0.000 N 
ATOM     19  H   UNL     1      -0.761   3.297  20.494  0.00  0.00    +0.000 HD
ATOM     20  H   UNL     1      -0.004   1.801  20.678  0.00  0.00    +0.000 HD
ENDBRANCH   9  18
TORSDOF 2
ENDMDL
MODEL 7
REMARK VINA RESULT:      -6.1      4.675      5.549
REMARK  Name = 
REMARK  3 active torsions:
REMARK  status: ('A' for Active; 'I' for Inactive)
REMARK    1  A    between atoms: C_1  and  N_2
REMARK    2  A    between atoms: N_2  and  C_3
REMARK    3  A    between atoms: C_11  and  N_12
REMARK                            x       y       z     vdW  Elec       q    Type
REMARK                         _______ _______ _______ _____ _____    ______ ____
ROOT
ATOM      1  C   UNL     1       0.846  10.063  19.858  0.00  0.00    +0.000 A 
ATOM      2  C   UNL     1       1.365  10.300  18.587  0.00  0.00    +0.000 A 
ATOM      3  C   UNL     1       2.061   9.296  17.886  0.00  0.00    +0.000 A 
ATOM      4  C   UNL     1       2.301   8.043  18.429  0.00  0.00    +0.000 A 
ATOM      5  N   UNL     1       3.044   7.174  17.702  0.00  0.00    +0.000 NA
ATOM      6  C   UNL     1       3.430   5.968  18.175  0.00  0.00    +0.000 A 
ATOM      7  C   UNL     1       4.304   5.221  17.402  0.00  0.00    +0.000 A 
ATOM      8  C   UNL     1       4.810   3.978  17.825  0.00  0.00    +0.000 A 
ATOM      9  C   UNL     1       4.409   3.420  19.034  0.00  0.00    +0.000 A 
ATOM     10  C   UNL     1       3.563   4.164  19.846  0.00  0.00    +0.000 A 
ATOM     11  C   UNL     1       3.066   5.406  19.416  0.00  0.00    +0.000 A 
ATOM     12  S   UNL     1       1.965   6.246  20.542  0.00  0.00    +0.000 S 
ATOM     13  C   UNL     1       1.776   7.817  19.715  0.00  0.00    +0.000 A 
ATOM     14  C   UNL     1       1.085   8.812  20.420  0.00  0.00    +0.000 A 
ENDROOT
BRANCH   1  16
ATOM     15  C   UNL     1      -0.331  10.629  21.928  0.00  0.00    +0.000 C 
ATOM     16  N   UNL     1       0.239  11.041  20.654  0.00  0.00    +0.000 N 
ATOM     17  H   UNL     1       0.872  11.825  20.816  0.00  0.00    +0.000 HD
ENDBRANCH   1  16
BRANCH   9  18
ATOM     18  N   UNL     1       5.016   2.265  19.536  0.00  0.00    +0.000 N 
ATOM     19  H   UNL     1       5.688   2.440  20.276  0.00  0.00    +0.000 HD
ATOM     20  H   UNL     1       5.387   1.651  18.816  0.00  0.00    +0.000 HD
ENDBRANCH   9  18
TORSDOF 2
ENDMDL
MODEL 8
REMARK VINA RESULT:      -6.0      4.618      6.211
REMARK  Name = 
REMARK  3 active torsions:
REMARK  status: ('A' for Active; 'I' for Inactive)
REMARK    1  A    between atoms: C_1  and  N_2
REMARK    2  A    between atoms: N_2  and  C_3
REMARK    3  A    between atoms: C_11  and  N_12
REMARK                            x       y       z     vdW  Elec       q    Type
REMARK                         _______ _______ _______ _____ _____    ______ ____
ROOT
ATOM      1  C   UNL     1       0.498   8.775  21.033  0.00  0.00    +0.000 A 
ATOM      2  C   UNL     1       0.591   9.656  19.957  0.00  0.00    +0.000 A 
ATOM      3  C   UNL     1       1.390   9.356  18.838  0.00  0.00    +0.000 A 
ATOM      4  C   UNL     1       2.151   8.200  18.757  0.00  0.00    +0.000 A 
ATOM      5  N   UNL     1       2.941   8.041  17.668  0.00  0.00    +0.000 NA
ATOM      6  C   UNL     1       3.803   7.009  17.535  0.00  0.00    +0.000 A 
ATOM      7  C   UNL     1       4.662   7.021  16.448  0.00  0.00    +0.000 A 
ATOM      8  C   UNL     1       5.634   6.024  16.244  0.00  0.00    +0.000 A 
ATOM      9  C   UNL     1       5.740   4.944  17.114  0.00  0.00    +0.000 A 
ATOM     10  C   UNL     1       4.916   4.925  18.232  0.00  0.00    +0.000 A 
ATOM     11  C   UNL     1       3.952   5.927  18.428  0.00  0.00    +0.000 A 
ATOM     12  S   UNL     1       2.938   5.770  19.889  0.00  0.00    +0.000 S 
ATOM     13  C   UNL     1       2.052   7.319  19.850  0.00  0.00    +0.000 A 
ATOM     14  C   UNL     1       1.261   7.611  20.970  0.00  0.00    +0.000 A 
ENDROOT
BRANCH   1  16
ATOM     15  C   UNL     1      -0.427  10.447  22.562  0.00  0.00    +0.000 C 
ATOM     16  N   UNL     1      -0.188   9.053  22.220  0.00  0.00    +0.000 N 
ATOM     17  H   UNL     1      -1.076   8.551  22.255  0.00  0.00    +0.000 HD
ENDBRANCH   1  16
BRANCH   9  18
ATOM     18  N   UNL     1       6.794   4.031  17.012  0.00  0.00    +0.000 N 
ATOM     19  H   UNL     1       7.525   4.314  16.368  0.00  0.00    +0.000 HD
ATOM     20  H   UNL     1       6.492   3.073  16.855  0.00  0.00    +0.000 HD
ENDBRANCH   9  18
TORSDOF 2
ENDMDL
MODEL 9
REMARK VINA RESULT:      -6.0      4.986      5.540
REMARK  Name = 
REMARK  3 active torsions:
REMARK  status: ('A' for Active; 'I' for Inactive)
REMARK    1  A    between atoms: C_1  and  N_2
REMARK    2  A    between atoms: N_2  and  C_3
REMARK    3  A    between atoms: C_11  and  N_12
REMARK                            x       y       z     vdW  Elec       q    Type
REMARK                         _______ _______ _______ _____ _____    ______ ____
ROOT
ATOM      1  C   UNL     1       0.842  10.673  18.928  0.00  0.00    +0.000 A 
ATOM      2  C   UNL     1       0.343  10.317  20.180  0.00  0.00    +0.000 A 
ATOM      3  C   UNL     1       0.661   9.075  20.763  0.00  0.00    +0.000 A 
ATOM      4  C   UNL     1       1.445   8.131  20.118  0.00  0.00    +0.000 A 
ATOM      5  N   UNL     1       1.631   6.939  20.736  0.00  0.00    +0.000 NA
ATOM      6  C   UNL     1       2.285   5.909  20.154  0.00  0.00    +0.000 A 
ATOM      7  C   UNL     1       2.294   4.693  20.818  0.00  0.00    +0.000 A 
ATOM      8  C   UNL     1       2.899   3.544  20.278  0.00  0.00    +0.000 A 
ATOM      9  C   UNL     1       3.565   3.597  19.058  0.00  0.00    +0.000 A 
ATOM     10  C   UNL     1       3.541   4.793  18.354  0.00  0.00    +0.000 A 
ATOM     11  C   UNL     1       2.930   5.934  18.901  0.00  0.00    +0.000 A 
ATOM     12  S   UNL     1       2.995   7.415  17.907  0.00  0.00    +0.000 S 
ATOM     13  C   UNL     1       1.940   8.500  18.854  0.00  0.00    +0.000 A 
ATOM     14  C   UNL     1       1.627   9.733  18.264  0.00  0.00    +0.000 A 
ENDROOT
BRANCH   1  16
ATOM     15  C   UNL     1      -0.841  12.391  18.476  0.00  0.00    +0.000 C 
ATOM     16  N   UNL     1       0.485  11.839  18.243  0.00  0.00    +0.000 N 
ATOM     17  H   UNL     1       1.176  12.576  18.390  0.00  0.00    +0.000 HD
ENDBRANCH   1  16
BRANCH   9  18
ATOM     18  N   UNL     1       4.037   2.435  18.439  0.00  0.00    +0.000 N 
ATOM     19  H   UNL     1       4.727   2.605  17.714  0.00  0.00    +0.000 HD
ATOM     20  H   UNL     1       3.300   1.807  18.130  0.00  0.00    +0.000 HD
ENDBRANCH   9  18
TORSDOF 2
ENDMDL
