MODEL 1
REMARK VINA RESULT:      -7.4      0.000      0.000
REMARK  Name = 
REMARK  1 active torsions:
REMARK  status: ('A' for Active; 'I' for Inactive)
REMARK    1  A    between atoms: C_1  and  C_2
REMARK                            x       y       z     vdW  Elec       q    Type
REMARK                         _______ _______ _______ _____ _____    ______ ____
ROOT
ATOM      1  C   UNL     1       5.899   3.680  15.286  0.00  0.00    +0.000 C 
ATOM      2  C   UNL     1       5.161   4.687  16.118  0.00  0.00    +0.000 A 
ATOM      3  C   UNL     1       5.381   6.066  15.938  0.00  0.00    +0.000 A 
ATOM      4  C   UNL     1       4.706   7.018  16.700  0.00  0.00    +0.000 A 
ATOM      5  C   UNL     1       3.788   6.619  17.669  0.00  0.00    +0.000 A 
ATOM      6  F   UNL     1       3.152   7.556  18.389  0.00  0.00    +0.000 F 
ATOM      7  C   UNL     1       3.534   5.253  17.886  0.00  0.00    +0.000 A 
ATOM      8  C   UNL     1       4.226   4.323  17.106  0.00  0.00    +0.000 A 
ATOM      9  N   UNL     1       3.802   3.076  17.511  0.00  0.00    +0.000 N 
ATOM     10  C   UNL     1       2.870   3.168  18.515  0.00  0.00    +0.000 A 
ATOM     11  C   UNL     1       2.187   2.159  19.206  0.00  0.00    +0.000 A 
ATOM     12  C   UNL     1       1.281   2.553  20.194  0.00  0.00    +0.000 A 
ATOM     13  C   UNL     1       1.068   3.900  20.478  0.00  0.00    +0.000 A 
ATOM     14  C   UNL     1       1.760   4.894  19.776  0.00  0.00    +0.000 A 
ATOM     15  C   UNL     1       2.681   4.524  18.774  0.00  0.00    +0.000 A 
ATOM     16  H   UNL     1       4.133   2.207  17.119  0.00  0.00    +0.000 HD
ENDROOT
TORSDOF 0
ENDMDL
MODEL 2
REMARK VINA RESULT:      -7.4      1.410      1.423
REMARK  Name = 
REMARK  1 active torsions:
REMARK  status: ('A' for Active; 'I' for Inactive)
REMARK    1  A    between atoms: C_1  and  C_2
REMARK                            x       y       z     vdW  Elec       q    Type
REMARK                         _______ _______ _______ _____ _____    ______ ____
ROOT
ATOM      1  C   UNL     1       7.502   4.491  17.405  0.00  0.00    +0.000 C 
ATOM      2  C   UNL     1       6.167   5.163  17.528  0.00  0.00    +0.000 A 
ATOM      3  C   UNL     1       5.886   6.337  16.803  0.00  0.00    +0.000 A 
ATOM      4  C   UNL     1       4.652   6.978  16.902  0.00  0.00    +0.000 A 
ATOM      5  C   UNL     1       3.658   6.463  17.732  0.00  0.00    +0.000 A 
ATOM      6  F   UNL     1       2.480   7.100  17.809  0.00  0.00    +0.000 F 
ATOM      7  C   UNL     1       3.892   5.294  18.477  0.00  0.00    +0.000 A 
ATOM      8  C   UNL     1       5.138   4.674  18.356  0.00  0.00    +0.000 A 
ATOM      9  N   UNL     1       5.109   3.567  19.175  0.00  0.00    +0.000 N 
ATOM     10  C   UNL     1       3.899   3.451  19.815  0.00  0.00    +0.000 A 
ATOM     11  C   UNL     1       3.449   2.486  20.724  0.00  0.00    +0.000 A 
ATOM     12  C   UNL     1       2.149   2.623  21.220  0.00  0.00    +0.000 A 
ATOM     13  C   UNL     1       1.336   3.682  20.823  0.00  0.00    +0.000 A 
ATOM     14  C   UNL     1       1.805   4.637  19.913  0.00  0.00    +0.000 A 
ATOM     15  C   UNL     1       3.112   4.523  19.397  0.00  0.00    +0.000 A 
ATOM     16  H   UNL     1       5.877   2.923  19.290  0.00  0.00    +0.000 HD
ENDROOT
TORSDOF 0
ENDMDL
MODEL 3
REMARK VINA RESULT:      -7.3      2.931      5.742
REMARK  Name = 
REMARK  1 active torsions:
REMARK  status: ('A' for Active; 'I' for Inactive)
REMARK    1  A    between atoms: C_1  and  C_2
REMARK                            x       y       z     vdW  Elec       q    Type
REMARK                         _______ _______ _______ _____ _____    ______ ____
ROOT
ATOM      1  C   UNL     1       7.833   6.458  18.565  0.00  0.00    +0.000 C 
ATOM      2  C   UNL     1       6.705   5.657  17.985  0.00  0.00    +0.000 A 
ATOM      3  C   UNL     1       5.622   5.256  18.789  0.00  0.00    +0.000 A 
ATOM      4  C   UNL     1       4.563   4.511  18.271  0.00  0.00    +0.000 A 
ATOM      5  C   UNL     1       4.557   4.143  16.927  0.00  0.00    +0.000 A 
ATOM      6  F   UNL     1       3.526   3.426  16.454  0.00  0.00    +0.000 F 
ATOM      7  C   UNL     1       5.616   4.520  16.083  0.00  0.00    +0.000 A 
ATOM      8  C   UNL     1       6.662   5.266  16.632  0.00  0.00    +0.000 A 
ATOM      9  N   UNL     1       7.557   5.500  15.611  0.00  0.00    +0.000 N 
ATOM     10  C   UNL     1       7.130   4.937  14.434  0.00  0.00    +0.000 A 
ATOM     11  C   UNL     1       7.727   4.935  13.167  0.00  0.00    +0.000 A 
ATOM     12  C   UNL     1       7.053   4.271  12.137  0.00  0.00    +0.000 A 
ATOM     13  C   UNL     1       5.835   3.637  12.368  0.00  0.00    +0.000 A 
ATOM     14  C   UNL     1       5.255   3.650  13.642  0.00  0.00    +0.000 A 
ATOM     15  C   UNL     1       5.913   4.313  14.699  0.00  0.00    +0.000 A 
ATOM     16  H   UNL     1       8.415   6.020  15.715  0.00  0.00    +0.000 HD
ENDROOT
TORSDOF 0
ENDMDL
MODEL 4
REMARK VINA RESULT:      -7.2      2.353      2.909
REMARK  Name = 
REMARK  1 active torsions:
REMARK  status: ('A' for Active; 'I' for Inactive)
REMARK    1  A    between atoms: C_1  and  C_2
REMARK                            x       y       z     vdW  Elec       q    Type
REMARK                         _______ _______ _______ _____ _____    ______ ____
ROOT
ATOM      1  C   UNL     1       7.868   5.836  19.314  0.00  0.00    +0.000 C 
ATOM      2  C   UNL     1       6.981   5.298  18.230  0.00  0.00    +0.000 A 
ATOM      3  C   UNL     1       7.476   5.103  16.927  0.00  0.00    +0.000 A 
ATOM      4  C   UNL     1       6.670   4.605  15.906  0.00  0.00    +0.000 A 
ATOM      5  C   UNL     1       5.337   4.285  16.157  0.00  0.00    +0.000 A 
ATOM      6  F   UNL     1       4.582   3.807  15.156  0.00  0.00    +0.000 F 
ATOM      7  C   UNL     1       4.795   4.463  17.442  0.00  0.00    +0.000 A 
ATOM      8  C   UNL     1       5.629   4.964  18.445  0.00  0.00    +0.000 A 
ATOM      9  N   UNL     1       4.867   5.041  19.590  0.00  0.00    +0.000 N 
ATOM     10  C   UNL     1       3.582   4.611  19.364  0.00  0.00    +0.000 A 
ATOM     11  C   UNL     1       2.493   4.524  20.240  0.00  0.00    +0.000 A 
ATOM     12  C   UNL     1       1.286   4.042  19.724  0.00  0.00    +0.000 A 
ATOM     13  C   UNL     1       1.176   3.664  18.388  0.00  0.00    +0.000 A 
ATOM     14  C   UNL     1       2.276   3.759  17.528  0.00  0.00    +0.000 A 
ATOM     15  C   UNL     1       3.505   4.242  18.022  0.00  0.00    +0.000 A 
ATOM     16  H   UNL     1       5.208   5.370  20.480  0.00  0.00    +0.000 HD
ENDROOT
TORSDOF 0
ENDMDL
MODEL 5
REMARK VINA RESULT:      -7.2      1.913      5.200
REMARK  Name = 
REMARK  1 active torsions:
REMARK  status: ('A' for Active; 'I' for Inactive)
REMARK    1  A    between atoms: C_1  and  C_2
REMARK                            x       y       z     vdW  Elec       q    Type
REMARK                         _______ _______ _______ _____ _____    ______ ____
ROOT
ATOM      1  C   UNL     1       1.415   6.256  20.846  0.00  0.00    +0.000 C 
ATOM      2  C   UNL     1       1.818   5.041  20.064  0.00  0.00    +0.000 A 
ATOM      3  C   UNL     1       1.313   3.770  20.401  0.00  0.00    +0.000 A 
ATOM      4  C   UNL     1       1.675   2.628  19.688  0.00  0.00    +0.000 A 
ATOM      5  C   UNL     1       2.556   2.723  18.612  0.00  0.00    +0.000 A 
ATOM      6  F   UNL     1       2.887   1.608  17.943  0.00  0.00    +0.000 F 
ATOM      7  C   UNL     1       3.087   3.969  18.237  0.00  0.00    +0.000 A 
ATOM      8  C   UNL     1       2.706   5.095  18.971  0.00  0.00    +0.000 A 
ATOM      9  N   UNL     1       3.356   6.171  18.409  0.00  0.00    +0.000 N 
ATOM     10  C   UNL     1       4.136   5.784  17.348  0.00  0.00    +0.000 A 
ATOM     11  C   UNL     1       4.954   6.546  16.505  0.00  0.00    +0.000 A 
ATOM     12  C   UNL     1       5.643   5.872  15.492  0.00  0.00    +0.000 A 
ATOM     13  C   UNL     1       5.519   4.494  15.332  0.00  0.00    +0.000 A 
ATOM     14  C   UNL     1       4.696   3.750  16.185  0.00  0.00    +0.000 A 
ATOM     15  C   UNL     1       3.989   4.404  17.215  0.00  0.00    +0.000 A 
ATOM     16  H   UNL     1       3.269   7.122  18.734  0.00  0.00    +0.000 HD
ENDROOT
TORSDOF 0
ENDMDL
MODEL 6
REMARK VINA RESULT:      -7.1      1.810      1.991
REMARK  Name = 
REMARK  1 active torsions:
REMARK  status: ('A' for Active; 'I' for Inactive)
REMARK    1  A    between atoms: C_1  and  C_2
REMARK                            x       y       z     vdW  Elec       q    Type
REMARK                         _______ _______ _______ _____ _____    ______ ____
ROOT
ATOM      1  C   UNL     1       5.679   3.998  14.424  0.00  0.00    +0.000 C 
ATOM      2  C   UNL     1       5.869   4.396  15.857  0.00  0.00    +0.000 A 
ATOM      3  C   UNL     1       7.113   4.875  16.310  0.00  0.00    +0.000 A 
ATOM      4  C   UNL     1       7.312   5.250  17.638  0.00  0.00    +0.000 A 
ATOM      5  C   UNL     1       6.269   5.157  18.557  0.00  0.00    +0.000 A 
ATOM      6  F   UNL     1       6.487   5.524  19.829  0.00  0.00    +0.000 F 
ATOM      7  C   UNL     1       5.008   4.683  18.153  0.00  0.00    +0.000 A 
ATOM      8  C   UNL     1       4.840   4.315  16.816  0.00  0.00    +0.000 A 
ATOM      9  N   UNL     1       3.535   3.894  16.684  0.00  0.00    +0.000 N 
ATOM     10  C   UNL     1       2.861   3.976  17.878  0.00  0.00    +0.000 A 
ATOM     11  C   UNL     1       1.535   3.652  18.188  0.00  0.00    +0.000 A 
ATOM     12  C   UNL     1       1.116   3.841  19.508  0.00  0.00    +0.000 A 
ATOM     13  C   UNL     1       1.989   4.331  20.476  0.00  0.00    +0.000 A 
ATOM     14  C   UNL     1       3.312   4.648  20.146  0.00  0.00    +0.000 A 
ATOM     15  C   UNL     1       3.761   4.468  18.821  0.00  0.00    +0.000 A 
ATOM     16  H   UNL     1       3.127   3.568  15.821  0.00  0.00    +0.000 HD
ENDROOT
TORSDOF 0
ENDMDL
MODEL 7
REMARK VINA RESULT:      -7.1      0.840      4.452
REMARK  Name = 
REMARK  1 active torsions:
REMARK  status: ('A' for Active; 'I' for Inactive)
REMARK    1  A    between atoms: C_1  and  C_2
REMARK                            x       y       z     vdW  Elec       q    Type
REMARK                         _______ _______ _______ _____ _____    ______ ____
ROOT
ATOM      1  C   UNL     1       1.407   1.830  19.357  0.00  0.00    +0.000 C 
ATOM      2  C   UNL     1       1.755   3.285  19.462  0.00  0.00    +0.000 A 
ATOM      3  C   UNL     1       1.173   4.092  20.458  0.00  0.00    +0.000 A 
ATOM      4  C   UNL     1       1.482   5.446  20.574  0.00  0.00    +0.000 A 
ATOM      5  C   UNL     1       2.387   6.037  19.694  0.00  0.00    +0.000 A 
ATOM      6  F   UNL     1       2.667   7.342  19.828  0.00  0.00    +0.000 F 
ATOM      7  C   UNL     1       2.995   5.273  18.682  0.00  0.00    +0.000 A 
ATOM      8  C   UNL     1       2.665   3.918  18.592  0.00  0.00    +0.000 A 
ATOM      9  N   UNL     1       3.386   3.406  17.536  0.00  0.00    +0.000 N 
ATOM     10  C   UNL     1       4.162   4.373  16.947  0.00  0.00    +0.000 A 
ATOM     11  C   UNL     1       5.038   4.286  15.857  0.00  0.00    +0.000 A 
ATOM     12  C   UNL     1       5.706   5.452  15.471  0.00  0.00    +0.000 A 
ATOM     13  C   UNL     1       5.505   6.653  16.147  0.00  0.00    +0.000 A 
ATOM     14  C   UNL     1       4.625   6.719  17.234  0.00  0.00    +0.000 A 
ATOM     15  C   UNL     1       3.938   5.558  17.645  0.00  0.00    +0.000 A 
ATOM     16  H   UNL     1       3.348   2.444  17.235  0.00  0.00    +0.000 HD
ENDROOT
TORSDOF 0
ENDMDL
MODEL 8
REMARK VINA RESULT:      -7.0      1.765      4.444
REMARK  Name = 
REMARK  1 active torsions:
REMARK  status: ('A' for Active; 'I' for Inactive)
REMARK    1  A    between atoms: C_1  and  C_2
REMARK                            x       y       z     vdW  Elec       q    Type
REMARK                         _______ _______ _______ _____ _____    ______ ____
ROOT
ATOM      1  C   UNL     1       3.715   1.105  18.820  0.00  0.00    +0.000 C 
ATOM      2  C   UNL     1       3.279   2.501  18.486  0.00  0.00    +0.000 A 
ATOM      3  C   UNL     1       1.912   2.820  18.380  0.00  0.00    +0.000 A 
ATOM      4  C   UNL     1       1.485   4.110  18.071  0.00  0.00    +0.000 A 
ATOM      5  C   UNL     1       2.416   5.125  17.859  0.00  0.00    +0.000 A 
ATOM      6  F   UNL     1       1.978   6.358  17.563  0.00  0.00    +0.000 F 
ATOM      7  C   UNL     1       3.793   4.857  17.954  0.00  0.00    +0.000 A 
ATOM      8  C   UNL     1       4.189   3.553  18.265  0.00  0.00    +0.000 A 
ATOM      9  N   UNL     1       5.566   3.557  18.297  0.00  0.00    +0.000 N 
ATOM     10  C   UNL     1       6.068   4.805  18.020  0.00  0.00    +0.000 A 
ATOM     11  C   UNL     1       7.395   5.248  17.950  0.00  0.00    +0.000 A 
ATOM     12  C   UNL     1       7.611   6.595  17.644  0.00  0.00    +0.000 A 
ATOM     13  C   UNL     1       6.543   7.460  17.417  0.00  0.00    +0.000 A 
ATOM     14  C   UNL     1       5.224   6.998  17.492  0.00  0.00    +0.000 A 
ATOM     15  C   UNL     1       4.978   5.644  17.799  0.00  0.00    +0.000 A 
ATOM     16  H   UNL     1       6.133   2.748  18.499  0.00  0.00    +0.000 HD
ENDROOT
TORSDOF 0
ENDMDL
MODEL 9
REMARK VINA RESULT:      -6.9      2.182      2.457
REMARK  Name = 
REMARK  1 active torsions:
REMARK  status: ('A' for Active; 'I' for Inactive)
REMARK    1  A    between atoms: C_1  and  C_2
REMARK                            x       y       z     vdW  Elec       q    Type
REMARK                         _______ _______ _______ _____ _____    ______ ____
ROOT
ATOM      1  C   UNL     1       8.422   5.179  19.425  0.00  0.00    +0.000 C 
ATOM      2  C   UNL     1       7.246   5.667  18.631  0.00  0.00    +0.000 A 
ATOM      3  C   UNL     1       7.334   6.845  17.867  0.00  0.00    +0.000 A 
ATOM      4  C   UNL     1       6.253   7.316  17.122  0.00  0.00    +0.000 A 
ATOM      5  C   UNL     1       5.047   6.619  17.120  0.00  0.00    +0.000 A 
ATOM      6  F   UNL     1       4.023   7.094  16.395  0.00  0.00    +0.000 F 
ATOM      7  C   UNL     1       4.909   5.436  17.868  0.00  0.00    +0.000 A 
ATOM      8  C   UNL     1       6.010   4.990  18.604  0.00  0.00    +0.000 A 
ATOM      9  N   UNL     1       5.618   3.831  19.236  0.00  0.00    +0.000 N 
ATOM     10  C   UNL     1       4.316   3.515  18.937  0.00  0.00    +0.000 A 
ATOM     11  C   UNL     1       3.530   2.436  19.359  0.00  0.00    +0.000 A 
ATOM     12  C   UNL     1       2.216   2.370  18.887  0.00  0.00    +0.000 A 
ATOM     13  C   UNL     1       1.711   3.344  18.029  0.00  0.00    +0.000 A 
ATOM     14  C   UNL     1       2.513   4.415  17.618  0.00  0.00    +0.000 A 
ATOM     15  C   UNL     1       3.842   4.506  18.080  0.00  0.00    +0.000 A 
ATOM     16  H   UNL     1       6.213   3.283  19.840  0.00  0.00    +0.000 HD
ENDROOT
TORSDOF 0
ENDMDL
