MODEL 1
REMARK VINA RESULT:      -7.0      0.000      0.000
REMARK  Name = 
REMARK  12 active torsions:
REMARK  status: ('A' for Active; 'I' for Inactive)
REMARK    1  A    between atoms: C_1  and  C_2
REMARK    2  A    between atoms: C_2  and  C_3
REMARK    3  A    between atoms: C_2  and  C_4
REMARK    4  A    between atoms: C_4  and  C_5
REMARK    5  A    between atoms: C_5  and  N_6
REMARK    6  A    between atoms: C_10  and  C_11
REMARK    7  A    between atoms: C_11  and  C_12
REMARK    8  A    between atoms: C_11  and  N_21
REMARK    9  A    between atoms: C_15  and  N_16
REMARK   10  A    between atoms: N_16  and  C_17
REMARK   11  A    between atoms: N_16  and  C_18
REMARK   12  A    between atoms: C_25  and  C_27
REMARK                            x       y       z     vdW  Elec       q    Type
REMARK                         _______ _______ _______ _____ _____    ______ ____
ROOT
ATOM      1  C   UNL     1       2.853   6.754  18.503  0.00  0.00    +0.000 C 
ENDROOT
BRANCH   1   2
ATOM      2  N   UNL     1       4.312   7.019  18.438  0.00  0.00    +0.000 NA
ATOM      3  C   UNL     1       5.256   6.016  18.932  0.00  0.00    +0.000 C 
ATOM      4  C   UNL     1       5.683   4.952  17.917  0.00  0.00    +0.000 C 
ATOM      5  N   UNL     1       5.910   5.398  16.533  0.00  0.00    +0.000 N 
ATOM      6  C   UNL     1       6.387   4.357  15.711  0.00  0.00    +0.000 C 
ATOM      7  O   UNL     1       6.675   3.279  16.257  0.00  0.00    +0.000 OA
ATOM      8  C   UNL     1       5.134   6.560  16.072  0.00  0.00    +0.000 C 
ATOM      9  C   UNL     1       4.842   7.588  17.194  0.00  0.00    +0.000 C 
BRANCH   6  10
ATOM     10  C   UNL     1       6.606   4.460  14.270  0.00  0.00    +0.000 A 
ATOM     11  C   UNL     1       6.043   3.637  13.299  0.00  0.00    +0.000 A 
ATOM     12  C   UNL     1       6.617   3.981  12.062  0.00  0.00    +0.000 A 
ATOM     13  C   UNL     1       7.477   5.020  12.334  0.00  0.00    +0.000 A 
ATOM     14  O   UNL     1       7.490   5.327  13.669  0.00  0.00    +0.000 OA
ENDBRANCH   6  10
ENDBRANCH   1   2
BRANCH   1  15
ATOM     15  C   UNL     1       2.066   8.040  18.788  0.00  0.00    +0.000 A 
ATOM     16  C   UNL     1       1.725   8.445  20.087  0.00  0.00    +0.000 A 
ATOM     17  C   UNL     1       0.812   9.484  20.298  0.00  0.00    +0.000 A 
ATOM     18  C   UNL     1       0.215  10.179  19.235  0.00  0.00    +0.000 A 
ATOM     19  C   UNL     1       0.676   9.841  17.950  0.00  0.00    +0.000 A 
ATOM     20  C   UNL     1       1.595   8.807  17.726  0.00  0.00    +0.000 A 
BRANCH  18  21
ATOM     21  N   UNL     1      -0.837  11.072  19.416  0.00  0.00    +0.000 N 
ATOM     22  C   UNL     1      -0.992  11.793  20.680  0.00  0.00    +0.000 C 
ATOM     23  C   UNL     1      -1.426  11.753  18.265  0.00  0.00    +0.000 C 
ENDBRANCH  18  21
ENDBRANCH   1  15
BRANCH   1  28
ATOM     24  N   UNL     1       1.556   4.540  18.820  0.00  0.00    +0.000 N 
ATOM     25  N   UNL     1       0.967   3.892  19.845  0.00  0.00    +0.000 NA
ATOM     26  N   UNL     1       1.357   4.515  20.944  0.00  0.00    +0.000 NA
ATOM     27  N   UNL     1       2.169   5.571  20.644  0.00  0.00    +0.000 NA
ATOM     28  C   UNL     1       2.288   5.614  19.329  0.00  0.00    +0.000 A 
BRANCH  24  29
ATOM     29  C   UNL     1       1.654   3.838  17.551  0.00  0.00    +0.000 C 
BRANCH  29  30
ATOM     30  C   UNL     1       2.927   3.008  17.207  0.00  0.00    +0.000 C 
BRANCH  30  32
ATOM     31  C   UNL     1       4.186   2.217  19.279  0.00  0.00    +0.000 C 
ATOM     32  C   UNL     1       3.262   1.813  18.128  0.00  0.00    +0.000 C 
ATOM     33  C   UNL     1       2.005   1.177  18.754  0.00  0.00    +0.000 C 
ENDBRANCH  30  32
ENDBRANCH  29  30
ENDBRANCH  24  29
ENDBRANCH   1  28
TORSDOF 8
ENDMDL
MODEL 2
REMARK VINA RESULT:      -7.0      0.816      1.302
REMARK  Name = 
REMARK  12 active torsions:
REMARK  status: ('A' for Active; 'I' for Inactive)
REMARK    1  A    between atoms: C_1  and  C_2
REMARK    2  A    between atoms: C_2  and  C_3
REMARK    3  A    between atoms: C_2  and  C_4
REMARK    4  A    between atoms: C_4  and  C_5
REMARK    5  A    between atoms: C_5  and  N_6
REMARK    6  A    between atoms: C_10  and  C_11
REMARK    7  A    between atoms: C_11  and  C_12
REMARK    8  A    between atoms: C_11  and  N_21
REMARK    9  A    between atoms: C_15  and  N_16
REMARK   10  A    between atoms: N_16  and  C_17
REMARK   11  A    between atoms: N_16  and  C_18
REMARK   12  A    between atoms: C_25  and  C_27
REMARK                            x       y       z     vdW  Elec       q    Type
REMARK                         _______ _______ _______ _____ _____    ______ ____
ROOT
ATOM      1  C   UNL     1       3.076   6.256  18.885  0.00  0.00    +0.000 C 
ENDROOT
BRANCH   1   2
ATOM      2  N   UNL     1       4.501   6.667  18.806  0.00  0.00    +0.000 NA
ATOM      3  C   UNL     1       5.552   5.730  19.208  0.00  0.00    +0.000 C 
ATOM      4  C   UNL     1       6.049   4.783  18.114  0.00  0.00    +0.000 C 
ATOM      5  N   UNL     1       6.191   5.340  16.759  0.00  0.00    +0.000 N 
ATOM      6  C   UNL     1       6.743   4.407  15.857  0.00  0.00    +0.000 C 
ATOM      7  O   UNL     1       7.149   3.329  16.321  0.00  0.00    +0.000 OA
ATOM      8  C   UNL     1       5.294   6.447  16.396  0.00  0.00    +0.000 C 
ATOM      9  C   UNL     1       4.937   7.366  17.593  0.00  0.00    +0.000 C 
BRANCH   6  10
ATOM     10  C   UNL     1       6.908   4.626  14.421  0.00  0.00    +0.000 A 
ATOM     11  C   UNL     1       6.264   3.921  13.410  0.00  0.00    +0.000 A 
ATOM     12  C   UNL     1       6.805   4.344  12.183  0.00  0.00    +0.000 A 
ATOM     13  C   UNL     1       7.729   5.311  12.504  0.00  0.00    +0.000 A 
ATOM     14  O   UNL     1       7.812   5.498  13.858  0.00  0.00    +0.000 OA
ENDBRANCH   6  10
ENDBRANCH   1   2
BRANCH   1  15
ATOM     15  C   UNL     1       2.153   7.475  19.013  0.00  0.00    +0.000 A 
ATOM     16  C   UNL     1       1.835   8.299  17.923  0.00  0.00    +0.000 A 
ATOM     17  C   UNL     1       1.192   9.527  18.115  0.00  0.00    +0.000 A 
ATOM     18  C   UNL     1       0.818   9.980  19.390  0.00  0.00    +0.000 A 
ATOM     19  C   UNL     1       1.030   9.076  20.445  0.00  0.00    +0.000 A 
ATOM     20  C   UNL     1       1.667   7.841  20.265  0.00  0.00    +0.000 A 
BRANCH  18  21
ATOM     21  N   UNL     1       0.362  11.275  19.624  0.00  0.00    +0.000 N 
ATOM     22  C   UNL     1       0.115  11.741  20.988  0.00  0.00    +0.000 C 
ATOM     23  C   UNL     1       0.671  12.343  18.675  0.00  0.00    +0.000 C 
ENDBRANCH  18  21
ENDBRANCH   1  15
BRANCH   1  28
ATOM     24  N   UNL     1       1.540   4.304  19.603  0.00  0.00    +0.000 N 
ATOM     25  N   UNL     1       1.234   3.676  20.755  0.00  0.00    +0.000 NA
ATOM     26  N   UNL     1       2.114   4.098  21.647  0.00  0.00    +0.000 NA
ATOM     27  N   UNL     1       2.969   5.008  21.095  0.00  0.00    +0.000 NA
ATOM     28  C   UNL     1       2.616   5.163  19.831  0.00  0.00    +0.000 A 
BRANCH  24  29
ATOM     29  C   UNL     1       1.026   3.731  18.369  0.00  0.00    +0.000 C 
BRANCH  29  30
ATOM     30  C   UNL     1       1.357   2.258  17.987  0.00  0.00    +0.000 C 
BRANCH  30  32
ATOM     31  C   UNL     1       3.446   3.104  16.792  0.00  0.00    +0.000 C 
ATOM     32  C   UNL     1       2.813   1.948  17.571  0.00  0.00    +0.000 C 
ATOM     33  C   UNL     1       3.726   1.656  18.778  0.00  0.00    +0.000 C 
ENDBRANCH  30  32
ENDBRANCH  29  30
ENDBRANCH  24  29
ENDBRANCH   1  28
TORSDOF 8
ENDMDL
MODEL 3
REMARK VINA RESULT:      -6.9      1.303      1.890
REMARK  Name = 
REMARK  12 active torsions:
REMARK  status: ('A' for Active; 'I' for Inactive)
REMARK    1  A    between atoms: C_1  and  C_2
REMARK    2  A    between atoms: C_2  and  C_3
REMARK    3  A    between atoms: C_2  and  C_4
REMARK    4  A    between atoms: C_4  and  C_5
REMARK    5  A    between atoms: C_5  and  N_6
REMARK    6  A    between atoms: C_10  and  C_11
REMARK    7  A    between atoms: C_11  and  C_12
REMARK    8  A    between atoms: C_11  and  N_21
REMARK    9  A    between atoms: C_15  and  N_16
REMARK   10  A    between atoms: N_16  and  C_17
REMARK   11  A    between atoms: N_16  and  C_18
REMARK   12  A    between atoms: C_25  and  C_27
REMARK                            x       y       z     vdW  Elec       q    Type
REMARK                         _______ _______ _______ _____ _____    ______ ____
ROOT
ATOM      1  C   UNL     1       2.634   6.626  18.035  0.00  0.00    +0.000 C 
ENDROOT
BRANCH   1   2
ATOM      2  N   UNL     1       4.087   6.511  18.317  0.00  0.00    +0.000 NA
ATOM      3  C   UNL     1       4.662   5.209  18.657  0.00  0.00    +0.000 C 
ATOM      4  C   UNL     1       5.105   4.350  17.470  0.00  0.00    +0.000 C 
ATOM      5  N   UNL     1       5.749   5.044  16.344  0.00  0.00    +0.000 N 
ATOM      6  C   UNL     1       6.197   4.147  15.354  0.00  0.00    +0.000 C 
ATOM      7  O   UNL     1       6.121   2.932  15.601  0.00  0.00    +0.000 OA
ATOM      8  C   UNL     1       5.358   6.443  16.111  0.00  0.00    +0.000 C 
ATOM      9  C   UNL     1       5.009   7.208  17.413  0.00  0.00    +0.000 C 
BRANCH   6  10
ATOM     10  C   UNL     1       6.779   4.536  14.071  0.00  0.00    +0.000 A 
ATOM     11  C   UNL     1       6.509   3.946  12.840  0.00  0.00    +0.000 A 
ATOM     12  C   UNL     1       7.375   4.519  11.892  0.00  0.00    +0.000 A 
ATOM     13  C   UNL     1       8.108   5.454  12.584  0.00  0.00    +0.000 A 
ATOM     14  O   UNL     1       7.767   5.481  13.910  0.00  0.00    +0.000 OA
ENDBRANCH   6  10
ENDBRANCH   1   2
BRANCH   1  15
ATOM     15  C   UNL     1       2.009   7.797  18.804  0.00  0.00    +0.000 A 
ATOM     16  C   UNL     1       1.912   7.815  20.203  0.00  0.00    +0.000 A 
ATOM     17  C   UNL     1       1.131   8.775  20.856  0.00  0.00    +0.000 A 
ATOM     18  C   UNL     1       0.430   9.768  20.154  0.00  0.00    +0.000 A 
ATOM     19  C   UNL     1       0.652   9.805  18.766  0.00  0.00    +0.000 A 
ATOM     20  C   UNL     1       1.437   8.854  18.101  0.00  0.00    +0.000 A 
BRANCH  18  21
ATOM     21  N   UNL     1      -0.505  10.601  20.762  0.00  0.00    +0.000 N 
ATOM     22  C   UNL     1      -0.565  10.716  22.219  0.00  0.00    +0.000 C 
ATOM     23  C   UNL     1      -1.014  11.773  20.050  0.00  0.00    +0.000 C 
ENDBRANCH  18  21
ENDBRANCH   1  15
BRANCH   1  28
ATOM     24  N   UNL     1       1.517   4.622  19.226  0.00  0.00    +0.000 N 
ATOM     25  N   UNL     1       0.888   3.491  18.851  0.00  0.00    +0.000 NA
ATOM     26  N   UNL     1       0.668   3.607  17.553  0.00  0.00    +0.000 NA
ATOM     27  N   UNL     1       1.167   4.786  17.078  0.00  0.00    +0.000 NA
ATOM     28  C   UNL     1       1.715   5.421  18.099  0.00  0.00    +0.000 A 
BRANCH  24  29
ATOM     29  C   UNL     1       1.504   4.959  20.641  0.00  0.00    +0.000 C 
BRANCH  29  30
ATOM     30  C   UNL     1       2.628   4.438  21.584  0.00  0.00    +0.000 C 
BRANCH  30  32
ATOM     31  C   UNL     1       1.351   2.244  21.838  0.00  0.00    +0.000 C 
ATOM     32  C   UNL     1       2.729   2.908  21.784  0.00  0.00    +0.000 C 
ATOM     33  C   UNL     1       3.526   2.215  20.662  0.00  0.00    +0.000 C 
ENDBRANCH  30  32
ENDBRANCH  29  30
ENDBRANCH  24  29
ENDBRANCH   1  28
TORSDOF 8
ENDMDL
MODEL 4
REMARK VINA RESULT:      -6.7      0.686      1.102
REMARK  Name = 
REMARK  12 active torsions:
REMARK  status: ('A' for Active; 'I' for Inactive)
REMARK    1  A    between atoms: C_1  and  C_2
REMARK    2  A    between atoms: C_2  and  C_3
REMARK    3  A    between atoms: C_2  and  C_4
REMARK    4  A    between atoms: C_4  and  C_5
REMARK    5  A    between atoms: C_5  and  N_6
REMARK    6  A    between atoms: C_10  and  C_11
REMARK    7  A    between atoms: C_11  and  C_12
REMARK    8  A    between atoms: C_11  and  N_21
REMARK    9  A    between atoms: C_15  and  N_16
REMARK   10  A    between atoms: N_16  and  C_17
REMARK   11  A    between atoms: N_16  and  C_18
REMARK   12  A    between atoms: C_25  and  C_27
REMARK                            x       y       z     vdW  Elec       q    Type
REMARK                         _______ _______ _______ _____ _____    ______ ____
ROOT
ATOM      1  C   UNL     1       2.859   6.580  18.532  0.00  0.00    +0.000 C 
ENDROOT
BRANCH   1   2
ATOM      2  N   UNL     1       4.319   6.848  18.546  0.00  0.00    +0.000 NA
ATOM      3  C   UNL     1       5.245   5.814  19.010  0.00  0.00    +0.000 C 
ATOM      4  C   UNL     1       5.716   4.819  17.946  0.00  0.00    +0.000 C 
ATOM      5  N   UNL     1       5.999   5.356  16.605  0.00  0.00    +0.000 N 
ATOM      6  C   UNL     1       6.513   4.373  15.737  0.00  0.00    +0.000 C 
ATOM      7  O   UNL     1       6.780   3.260  16.221  0.00  0.00    +0.000 OA
ATOM      8  C   UNL     1       5.240   6.546  16.190  0.00  0.00    +0.000 C 
ATOM      9  C   UNL     1       4.899   7.498  17.365  0.00  0.00    +0.000 C 
BRANCH   6  10
ATOM     10  C   UNL     1       6.791   4.571  14.316  0.00  0.00    +0.000 A 
ATOM     11  C   UNL     1       6.264   3.819  13.270  0.00  0.00    +0.000 A 
ATOM     12  C   UNL     1       6.890   4.242  12.083  0.00  0.00    +0.000 A 
ATOM     13  C   UNL     1       7.742   5.253  12.459  0.00  0.00    +0.000 A 
ATOM     14  O   UNL     1       7.702   5.470  13.811  0.00  0.00    +0.000 OA
ENDBRANCH   6  10
ENDBRANCH   1   2
BRANCH   1  15
ATOM     15  C   UNL     1       2.056   7.867  18.753  0.00  0.00    +0.000 A 
ATOM     16  C   UNL     1       1.792   8.780  17.721  0.00  0.00    +0.000 A 
ATOM     17  C   UNL     1       1.268  10.048  18.000  0.00  0.00    +0.000 A 
ATOM     18  C   UNL     1       0.966  10.457  19.308  0.00  0.00    +0.000 A 
ATOM     19  C   UNL     1       1.116   9.476  20.304  0.00  0.00    +0.000 A 
ATOM     20  C   UNL     1       1.632   8.201  20.037  0.00  0.00    +0.000 A 
BRANCH  18  21
ATOM     21  N   UNL     1       0.637  11.771  19.628  0.00  0.00    +0.000 N 
ATOM     22  C   UNL     1       1.557  12.865  19.319  0.00  0.00    +0.000 C 
ATOM     23  C   UNL     1      -0.766  12.176  19.709  0.00  0.00    +0.000 C 
ENDBRANCH  18  21
ENDBRANCH   1  15
BRANCH   1  28
ATOM     24  N   UNL     1       1.586   4.346  18.806  0.00  0.00    +0.000 N 
ATOM     25  N   UNL     1       0.928   3.713  19.798  0.00  0.00    +0.000 NA
ATOM     26  N   UNL     1       1.212   4.375  20.907  0.00  0.00    +0.000 NA
ATOM     27  N   UNL     1       2.025   5.440  20.643  0.00  0.00    +0.000 NA
ATOM     28  C   UNL     1       2.252   5.450  19.342  0.00  0.00    +0.000 A 
BRANCH  24  29
ATOM     29  C   UNL     1       1.804   3.611  17.570  0.00  0.00    +0.000 C 
BRANCH  29  30
ATOM     30  C   UNL     1       3.112   2.792  17.362  0.00  0.00    +0.000 C 
BRANCH  30  32
ATOM     31  C   UNL     1       4.269   2.158  19.545  0.00  0.00    +0.000 C 
ATOM     32  C   UNL     1       3.409   1.666  18.378  0.00  0.00    +0.000 C 
ATOM     33  C   UNL     1       2.127   1.057  18.980  0.00  0.00    +0.000 C 
ENDBRANCH  30  32
ENDBRANCH  29  30
ENDBRANCH  24  29
ENDBRANCH   1  28
TORSDOF 8
ENDMDL
MODEL 5
REMARK VINA RESULT:      -6.6      7.321      9.204
REMARK  Name = 
REMARK  12 active torsions:
REMARK  status: ('A' for Active; 'I' for Inactive)
REMARK    1  A    between atoms: C_1  and  C_2
REMARK    2  A    between atoms: C_2  and  C_3
REMARK    3  A    between atoms: C_2  and  C_4
REMARK    4  A    between atoms: C_4  and  C_5
REMARK    5  A    between atoms: C_5  and  N_6
REMARK    6  A    between atoms: C_10  and  C_11
REMARK    7  A    between atoms: C_11  and  C_12
REMARK    8  A    between atoms: C_11  and  N_21
REMARK    9  A    between atoms: C_15  and  N_16
REMARK   10  A    between atoms: N_16  and  C_17
REMARK   11  A    between atoms: N_16  and  C_18
REMARK   12  A    between atoms: C_25  and  C_27
REMARK                            x       y       z     vdW  Elec       q    Type
REMARK                         _______ _______ _______ _____ _____    ______ ____
ROOT
ATOM      1  C   UNL     1       0.293  11.742  20.184  0.00  0.00    +0.000 C 
ENDROOT
BRANCH   1   2
ATOM      2  N   UNL     1       0.411  13.221  20.242  0.00  0.00    +0.000 NA
ATOM      3  C   UNL     1       0.889  13.866  21.466  0.00  0.00    +0.000 C 
ATOM      4  C   UNL     1       2.407  14.014  21.588  0.00  0.00    +0.000 C 
ATOM      5  N   UNL     1       3.147  14.367  20.365  0.00  0.00    +0.000 N 
ATOM      6  C   UNL     1       4.519  14.568  20.614  0.00  0.00    +0.000 C 
ATOM      7  O   UNL     1       4.897  14.558  21.797  0.00  0.00    +0.000 OA
ATOM      8  C   UNL     1       2.569  13.925  19.086  0.00  0.00    +0.000 C 
ATOM      9  C   UNL     1       1.019  13.896  19.090  0.00  0.00    +0.000 C 
BRANCH   6  10
ATOM     10  C   UNL     1       5.529  14.823  19.588  0.00  0.00    +0.000 A 
ATOM     11  C   UNL     1       6.705  15.545  19.765  0.00  0.00    +0.000 A 
ATOM     12  C   UNL     1       7.320  15.675  18.506  0.00  0.00    +0.000 A 
ATOM     13  C   UNL     1       6.504  14.998  17.630  0.00  0.00    +0.000 A 
ATOM     14  O   UNL     1       5.408  14.474  18.262  0.00  0.00    +0.000 OA
ENDBRANCH   6  10
ENDBRANCH   1   2
BRANCH   1  15
ATOM     15  C   UNL     1      -0.879  11.312  19.292  0.00  0.00    +0.000 A 
ATOM     16  C   UNL     1      -0.748  10.342  18.288  0.00  0.00    +0.000 A 
ATOM     17  C   UNL     1      -1.760  10.146  17.342  0.00  0.00    +0.000 A 
ATOM     18  C   UNL     1      -2.952  10.887  17.363  0.00  0.00    +0.000 A 
ATOM     19  C   UNL     1      -3.111  11.756  18.456  0.00  0.00    +0.000 A 
ATOM     20  C   UNL     1      -2.107  11.957  19.413  0.00  0.00    +0.000 A 
BRANCH  18  21
ATOM     21  N   UNL     1      -3.879  10.850  16.324  0.00  0.00    +0.000 N 
ATOM     22  C   UNL     1      -5.107  11.641  16.395  0.00  0.00    +0.000 C 
ATOM     23  C   UNL     1      -3.441  10.547  14.963  0.00  0.00    +0.000 C 
ENDBRANCH  18  21
ENDBRANCH   1  15
BRANCH   1  28
ATOM     24  N   UNL     1      -0.533  11.056  22.536  0.00  0.00    +0.000 N 
ATOM     25  N   UNL     1      -0.045  10.349  23.574  0.00  0.00    +0.000 NA
ATOM     26  N   UNL     1       1.038   9.739  23.125  0.00  0.00    +0.000 NA
ATOM     27  N   UNL     1       1.272  10.062  21.819  0.00  0.00    +0.000 NA
ATOM     28  C   UNL     1       0.318  10.894  21.442  0.00  0.00    +0.000 A 
BRANCH  24  29
ATOM     29  C   UNL     1      -1.924  11.478  22.606  0.00  0.00    +0.000 C 
BRANCH  29  30
ATOM     30  C   UNL     1      -2.285  12.926  23.049  0.00  0.00    +0.000 C 
BRANCH  30  32
ATOM     31  C   UNL     1      -4.701  12.920  22.228  0.00  0.00    +0.000 C 
ATOM     32  C   UNL     1      -3.763  13.208  23.404  0.00  0.00    +0.000 C 
ATOM     33  C   UNL     1      -4.257  12.367  24.598  0.00  0.00    +0.000 C 
ENDBRANCH  30  32
ENDBRANCH  29  30
ENDBRANCH  24  29
ENDBRANCH   1  28
TORSDOF 8
ENDMDL
MODEL 6
REMARK VINA RESULT:      -6.6      5.130     10.664
REMARK  Name = 
REMARK  12 active torsions:
REMARK  status: ('A' for Active; 'I' for Inactive)
REMARK    1  A    between atoms: C_1  and  C_2
REMARK    2  A    between atoms: C_2  and  C_3
REMARK    3  A    between atoms: C_2  and  C_4
REMARK    4  A    between atoms: C_4  and  C_5
REMARK    5  A    between atoms: C_5  and  N_6
REMARK    6  A    between atoms: C_10  and  C_11
REMARK    7  A    between atoms: C_11  and  C_12
REMARK    8  A    between atoms: C_11  and  N_21
REMARK    9  A    between atoms: C_15  and  N_16
REMARK   10  A    between atoms: N_16  and  C_17
REMARK   11  A    between atoms: N_16  and  C_18
REMARK   12  A    between atoms: C_25  and  C_27
REMARK                            x       y       z     vdW  Elec       q    Type
REMARK                         _______ _______ _______ _____ _____    ______ ____
ROOT
ATOM      1  C   UNL     1       0.312  11.775  19.549  0.00  0.00    +0.000 C 
ENDROOT
BRANCH   1   2
ATOM      2  N   UNL     1       1.337  12.755  19.111  0.00  0.00    +0.000 NA
ATOM      3  C   UNL     1       0.926  13.988  18.438  0.00  0.00    +0.000 C 
ATOM      4  C   UNL     1       0.591  15.165  19.358  0.00  0.00    +0.000 C 
ATOM      5  N   UNL     1       1.443  15.352  20.544  0.00  0.00    +0.000 N 
ATOM      6  C   UNL     1       1.102  16.514  21.264  0.00  0.00    +0.000 C 
ATOM      7  O   UNL     1       0.258  17.275  20.763  0.00  0.00    +0.000 OA
ATOM      8  C   UNL     1       2.063  14.147  21.116  0.00  0.00    +0.000 C 
ATOM      9  C   UNL     1       2.414  13.074  20.055  0.00  0.00    +0.000 C 
BRANCH   6  10
ATOM     10  C   UNL     1       1.693  16.914  22.540  0.00  0.00    +0.000 A 
ATOM     11  C   UNL     1       1.005  17.097  23.735  0.00  0.00    +0.000 A 
ATOM     12  C   UNL     1       1.913  17.613  24.677  0.00  0.00    +0.000 A 
ATOM     13  C   UNL     1       3.118  17.688  24.019  0.00  0.00    +0.000 A 
ATOM     14  O   UNL     1       3.010  17.271  22.719  0.00  0.00    +0.000 OA
ENDBRANCH   6  10
ENDBRANCH   1   2
BRANCH   1  15
ATOM     15  C   UNL     1       0.806  10.334  19.367  0.00  0.00    +0.000 A 
ATOM     16  C   UNL     1       0.793   9.394  20.408  0.00  0.00    +0.000 A 
ATOM     17  C   UNL     1       1.463   8.173  20.280  0.00  0.00    +0.000 A 
ATOM     18  C   UNL     1       2.157   7.823  19.112  0.00  0.00    +0.000 A 
ATOM     19  C   UNL     1       2.042   8.725  18.040  0.00  0.00    +0.000 A 
ATOM     20  C   UNL     1       1.368   9.948  18.153  0.00  0.00    +0.000 A 
BRANCH  18  21
ATOM     21  N   UNL     1       2.992   6.711  19.037  0.00  0.00    +0.000 N 
ATOM     22  C   UNL     1       2.696   5.504  19.809  0.00  0.00    +0.000 C 
ATOM     23  C   UNL     1       3.783   6.469  17.831  0.00  0.00    +0.000 C 
ENDBRANCH  18  21
ENDBRANCH   1  15
BRANCH   1  28
ATOM     24  N   UNL     1      -2.183  12.374  19.876  0.00  0.00    +0.000 N 
ATOM     25  N   UNL     1      -3.349  12.051  19.284  0.00  0.00    +0.000 NA
ATOM     26  N   UNL     1      -3.031  11.424  18.165  0.00  0.00    +0.000 NA
ATOM     27  N   UNL     1      -1.676  11.316  18.036  0.00  0.00    +0.000 NA
ATOM     28  C   UNL     1      -1.133  11.883  19.098  0.00  0.00    +0.000 A 
BRANCH  24  29
ATOM     29  C   UNL     1      -2.209  13.421  20.886  0.00  0.00    +0.000 C 
BRANCH  29  30
ATOM     30  C   UNL     1      -1.286  13.331  22.136  0.00  0.00    +0.000 C 
BRANCH  30  32
ATOM     31  C   UNL     1      -3.238  12.279  23.396  0.00  0.00    +0.000 C 
ATOM     32  C   UNL     1      -1.716  12.365  23.264  0.00  0.00    +0.000 C 
ATOM     33  C   UNL     1      -1.195  10.930  23.046  0.00  0.00    +0.000 C 
ENDBRANCH  30  32
ENDBRANCH  29  30
ENDBRANCH  24  29
ENDBRANCH   1  28
TORSDOF 8
ENDMDL
MODEL 7
REMARK VINA RESULT:      -6.6      4.950     10.762
REMARK  Name = 
REMARK  12 active torsions:
REMARK  status: ('A' for Active; 'I' for Inactive)
REMARK    1  A    between atoms: C_1  and  C_2
REMARK    2  A    between atoms: C_2  and  C_3
REMARK    3  A    between atoms: C_2  and  C_4
REMARK    4  A    between atoms: C_4  and  C_5
REMARK    5  A    between atoms: C_5  and  N_6
REMARK    6  A    between atoms: C_10  and  C_11
REMARK    7  A    between atoms: C_11  and  C_12
REMARK    8  A    between atoms: C_11  and  N_21
REMARK    9  A    between atoms: C_15  and  N_16
REMARK   10  A    between atoms: N_16  and  C_17
REMARK   11  A    between atoms: N_16  and  C_18
REMARK   12  A    between atoms: C_25  and  C_27
REMARK                            x       y       z     vdW  Elec       q    Type
REMARK                         _______ _______ _______ _____ _____    ______ ____
ROOT
ATOM      1  C   UNL     1       0.299  11.011  19.261  0.00  0.00    +0.000 C 
ENDROOT
BRANCH   1   2
ATOM      2  N   UNL     1       1.100  12.247  19.071  0.00  0.00    +0.000 NA
ATOM      3  C   UNL     1       0.550  13.359  18.295  0.00  0.00    +0.000 C 
ATOM      4  C   UNL     1      -0.299  14.360  19.083  0.00  0.00    +0.000 C 
ATOM      5  N   UNL     1       0.160  14.707  20.438  0.00  0.00    +0.000 N 
ATOM      6  C   UNL     1      -0.642  15.703  21.031  0.00  0.00    +0.000 C 
ATOM      7  O   UNL     1      -1.512  16.239  20.324  0.00  0.00    +0.000 OA
ATOM      8  C   UNL     1       0.922  13.682  21.167  0.00  0.00    +0.000 C 
ATOM      9  C   UNL     1       1.792  12.791  20.244  0.00  0.00    +0.000 C 
BRANCH   6  10
ATOM     10  C   UNL     1      -0.506  16.182  22.406  0.00  0.00    +0.000 A 
ATOM     11  C   UNL     1       0.514  16.997  22.887  0.00  0.00    +0.000 A 
ATOM     12  C   UNL     1       0.352  17.105  24.280  0.00  0.00    +0.000 A 
ATOM     13  C   UNL     1      -0.778  16.378  24.575  0.00  0.00    +0.000 A 
ATOM     14  O   UNL     1      -1.315  15.805  23.453  0.00  0.00    +0.000 OA
ENDBRANCH   6  10
ENDBRANCH   1   2
BRANCH   1  15
ATOM     15  C   UNL     1       1.179   9.758  19.173  0.00  0.00    +0.000 A 
ATOM     16  C   UNL     1       1.875   9.404  18.008  0.00  0.00    +0.000 A 
ATOM     17  C   UNL     1       2.471   8.144  17.883  0.00  0.00    +0.000 A 
ATOM     18  C   UNL     1       2.421   7.191  18.912  0.00  0.00    +0.000 A 
ATOM     19  C   UNL     1       1.833   7.622  20.114  0.00  0.00    +0.000 A 
ATOM     20  C   UNL     1       1.239   8.883  20.255  0.00  0.00    +0.000 A 
BRANCH  18  21
ATOM     21  N   UNL     1       2.829   5.872  18.736  0.00  0.00    +0.000 N 
ATOM     22  C   UNL     1       2.073   4.968  17.869  0.00  0.00    +0.000 C 
ATOM     23  C   UNL     1       4.238   5.515  18.885  0.00  0.00    +0.000 C 
ENDBRANCH  18  21
ENDBRANCH   1  15
BRANCH   1  28
ATOM     24  N   UNL     1      -2.267  11.137  18.966  0.00  0.00    +0.000 N 
ATOM     25  N   UNL     1      -3.192  10.527  18.198  0.00  0.00    +0.000 NA
ATOM     26  N   UNL     1      -2.520   9.859  17.276  0.00  0.00    +0.000 NA
ATOM     27  N   UNL     1      -1.174  10.007  17.452  0.00  0.00    +0.000 NA
ATOM     28  C   UNL     1      -0.997  10.782  18.507  0.00  0.00    +0.000 A 
BRANCH  24  29
ATOM     29  C   UNL     1      -2.705  12.260  19.779  0.00  0.00    +0.000 C 
BRANCH  29  30
ATOM     30  C   UNL     1      -2.449  12.266  21.315  0.00  0.00    +0.000 C 
BRANCH  30  32
ATOM     31  C   UNL     1      -4.942  12.631  21.716  0.00  0.00    +0.000 C 
ATOM     32  C   UNL     1      -3.523  12.930  22.207  0.00  0.00    +0.000 C 
ATOM     33  C   UNL     1      -3.442  12.468  23.676  0.00  0.00    +0.000 C 
ENDBRANCH  30  32
ENDBRANCH  29  30
ENDBRANCH  24  29
ENDBRANCH   1  28
TORSDOF 8
ENDMDL
MODEL 8
REMARK VINA RESULT:      -6.6      5.242      9.587
REMARK  Name = 
REMARK  12 active torsions:
REMARK  status: ('A' for Active; 'I' for Inactive)
REMARK    1  A    between atoms: C_1  and  C_2
REMARK    2  A    between atoms: C_2  and  C_3
REMARK    3  A    between atoms: C_2  and  C_4
REMARK    4  A    between atoms: C_4  and  C_5
REMARK    5  A    between atoms: C_5  and  N_6
REMARK    6  A    between atoms: C_10  and  C_11
REMARK    7  A    between atoms: C_11  and  C_12
REMARK    8  A    between atoms: C_11  and  N_21
REMARK    9  A    between atoms: C_15  and  N_16
REMARK   10  A    between atoms: N_16  and  C_17
REMARK   11  A    between atoms: N_16  and  C_18
REMARK   12  A    between atoms: C_25  and  C_27
REMARK                            x       y       z     vdW  Elec       q    Type
REMARK                         _______ _______ _______ _____ _____    ______ ____
ROOT
ATOM      1  C   UNL     1       0.690  11.868  19.849  0.00  0.00    +0.000 C 
ENDROOT
BRANCH   1   2
ATOM      2  N   UNL     1       1.100  12.693  18.684  0.00  0.00    +0.000 NA
ATOM      3  C   UNL     1       0.442  13.976  18.433  0.00  0.00    +0.000 C 
ATOM      4  C   UNL     1       1.048  15.183  19.152  0.00  0.00    +0.000 C 
ATOM      5  N   UNL     1       2.516  15.240  19.247  0.00  0.00    +0.000 N 
ATOM      6  C   UNL     1       2.964  16.435  19.844  0.00  0.00    +0.000 C 
ATOM      7  O   UNL     1       2.116  17.313  20.081  0.00  0.00    +0.000 OA
ATOM      8  C   UNL     1       3.232  13.955  19.272  0.00  0.00    +0.000 C 
ATOM      9  C   UNL     1       2.537  12.848  18.439  0.00  0.00    +0.000 C 
BRANCH   6  10
ATOM     10  C   UNL     1       4.355  16.739  20.172  0.00  0.00    +0.000 A 
ATOM     11  C   UNL     1       5.341  17.120  19.268  0.00  0.00    +0.000 A 
ATOM     12  C   UNL     1       6.561  17.178  19.965  0.00  0.00    +0.000 A 
ATOM     13  C   UNL     1       6.253  16.861  21.267  0.00  0.00    +0.000 A 
ATOM     14  O   UNL     1       4.920  16.588  21.418  0.00  0.00    +0.000 OA
ENDBRANCH   6  10
ENDBRANCH   1   2
BRANCH   1  15
ATOM     15  C   UNL     1       1.008  10.385  19.620  0.00  0.00    +0.000 A 
ATOM     16  C   UNL     1       1.022   9.446  20.661  0.00  0.00    +0.000 A 
ATOM     17  C   UNL     1       1.544   8.163  20.464  0.00  0.00    +0.000 A 
ATOM     18  C   UNL     1       2.055   7.750  19.224  0.00  0.00    +0.000 A 
ATOM     19  C   UNL     1       1.907   8.665  18.167  0.00  0.00    +0.000 A 
ATOM     20  C   UNL     1       1.380   9.950  18.350  0.00  0.00    +0.000 A 
BRANCH  18  21
ATOM     21  N   UNL     1       2.757   6.558  19.058  0.00  0.00    +0.000 N 
ATOM     22  C   UNL     1       2.332   5.342  19.750  0.00  0.00    +0.000 C 
ATOM     23  C   UNL     1       3.504   6.314  17.826  0.00  0.00    +0.000 C 
ENDBRANCH  18  21
ENDBRANCH   1  15
BRANCH   1  28
ATOM     24  N   UNL     1      -1.863  12.275  19.775  0.00  0.00    +0.000 N 
ATOM     25  N   UNL     1      -2.821  12.624  20.655  0.00  0.00    +0.000 NA
ATOM     26  N   UNL     1      -2.270  12.533  21.853  0.00  0.00    +0.000 NA
ATOM     27  N   UNL     1      -0.961  12.153  21.758  0.00  0.00    +0.000 NA
ATOM     28  C   UNL     1      -0.685  12.007  20.475  0.00  0.00    +0.000 A 
BRANCH  24  29
ATOM     29  C   UNL     1      -2.288  11.877  18.442  0.00  0.00    +0.000 C 
BRANCH  29  30
ATOM     30  C   UNL     1      -2.420  10.369  18.075  0.00  0.00    +0.000 C 
BRANCH  30  32
ATOM     31  C   UNL     1      -4.472  11.067  16.731  0.00  0.00    +0.000 C 
ATOM     32  C   UNL     1      -3.389  10.003  16.928  0.00  0.00    +0.000 C 
ATOM     33  C   UNL     1      -2.670   9.829  15.577  0.00  0.00    +0.000 C 
ENDBRANCH  30  32
ENDBRANCH  29  30
ENDBRANCH  24  29
ENDBRANCH   1  28
TORSDOF 8
ENDMDL
MODEL 9
REMARK VINA RESULT:      -6.5      4.030      9.109
REMARK  Name = 
REMARK  12 active torsions:
REMARK  status: ('A' for Active; 'I' for Inactive)
REMARK    1  A    between atoms: C_1  and  C_2
REMARK    2  A    between atoms: C_2  and  C_3
REMARK    3  A    between atoms: C_2  and  C_4
REMARK    4  A    between atoms: C_4  and  C_5
REMARK    5  A    between atoms: C_5  and  N_6
REMARK    6  A    between atoms: C_10  and  C_11
REMARK    7  A    between atoms: C_11  and  C_12
REMARK    8  A    between atoms: C_11  and  N_21
REMARK    9  A    between atoms: C_15  and  N_16
REMARK   10  A    between atoms: N_16  and  C_17
REMARK   11  A    between atoms: N_16  and  C_18
REMARK   12  A    between atoms: C_25  and  C_27
REMARK                            x       y       z     vdW  Elec       q    Type
REMARK                         _______ _______ _______ _____ _____    ______ ____
ROOT
ATOM      1  C   UNL     1      -0.241  12.046  21.602  0.00  0.00    +0.000 C 
ENDROOT
BRANCH   1   2
ATOM      2  N   UNL     1      -0.904  10.979  20.810  0.00  0.00    +0.000 NA
ATOM      3  C   UNL     1      -0.966  11.086  19.352  0.00  0.00    +0.000 C 
ATOM      4  C   UNL     1       0.238  10.520  18.594  0.00  0.00    +0.000 C 
ATOM      5  N   UNL     1       0.824   9.270  19.106  0.00  0.00    +0.000 N 
ATOM      6  C   UNL     1       1.862   8.794  18.281  0.00  0.00    +0.000 C 
ATOM      7  O   UNL     1       2.056   9.381  17.203  0.00  0.00    +0.000 OA
ATOM      8  C   UNL     1       0.702   9.020  20.551  0.00  0.00    +0.000 C 
ATOM      9  C   UNL     1      -0.603   9.588  21.164  0.00  0.00    +0.000 C 
BRANCH   6  10
ATOM     10  C   UNL     1       2.706   7.638  18.577  0.00  0.00    +0.000 A 
ATOM     11  C   UNL     1       3.677   7.100  17.738  0.00  0.00    +0.000 A 
ATOM     12  C   UNL     1       4.154   5.921  18.337  0.00  0.00    +0.000 A 
ATOM     13  C   UNL     1       3.475   5.815  19.528  0.00  0.00    +0.000 A 
ATOM     14  O   UNL     1       2.588   6.844  19.695  0.00  0.00    +0.000 OA
ENDBRANCH   6  10
ENDBRANCH   1   2
BRANCH   1  15
ATOM     15  C   UNL     1      -1.263  12.852  22.414  0.00  0.00    +0.000 A 
ATOM     16  C   UNL     1      -2.647  12.700  22.250  0.00  0.00    +0.000 A 
ATOM     17  C   UNL     1      -3.542  13.608  22.826  0.00  0.00    +0.000 A 
ATOM     18  C   UNL     1      -3.106  14.692  23.604  0.00  0.00    +0.000 A 
ATOM     19  C   UNL     1      -1.725  14.742  23.860  0.00  0.00    +0.000 A 
ATOM     20  C   UNL     1      -0.819  13.835  23.295  0.00  0.00    +0.000 A 
BRANCH  18  21
ATOM     21  N   UNL     1      -3.958  15.714  24.016  0.00  0.00    +0.000 N 
ATOM     22  C   UNL     1      -5.409  15.562  23.909  0.00  0.00    +0.000 C 
ATOM     23  C   UNL     1      -3.531  16.649  25.055  0.00  0.00    +0.000 C 
ENDBRANCH  18  21
ENDBRANCH   1  15
BRANCH   1  28
ATOM     24  N   UNL     1       0.492  13.918  19.976  0.00  0.00    +0.000 N 
ATOM     25  N   UNL     1       1.655  14.358  19.455  0.00  0.00    +0.000 NA
ATOM     26  N   UNL     1       2.614  13.753  20.135  0.00  0.00    +0.000 NA
ATOM     27  N   UNL     1       2.088  12.911  21.072  0.00  0.00    +0.000 NA
ATOM     28  C   UNL     1       0.773  12.985  20.976  0.00  0.00    +0.000 A 
BRANCH  24  29
ATOM     29  C   UNL     1      -0.699  14.712  19.724  0.00  0.00    +0.000 C 
BRANCH  29  30
ATOM     30  C   UNL     1      -0.872  16.107  20.395  0.00  0.00    +0.000 C 
BRANCH  30  32
ATOM     31  C   UNL     1      -0.530  17.045  18.047  0.00  0.00    +0.000 C 
ATOM     32  C   UNL     1      -1.053  17.324  19.459  0.00  0.00    +0.000 C 
ATOM     33  C   UNL     1      -2.527  17.753  19.322  0.00  0.00    +0.000 C 
ENDBRANCH  30  32
ENDBRANCH  29  30
ENDBRANCH  24  29
ENDBRANCH   1  28
TORSDOF 8
ENDMDL
