MODEL 1
REMARK VINA RESULT:      -7.2      0.000      0.000
REMARK  Name = 
REMARK  10 active torsions:
REMARK  status: ('A' for Active; 'I' for Inactive)
REMARK    1  A    between atoms: CG2_1  and  CB_2
REMARK    2  A    between atoms: CB_2  and  OG1_3
REMARK    3  A    between atoms: CB_2  and  CA_4
REMARK    4  A    between atoms: CA_4  and  N_5
REMARK    5  A    between atoms: CA_4  and  C_17
REMARK    6  A    between atoms: C_6  and  C_7
REMARK    7  A    between atoms: C_8  and  O_9
REMARK    8  A    between atoms: C_11  and  C_12
REMARK    9  A    between atoms: C_11  and  C_13
REMARK   10  A    between atoms: C_17  and  OXT_19
REMARK                            x       y       z     vdW  Elec       q    Type
REMARK                         _______ _______ _______ _____ _____    ______ ____
ROOT
ATOM      1  N   THR A   1       5.900   4.418  17.397  0.00  0.00    +0.000 NA
ATOM      2  C   UNK A   0       5.030   5.010  18.164  0.00  0.00    +0.000 C 
ENDROOT
BRANCH   2   3
ATOM      3  C   UNK A   0       3.850   4.334  18.754  0.00  0.00    +0.000 C 
ATOM      4  C   UNK A   0       3.957   3.107  19.280  0.00  0.00    +0.000 C 
ATOM      5  O   UNK A   0       2.891   2.391  19.740  0.00  0.00    +0.000 OA
ATOM      6  C   UNK A   0       1.613   3.017  19.745  0.00  0.00    +0.000 C 
ATOM      7  C   UNK A   0       1.163   3.109  21.202  0.00  0.00    +0.000 C 
ATOM      8  C   UNK A   0       0.665   2.118  18.953  0.00  0.00    +0.000 C 
ATOM      9  O   UNK A   0       1.491   4.328  19.185  0.00  0.00    +0.000 OA
ATOM     10  C   UNK A   0       2.540   4.970  18.650  0.00  0.00    +0.000 C 
ATOM     11  O   UNK A   0       2.405   6.061  18.111  0.00  0.00    +0.000 OA
BRANCH   4  12
ATOM     12  O   UNK A   0       5.174   2.456  19.390  0.00  0.00    +0.000 OA
ATOM     13  H   UNK A   0       5.399   2.095  18.507  0.00  0.00    +0.000 HD
ENDBRANCH   4  12
ENDBRANCH   2   3
BRANCH   1  14
ATOM     14  CA  THR A   1       7.015   5.309  16.923  0.00  0.00    +0.000 C 
BRANCH  14  16
ATOM     15  CG2 THR A   1       8.123   6.472  18.935  0.00  0.00    +0.000 C 
ATOM     16  CB  THR A   1       7.172   6.611  17.749  0.00  0.00    +0.000 C 
BRANCH  16  17
ATOM     17  OG1 THR A   1       7.615   7.715  16.957  0.00  0.00    +0.000 OA
ATOM     18  HG1 THR A   1       8.429   7.439  16.492  0.00  0.00    +0.000 HD
ENDBRANCH  16  17
ENDBRANCH  14  16
BRANCH  14  19
ATOM     19  C   THR A   1       6.855   5.536  15.419  0.00  0.00    +0.000 C 
ATOM     20  O   THR A   1       7.654   5.202  14.564  0.00  0.00    +0.000 OA
BRANCH  19  21
ATOM     21  OXT THR A   1       5.710   6.212  15.129  0.00  0.00    +0.000 OA
ATOM     22  HXT THR A   1       5.873   7.177  15.074  0.00  0.00    +0.000 HD
ENDBRANCH  19  21
ENDBRANCH  14  19
ENDBRANCH   1  14
TORSDOF 7
ENDMDL
MODEL 2
REMARK VINA RESULT:      -7.1      1.195      1.467
REMARK  Name = 
REMARK  10 active torsions:
REMARK  status: ('A' for Active; 'I' for Inactive)
REMARK    1  A    between atoms: CG2_1  and  CB_2
REMARK    2  A    between atoms: CB_2  and  OG1_3
REMARK    3  A    between atoms: CB_2  and  CA_4
REMARK    4  A    between atoms: CA_4  and  N_5
REMARK    5  A    between atoms: CA_4  and  C_17
REMARK    6  A    between atoms: C_6  and  C_7
REMARK    7  A    between atoms: C_8  and  O_9
REMARK    8  A    between atoms: C_11  and  C_12
REMARK    9  A    between atoms: C_11  and  C_13
REMARK   10  A    between atoms: C_17  and  OXT_19
REMARK                            x       y       z     vdW  Elec       q    Type
REMARK                         _______ _______ _______ _____ _____    ______ ____
ROOT
ATOM      1  N   THR A   1       6.052   5.304  19.049  0.00  0.00    +0.000 NA
ATOM      2  C   UNK A   0       5.068   4.853  18.326  0.00  0.00    +0.000 C 
ENDROOT
BRANCH   2   3
ATOM      3  C   UNK A   0       3.860   4.199  18.884  0.00  0.00    +0.000 C 
ATOM      4  C   UNK A   0       3.920   2.952  19.367  0.00  0.00    +0.000 C 
ATOM      5  O   UNK A   0       2.825   2.258  19.793  0.00  0.00    +0.000 OA
ATOM      6  C   UNK A   0       1.570   2.928  19.812  0.00  0.00    +0.000 C 
ATOM      7  C   UNK A   0       1.112   2.985  21.269  0.00  0.00    +0.000 C 
ATOM      8  C   UNK A   0       0.597   2.092  18.982  0.00  0.00    +0.000 C 
ATOM      9  O   UNK A   0       1.499   4.262  19.299  0.00  0.00    +0.000 OA
ATOM     10  C   UNK A   0       2.574   4.885  18.794  0.00  0.00    +0.000 C 
ATOM     11  O   UNK A   0       2.482   5.998  18.293  0.00  0.00    +0.000 OA
BRANCH   4  12
ATOM     12  O   UNK A   0       5.112   2.255  19.462  0.00  0.00    +0.000 OA
ATOM     13  H   UNK A   0       5.712   2.596  18.766  0.00  0.00    +0.000 HD
ENDBRANCH   4  12
ENDBRANCH   2   3
BRANCH   1  14
ATOM     14  CA  THR A   1       7.164   5.933  18.257  0.00  0.00    +0.000 C 
BRANCH  14  16
ATOM     15  CG2 THR A   1       7.959   8.297  17.618  0.00  0.00    +0.000 C 
ATOM     16  CB  THR A   1       6.797   7.307  17.640  0.00  0.00    +0.000 C 
BRANCH  16  17
ATOM     17  OG1 THR A   1       6.290   7.194  16.309  0.00  0.00    +0.000 OA
ATOM     18  HG1 THR A   1       6.256   6.244  16.084  0.00  0.00    +0.000 HD
ENDBRANCH  16  17
ENDBRANCH  14  16
BRANCH  14  19
ATOM     19  C   THR A   1       7.685   4.911  17.246  0.00  0.00    +0.000 C 
ATOM     20  O   THR A   1       7.450   4.914  16.051  0.00  0.00    +0.000 OA
BRANCH  19  21
ATOM     21  OXT THR A   1       8.425   3.939  17.846  0.00  0.00    +0.000 OA
ATOM     22  HXT THR A   1       8.452   3.125  17.299  0.00  0.00    +0.000 HD
ENDBRANCH  19  21
ENDBRANCH  14  19
ENDBRANCH   1  14
TORSDOF 7
ENDMDL
MODEL 3
REMARK VINA RESULT:      -6.9      0.935      2.131
REMARK  Name = 
REMARK  10 active torsions:
REMARK  status: ('A' for Active; 'I' for Inactive)
REMARK    1  A    between atoms: CG2_1  and  CB_2
REMARK    2  A    between atoms: CB_2  and  OG1_3
REMARK    3  A    between atoms: CB_2  and  CA_4
REMARK    4  A    between atoms: CA_4  and  N_5
REMARK    5  A    between atoms: CA_4  and  C_17
REMARK    6  A    between atoms: C_6  and  C_7
REMARK    7  A    between atoms: C_8  and  O_9
REMARK    8  A    between atoms: C_11  and  C_12
REMARK    9  A    between atoms: C_11  and  C_13
REMARK   10  A    between atoms: C_17  and  OXT_19
REMARK                            x       y       z     vdW  Elec       q    Type
REMARK                         _______ _______ _______ _____ _____    ______ ____
ROOT
ATOM      1  N   THR A   1       5.493   4.456  16.894  0.00  0.00    +0.000 NA
ATOM      2  C   UNK A   0       4.602   5.072  17.615  0.00  0.00    +0.000 C 
ENDROOT
BRANCH   2   3
ATOM      3  C   UNK A   0       3.582   4.382  18.442  0.00  0.00    +0.000 C 
ATOM      4  C   UNK A   0       3.879   3.248  19.089  0.00  0.00    +0.000 C 
ATOM      5  O   UNK A   0       2.960   2.511  19.774  0.00  0.00    +0.000 OA
ATOM      6  C   UNK A   0       1.636   3.023  19.886  0.00  0.00    +0.000 C 
ATOM      7  C   UNK A   0       1.371   3.266  21.370  0.00  0.00    +0.000 C 
ATOM      8  C   UNK A   0       0.689   1.952  19.346  0.00  0.00    +0.000 C 
ATOM      9  O   UNK A   0       1.311   4.234  19.198  0.00  0.00    +0.000 OA
ATOM     10  C   UNK A   0       2.212   4.887  18.448  0.00  0.00    +0.000 C 
ATOM     11  O   UNK A   0       1.899   5.883  17.809  0.00  0.00    +0.000 OA
BRANCH   4  12
ATOM     12  O   UNK A   0       5.160   2.722  19.102  0.00  0.00    +0.000 OA
ATOM     13  H   UNK A   0       5.702   3.241  18.472  0.00  0.00    +0.000 HD
ENDBRANCH   4  12
ENDBRANCH   2   3
BRANCH   1  14
ATOM     14  CA  THR A   1       6.424   5.369  16.147  0.00  0.00    +0.000 C 
BRANCH  14  16
ATOM     15  CG2 THR A   1       6.134   4.047  13.957  0.00  0.00    +0.000 C 
ATOM     16  CB  THR A   1       7.113   4.704  14.928  0.00  0.00    +0.000 C 
BRANCH  16  17
ATOM     17  OG1 THR A   1       7.921   5.619  14.185  0.00  0.00    +0.000 OA
ATOM     18  HG1 THR A   1       7.417   6.451  14.090  0.00  0.00    +0.000 HD
ENDBRANCH  16  17
ENDBRANCH  14  16
BRANCH  14  19
ATOM     19  C   THR A   1       7.395   6.003  17.146  0.00  0.00    +0.000 C 
ATOM     20  O   THR A   1       7.766   5.498  18.189  0.00  0.00    +0.000 OA
BRANCH  19  21
ATOM     21  OXT THR A   1       7.777   7.249  16.757  0.00  0.00    +0.000 OA
ATOM     22  HXT THR A   1       8.220   7.729  17.489  0.00  0.00    +0.000 HD
ENDBRANCH  19  21
ENDBRANCH  14  19
ENDBRANCH   1  14
TORSDOF 7
ENDMDL
MODEL 4
REMARK VINA RESULT:      -6.8      1.340      2.348
REMARK  Name = 
REMARK  10 active torsions:
REMARK  status: ('A' for Active; 'I' for Inactive)
REMARK    1  A    between atoms: CG2_1  and  CB_2
REMARK    2  A    between atoms: CB_2  and  OG1_3
REMARK    3  A    between atoms: CB_2  and  CA_4
REMARK    4  A    between atoms: CA_4  and  N_5
REMARK    5  A    between atoms: CA_4  and  C_17
REMARK    6  A    between atoms: C_6  and  C_7
REMARK    7  A    between atoms: C_8  and  O_9
REMARK    8  A    between atoms: C_11  and  C_12
REMARK    9  A    between atoms: C_11  and  C_13
REMARK   10  A    between atoms: C_17  and  OXT_19
REMARK                            x       y       z     vdW  Elec       q    Type
REMARK                         _______ _______ _______ _____ _____    ______ ____
ROOT
ATOM      1  N   THR A   1       5.213   4.635  17.010  0.00  0.00    +0.000 NA
ATOM      2  C   UNK A   0       5.061   4.698  18.301  0.00  0.00    +0.000 C 
ENDROOT
BRANCH   2   3
ATOM      3  C   UNK A   0       3.883   4.164  19.024  0.00  0.00    +0.000 C 
ATOM      4  C   UNK A   0       3.591   2.857  18.986  0.00  0.00    +0.000 C 
ATOM      5  O   UNK A   0       2.465   2.322  19.538  0.00  0.00    +0.000 OA
ATOM      6  C   UNK A   0       1.602   3.183  20.273  0.00  0.00    +0.000 C 
ATOM      7  C   UNK A   0       1.588   2.681  21.716  0.00  0.00    +0.000 C 
ATOM      8  C   UNK A   0       0.210   3.065  19.656  0.00  0.00    +0.000 C 
ATOM      9  O   UNK A   0       1.908   4.581  20.319  0.00  0.00    +0.000 OA
ATOM     10  C   UNK A   0       2.971   5.095  19.683  0.00  0.00    +0.000 C 
ATOM     11  O   UNK A   0       3.178   6.301  19.673  0.00  0.00    +0.000 OA
BRANCH   4  12
ATOM     12  O   UNK A   0       4.416   1.936  18.363  0.00  0.00    +0.000 OA
ATOM     13  H   UNK A   0       4.180   1.921  17.412  0.00  0.00    +0.000 HD
ENDBRANCH   4  12
ENDBRANCH   2   3
BRANCH   1  14
ATOM     14  CA  THR A   1       6.495   5.240  16.507  0.00  0.00    +0.000 C 
BRANCH  14  16
ATOM     15  CG2 THR A   1       5.858   4.200  14.239  0.00  0.00    +0.000 C 
ATOM     16  CB  THR A   1       6.990   4.639  15.167  0.00  0.00    +0.000 C 
BRANCH  16  17
ATOM     17  OG1 THR A   1       7.832   5.535  14.440  0.00  0.00    +0.000 OA
ATOM     18  HG1 THR A   1       7.742   6.420  14.842  0.00  0.00    +0.000 HD
ENDBRANCH  16  17
ENDBRANCH  14  16
BRANCH  14  19
ATOM     19  C   THR A   1       7.530   5.198  17.633  0.00  0.00    +0.000 C 
ATOM     20  O   THR A   1       7.767   6.104  18.410  0.00  0.00    +0.000 OA
BRANCH  19  21
ATOM     21  OXT THR A   1       8.213   4.021  17.647  0.00  0.00    +0.000 OA
ATOM     22  HXT THR A   1       8.308   3.677  18.560  0.00  0.00    +0.000 HD
ENDBRANCH  19  21
ENDBRANCH  14  19
ENDBRANCH   1  14
TORSDOF 7
ENDMDL
MODEL 5
REMARK VINA RESULT:      -6.8      0.948      1.137
REMARK  Name = 
REMARK  10 active torsions:
REMARK  status: ('A' for Active; 'I' for Inactive)
REMARK    1  A    between atoms: CG2_1  and  CB_2
REMARK    2  A    between atoms: CB_2  and  OG1_3
REMARK    3  A    between atoms: CB_2  and  CA_4
REMARK    4  A    between atoms: CA_4  and  N_5
REMARK    5  A    between atoms: CA_4  and  C_17
REMARK    6  A    between atoms: C_6  and  C_7
REMARK    7  A    between atoms: C_8  and  O_9
REMARK    8  A    between atoms: C_11  and  C_12
REMARK    9  A    between atoms: C_11  and  C_13
REMARK   10  A    between atoms: C_17  and  OXT_19
REMARK                            x       y       z     vdW  Elec       q    Type
REMARK                         _______ _______ _______ _____ _____    ______ ____
ROOT
ATOM      1  N   THR A   1       6.162   4.400  18.182  0.00  0.00    +0.000 NA
ATOM      2  C   UNK A   0       5.307   4.892  19.031  0.00  0.00    +0.000 C 
ENDROOT
BRANCH   2   3
ATOM      3  C   UNK A   0       4.041   4.224  19.414  0.00  0.00    +0.000 C 
ATOM      4  C   UNK A   0       4.006   2.906  19.647  0.00  0.00    +0.000 C 
ATOM      5  O   UNK A   0       2.856   2.216  19.896  0.00  0.00    +0.000 OA
ATOM      6  C   UNK A   0       1.643   2.952  20.007  0.00  0.00    +0.000 C 
ATOM      7  C   UNK A   0       1.127   2.757  21.431  0.00  0.00    +0.000 C 
ATOM      8  C   UNK A   0       0.659   2.356  19.000  0.00  0.00    +0.000 C 
ATOM      9  O   UNK A   0       1.672   4.361  19.760  0.00  0.00    +0.000 OA
ATOM     10  C   UNK A   0       2.802   4.997  19.419  0.00  0.00    +0.000 C 
ATOM     11  O   UNK A   0       2.797   6.189  19.142  0.00  0.00    +0.000 OA
BRANCH   4  12
ATOM     12  O   UNK A   0       5.151   2.126  19.641  0.00  0.00    +0.000 OA
ATOM     13  H   UNK A   0       4.896   1.222  19.920  0.00  0.00    +0.000 HD
ENDBRANCH   4  12
ENDBRANCH   2   3
BRANCH   1  14
ATOM     14  CA  THR A   1       7.377   5.258  17.959  0.00  0.00    +0.000 C 
BRANCH  14  16
ATOM     15  CG2 THR A   1       8.523   5.377  20.261  0.00  0.00    +0.000 C 
ATOM     16  CB  THR A   1       7.759   6.135  19.178  0.00  0.00    +0.000 C 
BRANCH  16  17
ATOM     17  OG1 THR A   1       8.534   7.278  18.813  0.00  0.00    +0.000 OA
ATOM     18  HG1 THR A   1       9.178   6.997  18.134  0.00  0.00    +0.000 HD
ENDBRANCH  16  17
ENDBRANCH  14  16
BRANCH  14  19
ATOM     19  C   THR A   1       7.192   6.041  16.657  0.00  0.00    +0.000 C 
ATOM     20  O   THR A   1       7.521   5.659  15.549  0.00  0.00    +0.000 OA
BRANCH  19  21
ATOM     21  OXT THR A   1       6.643   7.266  16.879  0.00  0.00    +0.000 OA
ATOM     22  HXT THR A   1       6.379   7.372  17.817  0.00  0.00    +0.000 HD
ENDBRANCH  19  21
ENDBRANCH  14  19
ENDBRANCH   1  14
TORSDOF 7
ENDMDL
MODEL 6
REMARK VINA RESULT:      -6.8      1.507      2.955
REMARK  Name = 
REMARK  10 active torsions:
REMARK  status: ('A' for Active; 'I' for Inactive)
REMARK    1  A    between atoms: CG2_1  and  CB_2
REMARK    2  A    between atoms: CB_2  and  OG1_3
REMARK    3  A    between atoms: CB_2  and  CA_4
REMARK    4  A    between atoms: CA_4  and  N_5
REMARK    5  A    between atoms: CA_4  and  C_17
REMARK    6  A    between atoms: C_6  and  C_7
REMARK    7  A    between atoms: C_8  and  O_9
REMARK    8  A    between atoms: C_11  and  C_12
REMARK    9  A    between atoms: C_11  and  C_13
REMARK   10  A    between atoms: C_17  and  OXT_19
REMARK                            x       y       z     vdW  Elec       q    Type
REMARK                         _______ _______ _______ _____ _____    ______ ____
ROOT
ATOM      1  N   THR A   1       5.207   5.245  17.443  0.00  0.00    +0.000 NA
ATOM      2  C   UNK A   0       5.124   4.253  18.282  0.00  0.00    +0.000 C 
ENDROOT
BRANCH   2   3
ATOM      3  C   UNK A   0       3.877   3.860  18.981  0.00  0.00    +0.000 C 
ATOM      4  C   UNK A   0       3.237   4.726  19.776  0.00  0.00    +0.000 C 
ATOM      5  O   UNK A   0       2.150   4.394  20.529  0.00  0.00    +0.000 OA
ATOM      6  C   UNK A   0       1.612   3.083  20.390  0.00  0.00    +0.000 C 
ATOM      7  C   UNK A   0       0.192   3.235  19.845  0.00  0.00    +0.000 C 
ATOM      8  C   UNK A   0       1.581   2.456  21.783  0.00  0.00    +0.000 C 
ATOM      9  O   UNK A   0       2.289   2.152  19.541  0.00  0.00    +0.000 OA
ATOM     10  C   UNK A   0       3.415   2.478  18.888  0.00  0.00    +0.000 C 
ATOM     11  O   UNK A   0       4.022   1.649  18.223  0.00  0.00    +0.000 OA
BRANCH   4  12
ATOM     12  O   UNK A   0       3.643   6.043  19.908  0.00  0.00    +0.000 OA
ATOM     13  H   UNK A   0       4.224   6.253  19.148  0.00  0.00    +0.000 HD
ENDBRANCH   4  12
ENDBRANCH   2   3
BRANCH   1  14
ATOM     14  CA  THR A   1       6.576   5.446  16.856  0.00  0.00    +0.000 C 
BRANCH  14  16
ATOM     15  CG2 THR A   1       5.548   4.535  14.678  0.00  0.00    +0.000 C 
ATOM     16  CB  THR A   1       6.809   4.680  15.528  0.00  0.00    +0.000 C 
BRANCH  16  17
ATOM     17  OG1 THR A   1       7.820   5.279  14.717  0.00  0.00    +0.000 OA
ATOM     18  HG1 THR A   1       8.016   6.161  15.089  0.00  0.00    +0.000 HD
ENDBRANCH  16  17
ENDBRANCH  14  16
BRANCH  14  19
ATOM     19  C   THR A   1       7.620   5.158  17.936  0.00  0.00    +0.000 C 
ATOM     20  O   THR A   1       7.843   5.856  18.908  0.00  0.00    +0.000 OA
BRANCH  19  21
ATOM     21  OXT THR A   1       8.327   4.027  17.666  0.00  0.00    +0.000 OA
ATOM     22  HXT THR A   1       9.070   4.212  17.053  0.00  0.00    +0.000 HD
ENDBRANCH  19  21
ENDBRANCH  14  19
ENDBRANCH   1  14
TORSDOF 7
ENDMDL
MODEL 7
REMARK VINA RESULT:      -6.8      1.583      2.864
REMARK  Name = 
REMARK  10 active torsions:
REMARK  status: ('A' for Active; 'I' for Inactive)
REMARK    1  A    between atoms: CG2_1  and  CB_2
REMARK    2  A    between atoms: CB_2  and  OG1_3
REMARK    3  A    between atoms: CB_2  and  CA_4
REMARK    4  A    between atoms: CA_4  and  N_5
REMARK    5  A    between atoms: CA_4  and  C_17
REMARK    6  A    between atoms: C_6  and  C_7
REMARK    7  A    between atoms: C_8  and  O_9
REMARK    8  A    between atoms: C_11  and  C_12
REMARK    9  A    between atoms: C_11  and  C_13
REMARK   10  A    between atoms: C_17  and  OXT_19
REMARK                            x       y       z     vdW  Elec       q    Type
REMARK                         _______ _______ _______ _____ _____    ______ ____
ROOT
ATOM      1  N   THR A   1       5.597   5.444  18.358  0.00  0.00    +0.000 NA
ATOM      2  C   UNK A   0       5.162   5.022  19.510  0.00  0.00    +0.000 C 
ENDROOT
BRANCH   2   3
ATOM      3  C   UNK A   0       3.888   4.286  19.695  0.00  0.00    +0.000 C 
ATOM      4  C   UNK A   0       2.725   4.943  19.782  0.00  0.00    +0.000 C 
ATOM      5  O   UNK A   0       1.537   4.334  20.060  0.00  0.00    +0.000 OA
ATOM      6  C   UNK A   0       1.518   2.915  20.170  0.00  0.00    +0.000 C 
ATOM      7  C   UNK A   0       0.617   2.389  19.055  0.00  0.00    +0.000 C 
ATOM      8  C   UNK A   0       0.926   2.574  21.537  0.00  0.00    +0.000 C 
ATOM      9  O   UNK A   0       2.757   2.206  20.078  0.00  0.00    +0.000 OA
ATOM     10  C   UNK A   0       3.926   2.841  19.902  0.00  0.00    +0.000 C 
ATOM     11  O   UNK A   0       4.984   2.226  19.896  0.00  0.00    +0.000 OA
BRANCH   4  12
ATOM     12  O   UNK A   0       2.638   6.313  19.607  0.00  0.00    +0.000 OA
ATOM     13  H   UNK A   0       3.431   6.717  20.018  0.00  0.00    +0.000 HD
ENDBRANCH   4  12
ENDBRANCH   2   3
BRANCH   1  14
ATOM     14  CA  THR A   1       6.918   6.160  18.421  0.00  0.00    +0.000 C 
BRANCH  14  16
ATOM     15  CG2 THR A   1       8.031   8.329  17.592  0.00  0.00    +0.000 C 
ATOM     16  CB  THR A   1       7.168   7.121  17.231  0.00  0.00    +0.000 C 
BRANCH  16  17
ATOM     17  OG1 THR A   1       7.773   6.468  16.113  0.00  0.00    +0.000 OA
ATOM     18  HG1 THR A   1       7.316   5.614  15.985  0.00  0.00    +0.000 HD
ENDBRANCH  16  17
ENDBRANCH  14  16
BRANCH  14  19
ATOM     19  C   THR A   1       8.026   5.126  18.635  0.00  0.00    +0.000 C 
ATOM     20  O   THR A   1       8.326   4.240  17.857  0.00  0.00    +0.000 OA
BRANCH  19  21
ATOM     21  OXT THR A   1       8.630   5.277  19.845  0.00  0.00    +0.000 OA
ATOM     22  HXT THR A   1       8.832   6.219  20.025  0.00  0.00    +0.000 HD
ENDBRANCH  19  21
ENDBRANCH  14  19
ENDBRANCH   1  14
TORSDOF 7
ENDMDL
MODEL 8
REMARK VINA RESULT:      -6.7      1.116      1.258
REMARK  Name = 
REMARK  10 active torsions:
REMARK  status: ('A' for Active; 'I' for Inactive)
REMARK    1  A    between atoms: CG2_1  and  CB_2
REMARK    2  A    between atoms: CB_2  and  OG1_3
REMARK    3  A    between atoms: CB_2  and  CA_4
REMARK    4  A    between atoms: CA_4  and  N_5
REMARK    5  A    between atoms: CA_4  and  C_17
REMARK    6  A    between atoms: C_6  and  C_7
REMARK    7  A    between atoms: C_8  and  O_9
REMARK    8  A    between atoms: C_11  and  C_12
REMARK    9  A    between atoms: C_11  and  C_13
REMARK   10  A    between atoms: C_17  and  OXT_19
REMARK                            x       y       z     vdW  Elec       q    Type
REMARK                         _______ _______ _______ _____ _____    ______ ____
ROOT
ATOM      1  N   THR A   1       5.972   4.433  18.057  0.00  0.00    +0.000 NA
ATOM      2  C   UNK A   0       4.814   4.975  18.299  0.00  0.00    +0.000 C 
ENDROOT
BRANCH   2   3
ATOM      3  C   UNK A   0       3.732   4.311  19.065  0.00  0.00    +0.000 C 
ATOM      4  C   UNK A   0       3.562   2.985  18.999  0.00  0.00    +0.000 C 
ATOM      5  O   UNK A   0       2.522   2.330  19.591  0.00  0.00    +0.000 OA
ATOM      6  C   UNK A   0       1.625   3.084  20.398  0.00  0.00    +0.000 C 
ATOM      7  C   UNK A   0       1.737   2.542  21.822  0.00  0.00    +0.000 C 
ATOM      8  C   UNK A   0       0.218   2.851  19.851  0.00  0.00    +0.000 C 
ATOM      9  O   UNK A   0       1.801   4.502  20.475  0.00  0.00    +0.000 OA
ATOM     10  C   UNK A   0       2.775   5.133  19.801  0.00  0.00    +0.000 C 
ATOM     11  O   UNK A   0       2.868   6.353  19.820  0.00  0.00    +0.000 OA
BRANCH   4  12
ATOM     12  O   UNK A   0       4.433   2.164  18.304  0.00  0.00    +0.000 OA
ATOM     13  H   UNK A   0       4.145   2.149  17.367  0.00  0.00    +0.000 HD
ENDBRANCH   4  12
ENDBRANCH   2   3
BRANCH   1  14
ATOM     14  CA  THR A   1       6.910   5.302  17.266  0.00  0.00    +0.000 C 
BRANCH  14  16
ATOM     15  CG2 THR A   1       7.714   7.734  17.526  0.00  0.00    +0.000 C 
ATOM     16  CB  THR A   1       6.529   6.805  17.273  0.00  0.00    +0.000 C 
BRANCH  16  17
ATOM     17  OG1 THR A   1       5.897   7.218  16.060  0.00  0.00    +0.000 OA
ATOM     18  HG1 THR A   1       5.071   6.706  15.966  0.00  0.00    +0.000 HD
ENDBRANCH  16  17
ENDBRANCH  14  16
BRANCH  14  19
ATOM     19  C   THR A   1       7.071   4.703  15.868  0.00  0.00    +0.000 C 
ATOM     20  O   THR A   1       7.666   5.220  14.941  0.00  0.00    +0.000 OA
BRANCH  19  21
ATOM     21  OXT THR A   1       6.420   3.514  15.750  0.00  0.00    +0.000 OA
ATOM     22  HXT THR A   1       5.588   3.512  16.269  0.00  0.00    +0.000 HD
ENDBRANCH  19  21
ENDBRANCH  14  19
ENDBRANCH   1  14
TORSDOF 7
ENDMDL
MODEL 9
REMARK VINA RESULT:      -6.6      1.404      2.448
REMARK  Name = 
REMARK  10 active torsions:
REMARK  status: ('A' for Active; 'I' for Inactive)
REMARK    1  A    between atoms: CG2_1  and  CB_2
REMARK    2  A    between atoms: CB_2  and  OG1_3
REMARK    3  A    between atoms: CB_2  and  CA_4
REMARK    4  A    between atoms: CA_4  and  N_5
REMARK    5  A    between atoms: CA_4  and  C_17
REMARK    6  A    between atoms: C_6  and  C_7
REMARK    7  A    between atoms: C_8  and  O_9
REMARK    8  A    between atoms: C_11  and  C_12
REMARK    9  A    between atoms: C_11  and  C_13
REMARK   10  A    between atoms: C_17  and  OXT_19
REMARK                            x       y       z     vdW  Elec       q    Type
REMARK                         _______ _______ _______ _____ _____    ______ ____
ROOT
ATOM      1  N   THR A   1       4.973   4.525  16.314  0.00  0.00    +0.000 NA
ATOM      2  C   UNK A   0       4.626   5.156  17.398  0.00  0.00    +0.000 C 
ENDROOT
BRANCH   2   3
ATOM      3  C   UNK A   0       3.691   4.611  18.411  0.00  0.00    +0.000 C 
ATOM      4  C   UNK A   0       3.663   3.300  18.681  0.00  0.00    +0.000 C 
ATOM      5  O   UNK A   0       2.755   2.725  19.521  0.00  0.00    +0.000 OA
ATOM      6  C   UNK A   0       1.852   3.575  20.218  0.00  0.00    +0.000 C 
ATOM      7  C   UNK A   0       2.142   3.413  21.709  0.00  0.00    +0.000 C 
ATOM      8  C   UNK A   0       0.437   3.095  19.897  0.00  0.00    +0.000 C 
ATOM      9  O   UNK A   0       1.877   4.978  19.937  0.00  0.00    +0.000 OA
ATOM     10  C   UNK A   0       2.716   5.504  19.031  0.00  0.00    +0.000 C 
ATOM     11  O   UNK A   0       2.676   6.694  18.750  0.00  0.00    +0.000 OA
BRANCH   4  12
ATOM     12  O   UNK A   0       4.557   2.411  18.110  0.00  0.00    +0.000 OA
ATOM     13  H   UNK A   0       5.418   2.872  18.020  0.00  0.00    +0.000 HD
ENDBRANCH   4  12
ENDBRANCH   2   3
BRANCH   1  14
ATOM     14  CA  THR A   1       5.939   5.277  15.441  0.00  0.00    +0.000 C 
BRANCH  14  16
ATOM     15  CG2 THR A   1       7.451   5.129  13.363  0.00  0.00    +0.000 C 
ATOM     16  CB  THR A   1       6.206   4.602  14.072  0.00  0.00    +0.000 C 
BRANCH  16  17
ATOM     17  OG1 THR A   1       6.326   3.182  14.173  0.00  0.00    +0.000 OA
ATOM     18  HG1 THR A   1       7.126   2.988  14.699  0.00  0.00    +0.000 HD
ENDBRANCH  16  17
ENDBRANCH  14  16
BRANCH  14  19
ATOM     19  C   THR A   1       7.203   5.573  16.251  0.00  0.00    +0.000 C 
ATOM     20  O   THR A   1       7.625   6.682  16.523  0.00  0.00    +0.000 OA
BRANCH  19  21
ATOM     21  OXT THR A   1       7.851   4.432  16.609  0.00  0.00    +0.000 OA
ATOM     22  HXT THR A   1       8.809   4.596  16.744  0.00  0.00    +0.000 HD
ENDBRANCH  19  21
ENDBRANCH  14  19
ENDBRANCH   1  14
TORSDOF 7
ENDMDL
