MODEL 1
REMARK VINA RESULT:      -9.6      0.000      0.000
REMARK  Name = 
REMARK  6 active torsions:
REMARK  status: ('A' for Active; 'I' for Inactive)
REMARK    1  A    between atoms: C_2  and  C_3
REMARK    2  A    between atoms: N_5  and  C_6
REMARK    3  A    between atoms: C_9  and  N_10
REMARK    4  A    between atoms: C_12  and  C_13
REMARK    5  A    between atoms: C_16  and  O_17
REMARK    6  A    between atoms: O_17  and  C_18
REMARK                            x       y       z     vdW  Elec       q    Type
REMARK                         _______ _______ _______ _____ _____    ______ ____
ROOT
ATOM      1  N   UNL     1       4.748   5.602  18.205  0.00  0.00    +0.000 N 
ATOM      2  N   UNL     1       4.024   6.723  18.008  0.00  0.00    +0.000 NA
ATOM      3  C   UNL     1       2.937   6.611  18.781  0.00  0.00    +0.000 A 
ATOM      4  C   UNL     1       2.889   5.326  19.373  0.00  0.00    +0.000 A 
ATOM      5  C   UNL     1       1.977   4.599  20.223  0.00  0.00    +0.000 A 
ATOM      6  N   UNL     1       0.784   5.187  20.501  0.00  0.00    +0.000 N 
ATOM      7  N   UNL     1       2.279   3.418  20.685  0.00  0.00    +0.000 NA
ATOM      8  N   UNL     1       3.495   2.861  20.337  0.00  0.00    +0.000 N 
ATOM      9  C   UNL     1       4.457   3.429  19.515  0.00  0.00    +0.000 A 
ATOM     10  O   UNL     1       5.504   2.842  19.276  0.00  0.00    +0.000 OA
ATOM     11  C   UNL     1       4.088   4.722  19.015  0.00  0.00    +0.000 A 
ATOM     12  H   UNL     1       0.368   5.738  19.757  0.00  0.00    +0.000 HD
ATOM     13  H   UNL     1       0.124   4.548  20.929  0.00  0.00    +0.000 HD
ATOM     14  H   UNL     1       3.689   1.942  20.717  0.00  0.00    +0.000 HD
ENDROOT
BRANCH   1  18
ATOM     15  C   UNL     1       5.996   4.560  14.855  0.00  0.00    +0.000 C 
ATOM     16  C   UNL     1       5.703   6.028  15.191  0.00  0.00    +0.000 C 
ATOM     17  C   UNL     1       6.365   6.521  16.487  0.00  0.00    +0.000 C 
ATOM     18  C   UNL     1       6.127   5.576  17.697  0.00  0.00    +0.000 C 
ATOM     19  C   UNL     1       6.659   4.196  17.284  0.00  0.00    +0.000 C 
ATOM     20  C   UNL     1       5.934   3.630  16.071  0.00  0.00    +0.000 C 
BRANCH  15  23
ATOM     21  C   UNL     1       5.457   3.627  12.614  0.00  0.00    +0.000 C 
ATOM     22  O   UNL     1       6.619   3.570  12.236  0.00  0.00    +0.000 OA
ATOM     23  N   UNL     1       5.056   4.100  13.838  0.00  0.00    +0.000 N 
ATOM     24  H   UNL     1       4.099   3.951  14.128  0.00  0.00    +0.000 HD
BRANCH  21  26
ATOM     25  C   UNL     1       3.972   3.863  10.666  0.00  0.00    +0.000 C 
ATOM     26  C   UNL     1       4.310   3.191  11.774  0.00  0.00    +0.000 C 
ENDBRANCH  21  26
ENDBRANCH  15  23
ENDBRANCH   1  18
BRANCH   3  27
ATOM     27  C   UNL     1       2.052   7.767  18.914  0.00  0.00    +0.000 A 
ATOM     28  C   UNL     1       1.746   8.548  17.788  0.00  0.00    +0.000 A 
ATOM     29  C   UNL     1       0.948   9.688  17.909  0.00  0.00    +0.000 A 
ATOM     30  C   UNL     1       0.437  10.054  19.154  0.00  0.00    +0.000 A 
ATOM     31  C   UNL     1       0.773   9.311  20.287  0.00  0.00    +0.000 A 
ATOM     32  C   UNL     1       1.575   8.174  20.165  0.00  0.00    +0.000 A 
BRANCH  30  33
ATOM     33  O   UNL     1      -0.311  11.207  19.178  0.00  0.00    +0.000 OA
BRANCH  33  34
ATOM     34  C   UNL     1      -1.647  11.161  18.854  0.00  0.00    +0.000 A 
ATOM     35  C   UNL     1      -2.456  12.123  19.460  0.00  0.00    +0.000 A 
ATOM     36  C   UNL     1      -3.820  12.172  19.172  0.00  0.00    +0.000 A 
ATOM     37  C   UNL     1      -4.375  11.259  18.276  0.00  0.00    +0.000 A 
ATOM     38  C   UNL     1      -3.564  10.313  17.651  0.00  0.00    +0.000 A 
ATOM     39  C   UNL     1      -2.196  10.277  17.921  0.00  0.00    +0.000 A 
ENDBRANCH  33  34
ENDBRANCH  30  33
ENDBRANCH   3  27
TORSDOF 6
ENDMDL
MODEL 2
REMARK VINA RESULT:      -9.4      2.135      3.614
REMARK  Name = 
REMARK  6 active torsions:
REMARK  status: ('A' for Active; 'I' for Inactive)
REMARK    1  A    between atoms: C_2  and  C_3
REMARK    2  A    between atoms: N_5  and  C_6
REMARK    3  A    between atoms: C_9  and  N_10
REMARK    4  A    between atoms: C_12  and  C_13
REMARK    5  A    between atoms: C_16  and  O_17
REMARK    6  A    between atoms: O_17  and  C_18
REMARK                            x       y       z     vdW  Elec       q    Type
REMARK                         _______ _______ _______ _____ _____    ______ ____
ROOT
ATOM      1  N   UNL     1       4.016   4.583  17.915  0.00  0.00    +0.000 N 
ATOM      2  N   UNL     1       3.570   5.828  17.645  0.00  0.00    +0.000 NA
ATOM      3  C   UNL     1       2.800   6.185  18.679  0.00  0.00    +0.000 A 
ATOM      4  C   UNL     1       2.628   5.091  19.561  0.00  0.00    +0.000 A 
ATOM      5  C   UNL     1       1.888   4.831  20.773  0.00  0.00    +0.000 A 
ATOM      6  N   UNL     1       1.035   5.799  21.200  0.00  0.00    +0.000 N 
ATOM      7  N   UNL     1       2.019   3.705  21.415  0.00  0.00    +0.000 NA
ATOM      8  N   UNL     1       2.877   2.748  20.909  0.00  0.00    +0.000 N 
ATOM      9  C   UNL     1       3.632   2.848  19.749  0.00  0.00    +0.000 A 
ATOM     10  O   UNL     1       4.364   1.933  19.396  0.00  0.00    +0.000 OA
ATOM     11  C   UNL     1       3.455   4.095  19.061  0.00  0.00    +0.000 A 
ATOM     12  H   UNL     1       0.552   6.326  20.480  0.00  0.00    +0.000 HD
ATOM     13  H   UNL     1       0.412   5.475  21.931  0.00  0.00    +0.000 HD
ATOM     14  H   UNL     1       2.948   1.887  21.438  0.00  0.00    +0.000 HD
ENDROOT
BRANCH   1  18
ATOM     15  C   UNL     1       7.028   6.322  16.586  0.00  0.00    +0.000 C 
ATOM     16  C   UNL     1       7.065   5.519  17.893  0.00  0.00    +0.000 C 
ATOM     17  C   UNL     1       6.497   4.097  17.774  0.00  0.00    +0.000 C 
ATOM     18  C   UNL     1       5.104   4.047  17.085  0.00  0.00    +0.000 C 
ATOM     19  C   UNL     1       5.276   4.701  15.707  0.00  0.00    +0.000 C 
ATOM     20  C   UNL     1       5.724   6.153  15.802  0.00  0.00    +0.000 C 
BRANCH  15  23
ATOM     21  C   UNL     1       8.004   8.167  17.938  0.00  0.00    +0.000 C 
ATOM     22  O   UNL     1       8.548   7.433  18.751  0.00  0.00    +0.000 OA
ATOM     23  N   UNL     1       7.243   7.735  16.882  0.00  0.00    +0.000 N 
ATOM     24  H   UNL     1       6.977   8.401  16.168  0.00  0.00    +0.000 HD
BRANCH  21  26
ATOM     25  C   UNL     1       9.034  10.254  18.738  0.00  0.00    +0.000 C 
ATOM     26  C   UNL     1       8.093   9.650  18.001  0.00  0.00    +0.000 C 
ENDBRANCH  21  26
ENDBRANCH  15  23
ENDBRANCH   1  18
BRANCH   3  27
ATOM     27  C   UNL     1       2.323   7.565  18.750  0.00  0.00    +0.000 A 
ATOM     28  C   UNL     1       1.764   8.052  19.943  0.00  0.00    +0.000 A 
ATOM     29  C   UNL     1       1.252   9.350  20.010  0.00  0.00    +0.000 A 
ATOM     30  C   UNL     1       1.303  10.180  18.890  0.00  0.00    +0.000 A 
ATOM     31  C   UNL     1       1.815   9.691  17.687  0.00  0.00    +0.000 A 
ATOM     32  C   UNL     1       2.322   8.391  17.620  0.00  0.00    +0.000 A 
BRANCH  30  33
ATOM     33  O   UNL     1       0.747  11.428  19.044  0.00  0.00    +0.000 OA
BRANCH  33  34
ATOM     34  C   UNL     1      -0.621  11.570  19.037  0.00  0.00    +0.000 A 
ATOM     35  C   UNL     1      -1.157  12.369  20.048  0.00  0.00    +0.000 A 
ATOM     36  C   UNL     1      -2.532  12.594  20.107  0.00  0.00    +0.000 A 
ATOM     37  C   UNL     1      -3.372  12.022  19.153  0.00  0.00    +0.000 A 
ATOM     38  C   UNL     1      -2.837  11.244  18.128  0.00  0.00    +0.000 A 
ATOM     39  C   UNL     1      -1.459  11.037  18.055  0.00  0.00    +0.000 A 
ENDBRANCH  33  34
ENDBRANCH  30  33
ENDBRANCH   3  27
TORSDOF 6
ENDMDL
MODEL 3
REMARK VINA RESULT:      -9.3      0.410      1.219
REMARK  Name = 
REMARK  6 active torsions:
REMARK  status: ('A' for Active; 'I' for Inactive)
REMARK    1  A    between atoms: C_2  and  C_3
REMARK    2  A    between atoms: N_5  and  C_6
REMARK    3  A    between atoms: C_9  and  N_10
REMARK    4  A    between atoms: C_12  and  C_13
REMARK    5  A    between atoms: C_16  and  O_17
REMARK    6  A    between atoms: O_17  and  C_18
REMARK                            x       y       z     vdW  Elec       q    Type
REMARK                         _______ _______ _______ _____ _____    ______ ____
ROOT
ATOM      1  N   UNL     1       4.777   5.482  18.444  0.00  0.00    +0.000 N 
ATOM      2  N   UNL     1       4.127   6.638  18.194  0.00  0.00    +0.000 NA
ATOM      3  C   UNL     1       2.998   6.599  18.911  0.00  0.00    +0.000 A 
ATOM      4  C   UNL     1       2.849   5.328  19.517  0.00  0.00    +0.000 A 
ATOM      5  C   UNL     1       1.855   4.666  20.329  0.00  0.00    +0.000 A 
ATOM      6  N   UNL     1       0.684   5.324  20.536  0.00  0.00    +0.000 N 
ATOM      7  N   UNL     1       2.068   3.479  20.821  0.00  0.00    +0.000 NA
ATOM      8  N   UNL     1       3.266   2.850  20.545  0.00  0.00    +0.000 N 
ATOM      9  C   UNL     1       4.300   3.351  19.767  0.00  0.00    +0.000 A 
ATOM     10  O   UNL     1       5.324   2.704  19.591  0.00  0.00    +0.000 OA
ATOM     11  C   UNL     1       4.029   4.654  19.230  0.00  0.00    +0.000 A 
ATOM     12  H   UNL     1       0.338   5.884  19.764  0.00  0.00    +0.000 HD
ATOM     13  H   UNL     1      -0.031   4.729  20.938  0.00  0.00    +0.000 HD
ATOM     14  H   UNL     1       3.390   1.928  20.947  0.00  0.00    +0.000 HD
ENDROOT
BRANCH   1  18
ATOM     15  C   UNL     1       6.130   4.741  15.055  0.00  0.00    +0.000 C 
ATOM     16  C   UNL     1       5.964   6.178  15.565  0.00  0.00    +0.000 C 
ATOM     17  C   UNL     1       6.586   6.431  16.947  0.00  0.00    +0.000 C 
ATOM     18  C   UNL     1       6.177   5.373  18.009  0.00  0.00    +0.000 C 
ATOM     19  C   UNL     1       6.595   4.007  17.445  0.00  0.00    +0.000 C 
ATOM     20  C   UNL     1       5.897   3.679  16.133  0.00  0.00    +0.000 C 
BRANCH  15  23
ATOM     21  C   UNL     1       5.576   3.817  12.814  0.00  0.00    +0.000 C 
ATOM     22  O   UNL     1       6.685   3.343  12.612  0.00  0.00    +0.000 OA
ATOM     23  N   UNL     1       5.217   4.516  13.939  0.00  0.00    +0.000 N 
ATOM     24  H   UNL     1       4.239   4.719  14.095  0.00  0.00    +0.000 HD
BRANCH  21  26
ATOM     25  C   UNL     1       4.336   2.622  11.057  0.00  0.00    +0.000 C 
ATOM     26  C   UNL     1       4.457   3.700  11.841  0.00  0.00    +0.000 C 
ENDBRANCH  21  26
ENDBRANCH  15  23
ENDBRANCH   1  18
BRANCH   3  27
ATOM     27  C   UNL     1       2.173   7.803  18.982  0.00  0.00    +0.000 A 
ATOM     28  C   UNL     1       1.634   8.212  20.212  0.00  0.00    +0.000 A 
ATOM     29  C   UNL     1       0.798   9.328  20.286  0.00  0.00    +0.000 A 
ATOM     30  C   UNL     1       0.499  10.055  19.135  0.00  0.00    +0.000 A 
ATOM     31  C   UNL     1       0.991   9.630  17.899  0.00  0.00    +0.000 A 
ATOM     32  C   UNL     1       1.824   8.511  17.826  0.00  0.00    +0.000 A 
BRANCH  30  33
ATOM     33  O   UNL     1      -0.358  11.118  19.302  0.00  0.00    +0.000 OA
BRANCH  33  34
ATOM     34  C   UNL     1      -1.635  11.050  18.798  0.00  0.00    +0.000 A 
ATOM     35  C   UNL     1      -1.897   9.980  17.941  0.00  0.00    +0.000 A 
ATOM     36  C   UNL     1      -3.173   9.813  17.402  0.00  0.00    +0.000 A 
ATOM     37  C   UNL     1      -4.187  10.715  17.719  0.00  0.00    +0.000 A 
ATOM     38  C   UNL     1      -3.934  11.770  18.594  0.00  0.00    +0.000 A 
ATOM     39  C   UNL     1      -2.665  11.926  19.153  0.00  0.00    +0.000 A 
ENDBRANCH  33  34
ENDBRANCH  30  33
ENDBRANCH   3  27
TORSDOF 6
ENDMDL
MODEL 4
REMARK VINA RESULT:      -9.3      1.481      2.123
REMARK  Name = 
REMARK  6 active torsions:
REMARK  status: ('A' for Active; 'I' for Inactive)
REMARK    1  A    between atoms: C_2  and  C_3
REMARK    2  A    between atoms: N_5  and  C_6
REMARK    3  A    between atoms: C_9  and  N_10
REMARK    4  A    between atoms: C_12  and  C_13
REMARK    5  A    between atoms: C_16  and  O_17
REMARK    6  A    between atoms: O_17  and  C_18
REMARK                            x       y       z     vdW  Elec       q    Type
REMARK                         _______ _______ _______ _____ _____    ______ ____
ROOT
ATOM      1  N   UNL     1       4.761   5.589  18.178  0.00  0.00    +0.000 N 
ATOM      2  N   UNL     1       4.034   6.713  18.010  0.00  0.00    +0.000 NA
ATOM      3  C   UNL     1       2.955   6.585  18.790  0.00  0.00    +0.000 A 
ATOM      4  C   UNL     1       2.912   5.288  19.357  0.00  0.00    +0.000 A 
ATOM      5  C   UNL     1       2.008   4.543  20.200  0.00  0.00    +0.000 A 
ATOM      6  N   UNL     1       0.817   5.126  20.500  0.00  0.00    +0.000 N 
ATOM      7  N   UNL     1       2.315   3.354  20.634  0.00  0.00    +0.000 NA
ATOM      8  N   UNL     1       3.527   2.805  20.264  0.00  0.00    +0.000 N 
ATOM      9  C   UNL     1       4.482   3.389  19.446  0.00  0.00    +0.000 A 
ATOM     10  O   UNL     1       5.527   2.808  19.186  0.00  0.00    +0.000 OA
ATOM     11  C   UNL     1       4.108   4.692  18.975  0.00  0.00    +0.000 A 
ATOM     12  H   UNL     1       0.394   5.691  19.771  0.00  0.00    +0.000 HD
ATOM     13  H   UNL     1       0.162   4.478  20.921  0.00  0.00    +0.000 HD
ATOM     14  H   UNL     1       3.725   1.878  20.623  0.00  0.00    +0.000 HD
ENDROOT
BRANCH   1  18
ATOM     15  C   UNL     1       5.981   4.592  14.804  0.00  0.00    +0.000 C 
ATOM     16  C   UNL     1       5.687   6.054  15.161  0.00  0.00    +0.000 C 
ATOM     17  C   UNL     1       6.359   6.534  16.456  0.00  0.00    +0.000 C 
ATOM     18  C   UNL     1       6.135   5.574  17.657  0.00  0.00    +0.000 C 
ATOM     19  C   UNL     1       6.668   4.201  17.222  0.00  0.00    +0.000 C 
ATOM     20  C   UNL     1       5.934   3.647  16.009  0.00  0.00    +0.000 C 
BRANCH  15  23
ATOM     21  C   UNL     1       5.428   3.597  12.593  0.00  0.00    +0.000 C 
ATOM     22  O   UNL     1       6.590   3.461  12.239  0.00  0.00    +0.000 OA
ATOM     23  N   UNL     1       5.034   4.141  13.790  0.00  0.00    +0.000 N 
ATOM     24  H   UNL     1       4.066   4.056  14.069  0.00  0.00    +0.000 HD
BRANCH  21  26
ATOM     25  C   UNL     1       3.883   3.931  10.707  0.00  0.00    +0.000 C 
ATOM     26  C   UNL     1       4.272   3.188  11.752  0.00  0.00    +0.000 C 
ENDBRANCH  21  26
ENDBRANCH  15  23
ENDBRANCH   1  18
BRANCH   3  27
ATOM     27  C   UNL     1       2.070   7.738  18.955  0.00  0.00    +0.000 A 
ATOM     28  C   UNL     1       1.717   8.514  17.839  0.00  0.00    +0.000 A 
ATOM     29  C   UNL     1       0.920   9.651  17.989  0.00  0.00    +0.000 A 
ATOM     30  C   UNL     1       0.456  10.019  19.251  0.00  0.00    +0.000 A 
ATOM     31  C   UNL     1       0.839   9.281  20.372  0.00  0.00    +0.000 A 
ATOM     32  C   UNL     1       1.641   8.147  20.223  0.00  0.00    +0.000 A 
BRANCH  30  33
ATOM     33  O   UNL     1      -0.295  11.169  19.302  0.00  0.00    +0.000 OA
BRANCH  33  34
ATOM     34  C   UNL     1       0.331  12.393  19.321  0.00  0.00    +0.000 A 
ATOM     35  C   UNL     1      -0.357  13.441  18.709  0.00  0.00    +0.000 A 
ATOM     36  C   UNL     1       0.187  14.725  18.702  0.00  0.00    +0.000 A 
ATOM     37  C   UNL     1       1.419  14.963  19.309  0.00  0.00    +0.000 A 
ATOM     38  C   UNL     1       2.097  13.922  19.943  0.00  0.00    +0.000 A 
ATOM     39  C   UNL     1       1.543  12.642  19.970  0.00  0.00    +0.000 A 
ENDBRANCH  33  34
ENDBRANCH  30  33
ENDBRANCH   3  27
TORSDOF 6
ENDMDL
MODEL 5
REMARK VINA RESULT:      -9.2      2.850      4.474
REMARK  Name = 
REMARK  6 active torsions:
REMARK  status: ('A' for Active; 'I' for Inactive)
REMARK    1  A    between atoms: C_2  and  C_3
REMARK    2  A    between atoms: N_5  and  C_6
REMARK    3  A    between atoms: C_9  and  N_10
REMARK    4  A    between atoms: C_12  and  C_13
REMARK    5  A    between atoms: C_16  and  O_17
REMARK    6  A    between atoms: O_17  and  C_18
REMARK                            x       y       z     vdW  Elec       q    Type
REMARK                         _______ _______ _______ _____ _____    ______ ____
ROOT
ATOM      1  N   UNL     1       3.980   4.549  17.900  0.00  0.00    +0.000 N 
ATOM      2  N   UNL     1       3.553   5.801  17.630  0.00  0.00    +0.000 NA
ATOM      3  C   UNL     1       2.792   6.172  18.666  0.00  0.00    +0.000 A 
ATOM      4  C   UNL     1       2.605   5.082  19.550  0.00  0.00    +0.000 A 
ATOM      5  C   UNL     1       1.866   4.834  20.765  0.00  0.00    +0.000 A 
ATOM      6  N   UNL     1       1.030   5.816  21.194  0.00  0.00    +0.000 N 
ATOM      7  N   UNL     1       1.981   3.707  21.408  0.00  0.00    +0.000 NA
ATOM      8  N   UNL     1       2.823   2.736  20.900  0.00  0.00    +0.000 N 
ATOM      9  C   UNL     1       3.575   2.823  19.737  0.00  0.00    +0.000 A 
ATOM     10  O   UNL     1       4.292   1.896  19.383  0.00  0.00    +0.000 OA
ATOM     11  C   UNL     1       3.416   4.071  19.048  0.00  0.00    +0.000 A 
ATOM     12  H   UNL     1       0.553   6.349  20.475  0.00  0.00    +0.000 HD
ATOM     13  H   UNL     1       0.404   5.502  21.927  0.00  0.00    +0.000 HD
ATOM     14  H   UNL     1       2.882   1.875  21.430  0.00  0.00    +0.000 HD
ENDROOT
BRANCH   1  18
ATOM     15  C   UNL     1       7.024   6.235  16.575  0.00  0.00    +0.000 C 
ATOM     16  C   UNL     1       7.046   5.427  17.878  0.00  0.00    +0.000 C 
ATOM     17  C   UNL     1       6.451   4.016  17.754  0.00  0.00    +0.000 C 
ATOM     18  C   UNL     1       5.057   3.996  17.067  0.00  0.00    +0.000 C 
ATOM     19  C   UNL     1       5.240   4.652  15.691  0.00  0.00    +0.000 C 
ATOM     20  C   UNL     1       5.716   6.094  15.791  0.00  0.00    +0.000 C 
BRANCH  15  23
ATOM     21  C   UNL     1       8.016   8.056  17.947  0.00  0.00    +0.000 C 
ATOM     22  O   UNL     1       8.527   7.309  18.770  0.00  0.00    +0.000 OA
ATOM     23  N   UNL     1       7.266   7.643  16.875  0.00  0.00    +0.000 N 
ATOM     24  H   UNL     1       7.031   8.315  16.157  0.00  0.00    +0.000 HD
BRANCH  21  26
ATOM     25  C   UNL     1       9.049  10.118  18.805  0.00  0.00    +0.000 C 
ATOM     26  C   UNL     1       8.140   9.537  18.012  0.00  0.00    +0.000 C 
ENDBRANCH  21  26
ENDBRANCH  15  23
ENDBRANCH   1  18
BRANCH   3  27
ATOM     27  C   UNL     1       2.337   7.559  18.738  0.00  0.00    +0.000 A 
ATOM     28  C   UNL     1       1.783   8.054  19.930  0.00  0.00    +0.000 A 
ATOM     29  C   UNL     1       1.292   9.360  19.997  0.00  0.00    +0.000 A 
ATOM     30  C   UNL     1       1.359  10.190  18.878  0.00  0.00    +0.000 A 
ATOM     31  C   UNL     1       1.865   9.693  17.675  0.00  0.00    +0.000 A 
ATOM     32  C   UNL     1       2.351   8.386  17.608  0.00  0.00    +0.000 A 
BRANCH  30  33
ATOM     33  O   UNL     1       0.822  11.446  19.032  0.00  0.00    +0.000 OA
BRANCH  33  34
ATOM     34  C   UNL     1       1.650  12.515  19.286  0.00  0.00    +0.000 A 
ATOM     35  C   UNL     1       2.203  13.139  18.167  0.00  0.00    +0.000 A 
ATOM     36  C   UNL     1       3.033  14.248  18.323  0.00  0.00    +0.000 A 
ATOM     37  C   UNL     1       3.310  14.736  19.600  0.00  0.00    +0.000 A 
ATOM     38  C   UNL     1       2.739  14.129  20.718  0.00  0.00    +0.000 A 
ATOM     39  C   UNL     1       1.890  13.034  20.561  0.00  0.00    +0.000 A 
ENDBRANCH  33  34
ENDBRANCH  30  33
ENDBRANCH   3  27
TORSDOF 6
ENDMDL
MODEL 6
REMARK VINA RESULT:      -9.2      2.080      3.708
REMARK  Name = 
REMARK  6 active torsions:
REMARK  status: ('A' for Active; 'I' for Inactive)
REMARK    1  A    between atoms: C_2  and  C_3
REMARK    2  A    between atoms: N_5  and  C_6
REMARK    3  A    between atoms: C_9  and  N_10
REMARK    4  A    between atoms: C_12  and  C_13
REMARK    5  A    between atoms: C_16  and  O_17
REMARK    6  A    between atoms: O_17  and  C_18
REMARK                            x       y       z     vdW  Elec       q    Type
REMARK                         _______ _______ _______ _____ _____    ______ ____
ROOT
ATOM      1  N   UNL     1       3.946   4.198  17.402  0.00  0.00    +0.000 N 
ATOM      2  N   UNL     1       3.636   5.511  17.376  0.00  0.00    +0.000 NA
ATOM      3  C   UNL     1       2.718   5.700  18.331  0.00  0.00    +0.000 A 
ATOM      4  C   UNL     1       2.321   4.458  18.881  0.00  0.00    +0.000 A 
ATOM      5  C   UNL     1       1.361   4.005  19.860  0.00  0.00    +0.000 A 
ATOM      6  N   UNL     1       0.509   4.933  20.369  0.00  0.00    +0.000 N 
ATOM      7  N   UNL     1       1.303   2.755  20.220  0.00  0.00    +0.000 NA
ATOM      8  N   UNL     1       2.176   1.855  19.639  0.00  0.00    +0.000 N 
ATOM      9  C   UNL     1       3.130   2.139  18.673  0.00  0.00    +0.000 A 
ATOM     10  O   UNL     1       3.855   1.258  18.229  0.00  0.00    +0.000 OA
ATOM     11  C   UNL     1       3.160   3.521  18.290  0.00  0.00    +0.000 A 
ATOM     12  H   UNL     1       0.197   5.658  19.732  0.00  0.00    +0.000 HD
ATOM     13  H   UNL     1      -0.254   4.517  20.890  0.00  0.00    +0.000 HD
ATOM     14  H   UNL     1       2.096   0.893  19.947  0.00  0.00    +0.000 HD
ENDROOT
BRANCH   1  18
ATOM     15  C   UNL     1       6.975   6.138  16.442  0.00  0.00    +0.000 C 
ATOM     16  C   UNL     1       6.935   5.268  17.705  0.00  0.00    +0.000 C 
ATOM     17  C   UNL     1       6.450   3.831  17.465  0.00  0.00    +0.000 C 
ATOM     18  C   UNL     1       5.129   3.755  16.650  0.00  0.00    +0.000 C 
ATOM     19  C   UNL     1       5.391   4.489  15.327  0.00  0.00    +0.000 C 
ATOM     20  C   UNL     1       5.757   5.953  15.534  0.00  0.00    +0.000 C 
BRANCH  15  23
ATOM     21  C   UNL     1       7.823   7.957  17.910  0.00  0.00    +0.000 C 
ATOM     22  O   UNL     1       8.415   7.213  18.678  0.00  0.00    +0.000 OA
ATOM     23  N   UNL     1       7.094   7.541  16.824  0.00  0.00    +0.000 N 
ATOM     24  H   UNL     1       6.784   8.230  16.152  0.00  0.00    +0.000 HD
BRANCH  21  26
ATOM     25  C   UNL     1       8.946  10.116  18.271  0.00  0.00    +0.000 C 
ATOM     26  C   UNL     1       7.812   9.436  18.063  0.00  0.00    +0.000 C 
ENDBRANCH  21  26
ENDBRANCH  15  23
ENDBRANCH   1  18
BRANCH   3  27
ATOM     27  C   UNL     1       2.324   7.069  18.660  0.00  0.00    +0.000 A 
ATOM     28  C   UNL     1       1.982   7.402  19.981  0.00  0.00    +0.000 A 
ATOM     29  C   UNL     1       1.550   8.691  20.300  0.00  0.00    +0.000 A 
ATOM     30  C   UNL     1       1.465   9.665  19.306  0.00  0.00    +0.000 A 
ATOM     31  C   UNL     1       1.758   9.334  17.982  0.00  0.00    +0.000 A 
ATOM     32  C   UNL     1       2.185   8.043  17.663  0.00  0.00    +0.000 A 
BRANCH  30  33
ATOM     33  O   UNL     1       1.000  10.895  19.711  0.00  0.00    +0.000 OA
BRANCH  33  34
ATOM     34  C   UNL     1      -0.310  11.240  19.473  0.00  0.00    +0.000 A 
ATOM     35  C   UNL     1      -0.985  10.461  18.533  0.00  0.00    +0.000 A 
ATOM     36  C   UNL     1      -2.326  10.719  18.245  0.00  0.00    +0.000 A 
ATOM     37  C   UNL     1      -2.992  11.755  18.898  0.00  0.00    +0.000 A 
ATOM     38  C   UNL     1      -2.326  12.518  19.856  0.00  0.00    +0.000 A 
ATOM     39  C   UNL     1      -0.992  12.247  20.161  0.00  0.00    +0.000 A 
ENDBRANCH  33  34
ENDBRANCH  30  33
ENDBRANCH   3  27
TORSDOF 6
ENDMDL
MODEL 7
REMARK VINA RESULT:      -9.1      2.253      3.901
REMARK  Name = 
REMARK  6 active torsions:
REMARK  status: ('A' for Active; 'I' for Inactive)
REMARK    1  A    between atoms: C_2  and  C_3
REMARK    2  A    between atoms: N_5  and  C_6
REMARK    3  A    between atoms: C_9  and  N_10
REMARK    4  A    between atoms: C_12  and  C_13
REMARK    5  A    between atoms: C_16  and  O_17
REMARK    6  A    between atoms: O_17  and  C_18
REMARK                            x       y       z     vdW  Elec       q    Type
REMARK                         _______ _______ _______ _____ _____    ______ ____
ROOT
ATOM      1  N   UNL     1       3.966   4.098  17.275  0.00  0.00    +0.000 N 
ATOM      2  N   UNL     1       3.662   5.404  17.428  0.00  0.00    +0.000 NA
ATOM      3  C   UNL     1       2.751   5.467  18.406  0.00  0.00    +0.000 A 
ATOM      4  C   UNL     1       2.352   4.163  18.788  0.00  0.00    +0.000 A 
ATOM      5  C   UNL     1       1.397   3.587  19.704  0.00  0.00    +0.000 A 
ATOM      6  N   UNL     1       0.552   4.441  20.340  0.00  0.00    +0.000 N 
ATOM      7  N   UNL     1       1.336   2.300  19.895  0.00  0.00    +0.000 NA
ATOM      8  N   UNL     1       2.201   1.483  19.192  0.00  0.00    +0.000 N 
ATOM      9  C   UNL     1       3.150   1.890  18.266  0.00  0.00    +0.000 A 
ATOM     10  O   UNL     1       3.868   1.074  17.702  0.00  0.00    +0.000 OA
ATOM     11  C   UNL     1       3.183   3.311  18.072  0.00  0.00    +0.000 A 
ATOM     12  H   UNL     1       0.240   5.246  19.807  0.00  0.00    +0.000 HD
ATOM     13  H   UNL     1      -0.209   3.962  20.806  0.00  0.00    +0.000 HD
ATOM     14  H   UNL     1       2.119   0.489  19.369  0.00  0.00    +0.000 HD
ENDROOT
BRANCH   1  18
ATOM     15  C   UNL     1       6.882   6.224  16.358  0.00  0.00    +0.000 C 
ATOM     16  C   UNL     1       6.917   5.275  17.562  0.00  0.00    +0.000 C 
ATOM     17  C   UNL     1       6.484   3.836  17.242  0.00  0.00    +0.000 C 
ATOM     18  C   UNL     1       5.142   3.756  16.463  0.00  0.00    +0.000 C 
ATOM     19  C   UNL     1       5.332   4.584  15.184  0.00  0.00    +0.000 C 
ATOM     20  C   UNL     1       5.643   6.046  15.475  0.00  0.00    +0.000 C 
BRANCH  15  23
ATOM     21  C   UNL     1       7.786   8.001  17.844  0.00  0.00    +0.000 C 
ATOM     22  O   UNL     1       8.519   7.254  18.477  0.00  0.00    +0.000 OA
ATOM     23  N   UNL     1       6.954   7.604  16.828  0.00  0.00    +0.000 N 
ATOM     24  H   UNL     1       6.517   8.311  16.252  0.00  0.00    +0.000 HD
BRANCH  21  26
ATOM     25  C   UNL     1       8.785  10.173  18.427  0.00  0.00    +0.000 C 
ATOM     26  C   UNL     1       7.696   9.462  18.109  0.00  0.00    +0.000 C 
ENDBRANCH  21  26
ENDBRANCH  15  23
ENDBRANCH   1  18
BRANCH   3  27
ATOM     27  C   UNL     1       2.366   6.781  18.918  0.00  0.00    +0.000 A 
ATOM     28  C   UNL     1       2.051   6.938  20.278  0.00  0.00    +0.000 A 
ATOM     29  C   UNL     1       1.627   8.175  20.771  0.00  0.00    +0.000 A 
ATOM     30  C   UNL     1       1.523   9.270  19.914  0.00  0.00    +0.000 A 
ATOM     31  C   UNL     1       1.788   9.113  18.553  0.00  0.00    +0.000 A 
ATOM     32  C   UNL     1       2.208   7.876  18.060  0.00  0.00    +0.000 A 
BRANCH  30  33
ATOM     33  O   UNL     1       1.067  10.435  20.485  0.00  0.00    +0.000 OA
BRANCH  33  34
ATOM     34  C   UNL     1       0.445  11.379  19.703  0.00  0.00    +0.000 A 
ATOM     35  C   UNL     1       1.193  12.521  19.412  0.00  0.00    +0.000 A 
ATOM     36  C   UNL     1       0.656  13.522  18.603  0.00  0.00    +0.000 A 
ATOM     37  C   UNL     1      -0.629  13.382  18.082  0.00  0.00    +0.000 A 
ATOM     38  C   UNL     1      -1.369  12.231  18.351  0.00  0.00    +0.000 A 
ATOM     39  C   UNL     1      -0.825  11.219  19.141  0.00  0.00    +0.000 A 
ENDBRANCH  33  34
ENDBRANCH  30  33
ENDBRANCH   3  27
TORSDOF 6
ENDMDL
MODEL 8
REMARK VINA RESULT:      -9.0      1.454      2.179
REMARK  Name = 
REMARK  6 active torsions:
REMARK  status: ('A' for Active; 'I' for Inactive)
REMARK    1  A    between atoms: C_2  and  C_3
REMARK    2  A    between atoms: N_5  and  C_6
REMARK    3  A    between atoms: C_9  and  N_10
REMARK    4  A    between atoms: C_12  and  C_13
REMARK    5  A    between atoms: C_16  and  O_17
REMARK    6  A    between atoms: O_17  and  C_18
REMARK                            x       y       z     vdW  Elec       q    Type
REMARK                         _______ _______ _______ _____ _____    ______ ____
ROOT
ATOM      1  N   UNL     1       4.780   5.489  18.476  0.00  0.00    +0.000 N 
ATOM      2  N   UNL     1       4.111   6.646  18.290  0.00  0.00    +0.000 NA
ATOM      3  C   UNL     1       2.983   6.548  19.003  0.00  0.00    +0.000 A 
ATOM      4  C   UNL     1       2.855   5.244  19.538  0.00  0.00    +0.000 A 
ATOM      5  C   UNL     1       1.872   4.521  20.310  0.00  0.00    +0.000 A 
ATOM      6  N   UNL     1       0.690   5.147  20.552  0.00  0.00    +0.000 N 
ATOM      7  N   UNL     1       2.104   3.312  20.736  0.00  0.00    +0.000 NA
ATOM      8  N   UNL     1       3.313   2.720  20.426  0.00  0.00    +0.000 N 
ATOM      9  C   UNL     1       4.338   3.280  19.678  0.00  0.00    +0.000 A 
ATOM     10  O   UNL     1       5.372   2.660  19.467  0.00  0.00    +0.000 OA
ATOM     11  C   UNL     1       4.045   4.606  19.215  0.00  0.00    +0.000 A 
ATOM     12  H   UNL     1       0.335   5.743  19.812  0.00  0.00    +0.000 HD
ATOM     13  H   UNL     1      -0.015   4.519  20.919  0.00  0.00    +0.000 HD
ATOM     14  H   UNL     1       3.451   1.779  20.776  0.00  0.00    +0.000 HD
ENDROOT
BRANCH   1  18
ATOM     15  C   UNL     1       6.148   4.776  15.087  0.00  0.00    +0.000 C 
ATOM     16  C   UNL     1       5.932   6.210  15.590  0.00  0.00    +0.000 C 
ATOM     17  C   UNL     1       6.549   6.493  16.968  0.00  0.00    +0.000 C 
ATOM     18  C   UNL     1       6.182   5.427  18.037  0.00  0.00    +0.000 C 
ATOM     19  C   UNL     1       6.646   4.073  17.480  0.00  0.00    +0.000 C 
ATOM     20  C   UNL     1       5.957   3.713  16.172  0.00  0.00    +0.000 C 
BRANCH  15  23
ATOM     21  C   UNL     1       5.625   3.834  12.846  0.00  0.00    +0.000 C 
ATOM     22  O   UNL     1       6.754   3.413  12.637  0.00  0.00    +0.000 OA
ATOM     23  N   UNL     1       5.241   4.512  13.976  0.00  0.00    +0.000 N 
ATOM     24  H   UNL     1       4.255   4.669  14.138  0.00  0.00    +0.000 HD
BRANCH  21  26
ATOM     25  C   UNL     1       4.439   2.595  11.083  0.00  0.00    +0.000 C 
ATOM     26  C   UNL     1       4.507   3.668  11.880  0.00  0.00    +0.000 C 
ENDBRANCH  21  26
ENDBRANCH  15  23
ENDBRANCH   1  18
BRANCH   3  27
ATOM     27  C   UNL     1       2.138   7.733  19.140  0.00  0.00    +0.000 A 
ATOM     28  C   UNL     1       1.618   8.082  20.397  0.00  0.00    +0.000 A 
ATOM     29  C   UNL     1       0.764   9.178  20.533  0.00  0.00    +0.000 A 
ATOM     30  C   UNL     1       0.428   9.945  19.419  0.00  0.00    +0.000 A 
ATOM     31  C   UNL     1       0.901   9.581  18.157  0.00  0.00    +0.000 A 
ATOM     32  C   UNL     1       1.752   8.481  18.021  0.00  0.00    +0.000 A 
BRANCH  30  33
ATOM     33  O   UNL     1      -0.444  10.984  19.647  0.00  0.00    +0.000 OA
BRANCH  33  34
ATOM     34  C   UNL     1      -0.005  12.282  19.526  0.00  0.00    +0.000 A 
ATOM     35  C   UNL     1       1.056  12.647  20.355  0.00  0.00    +0.000 A 
ATOM     36  C   UNL     1       1.588  13.935  20.284  0.00  0.00    +0.000 A 
ATOM     37  C   UNL     1       1.060  14.857  19.382  0.00  0.00    +0.000 A 
ATOM     38  C   UNL     1       0.016  14.487  18.535  0.00  0.00    +0.000 A 
ATOM     39  C   UNL     1      -0.501  13.192  18.590  0.00  0.00    +0.000 A 
ENDBRANCH  33  34
ENDBRANCH  30  33
ENDBRANCH   3  27
TORSDOF 6
ENDMDL
MODEL 9
REMARK VINA RESULT:      -9.0      2.145      3.709
REMARK  Name = 
REMARK  6 active torsions:
REMARK  status: ('A' for Active; 'I' for Inactive)
REMARK    1  A    between atoms: C_2  and  C_3
REMARK    2  A    between atoms: N_5  and  C_6
REMARK    3  A    between atoms: C_9  and  N_10
REMARK    4  A    between atoms: C_12  and  C_13
REMARK    5  A    between atoms: C_16  and  O_17
REMARK    6  A    between atoms: O_17  and  C_18
REMARK                            x       y       z     vdW  Elec       q    Type
REMARK                         _______ _______ _______ _____ _____    ______ ____
ROOT
ATOM      1  N   UNL     1       4.015   4.005  17.238  0.00  0.00    +0.000 N 
ATOM      2  N   UNL     1       3.674   5.306  17.342  0.00  0.00    +0.000 NA
ATOM      3  C   UNL     1       2.746   5.377  18.303  0.00  0.00    +0.000 A 
ATOM      4  C   UNL     1       2.377   4.077  18.724  0.00  0.00    +0.000 A 
ATOM      5  C   UNL     1       1.423   3.506  19.645  0.00  0.00    +0.000 A 
ATOM      6  N   UNL     1       0.546   4.358  20.238  0.00  0.00    +0.000 N 
ATOM      7  N   UNL     1       1.394   2.225  19.879  0.00  0.00    +0.000 NA
ATOM      8  N   UNL     1       2.291   1.409  19.217  0.00  0.00    +0.000 N 
ATOM      9  C   UNL     1       3.244   1.810  18.292  0.00  0.00    +0.000 A 
ATOM     10  O   UNL     1       3.992   0.996  17.767  0.00  0.00    +0.000 OA
ATOM     11  C   UNL     1       3.241   3.224  18.049  0.00  0.00    +0.000 A 
ATOM     12  H   UNL     1       0.220   5.136  19.674  0.00  0.00    +0.000 HD
ATOM     13  H   UNL     1      -0.209   3.874  20.709  0.00  0.00    +0.000 HD
ATOM     14  H   UNL     1       2.233   0.419  19.427  0.00  0.00    +0.000 HD
ENDROOT
BRANCH   1  18
ATOM     15  C   UNL     1       6.922   6.157  16.355  0.00  0.00    +0.000 C 
ATOM     16  C   UNL     1       6.944   5.224  17.572  0.00  0.00    +0.000 C 
ATOM     17  C   UNL     1       6.537   3.776  17.262  0.00  0.00    +0.000 C 
ATOM     18  C   UNL     1       5.213   3.668  16.456  0.00  0.00    +0.000 C 
ATOM     19  C   UNL     1       5.419   4.482  15.170  0.00  0.00    +0.000 C 
ATOM     20  C   UNL     1       5.706   5.950  15.448  0.00  0.00    +0.000 C 
BRANCH  15  23
ATOM     21  C   UNL     1       7.782   7.967  17.827  0.00  0.00    +0.000 C 
ATOM     22  O   UNL     1       8.521   7.240  18.476  0.00  0.00    +0.000 OA
ATOM     23  N   UNL     1       6.967   7.543  16.808  0.00  0.00    +0.000 N 
ATOM     24  H   UNL     1       6.524   8.236  16.219  0.00  0.00    +0.000 HD
BRANCH  21  26
ATOM     25  C   UNL     1       8.740  10.163  18.386  0.00  0.00    +0.000 C 
ATOM     26  C   UNL     1       7.665   9.429  18.073  0.00  0.00    +0.000 C 
ENDBRANCH  21  26
ENDBRANCH  15  23
ENDBRANCH   1  18
BRANCH   3  27
ATOM     27  C   UNL     1       2.318   6.697  18.764  0.00  0.00    +0.000 A 
ATOM     28  C   UNL     1       2.236   7.764  17.855  0.00  0.00    +0.000 A 
ATOM     29  C   UNL     1       1.883   9.044  18.291  0.00  0.00    +0.000 A 
ATOM     30  C   UNL     1       1.597   9.269  19.637  0.00  0.00    +0.000 A 
ATOM     31  C   UNL     1       1.720   8.226  20.556  0.00  0.00    +0.000 A 
ATOM     32  C   UNL     1       2.078   6.948  20.120  0.00  0.00    +0.000 A 
BRANCH  30  33
ATOM     33  O   UNL     1       1.290  10.566  19.974  0.00  0.00    +0.000 OA
BRANCH  33  34
ATOM     34  C   UNL     1       0.248  11.206  19.346  0.00  0.00    +0.000 A 
ATOM     35  C   UNL     1      -0.994  10.576  19.427  0.00  0.00    +0.000 A 
ATOM     36  C   UNL     1      -2.116  11.163  18.844  0.00  0.00    +0.000 A 
ATOM     37  C   UNL     1      -1.997  12.383  18.179  0.00  0.00    +0.000 A 
ATOM     38  C   UNL     1      -0.762  13.027  18.118  0.00  0.00    +0.000 A 
ATOM     39  C   UNL     1       0.356  12.451  18.720  0.00  0.00    +0.000 A 
ENDBRANCH  33  34
ENDBRANCH  30  33
ENDBRANCH   3  27
TORSDOF 6
ENDMDL
