MODEL 1
REMARK VINA RESULT:      -6.1      0.000      0.000
REMARK  Name = 
REMARK  0 active torsions:
REMARK  status: ('A' for Active; 'I' for Inactive)
REMARK                            x       y       z     vdW  Elec       q    Type
REMARK                         _______ _______ _______ _____ _____    ______ ____
ROOT
ATOM      1 BR   UNL     1       3.292  14.322  20.649  0.00  0.00    +0.000 Br
ATOM      2  C   UNL     1       1.670  13.431  20.248  0.00  0.00    +0.000 A 
ATOM      3  C   UNL     1       1.638  12.495  19.217  0.00  0.00    +0.000 A 
ATOM      4  C   UNL     1       0.440  11.845  18.913  0.00  0.00    +0.000 A 
ATOM      5  C   UNL     1      -0.716  12.137  19.640  0.00  0.00    +0.000 A 
ATOM      6  C   UNL     1      -0.664  13.036  20.714  0.00  0.00    +0.000 A 
ATOM      7  C   UNL     1       0.528  13.712  20.996  0.00  0.00    +0.000 A 
ATOM      8  O   UNL     1      -1.823  13.263  21.410  0.00  0.00    +0.000 OA
ATOM      9  C   UNL     1      -1.652  13.309  22.834  0.00  0.00    +0.000 C 
ATOM     10  C   UNL     1      -2.821  12.598  23.516  0.00  0.00    +0.000 C 
ATOM     11  O   UNL     1      -3.978  13.440  23.532  0.00  0.00    +0.000 OA
ATOM     12  C   UNL     1      -5.016  12.903  24.363  0.00  0.00    +0.000 C 
ATOM     13  C   UNL     1      -6.367  13.049  23.665  0.00  0.00    +0.000 C 
ATOM     14  O   UNL     1      -6.583  11.893  22.852  0.00  0.00    +0.000 OA
ATOM     15  C   UNL     1      -7.840  11.938  22.172  0.00  0.00    +0.000 C 
ATOM     16  C   UNL     1      -7.847  10.859  21.093  0.00  0.00    +0.000 C 
ATOM     17  O   UNL     1      -7.015  11.289  20.010  0.00  0.00    +0.000 OA
ATOM     18  C   UNL     1      -6.757  10.236  19.078  0.00  0.00    +0.000 C 
ATOM     19  C   UNL     1      -5.939  10.799  17.916  0.00  0.00    +0.000 C 
ATOM     20  O   UNL     1      -4.538  10.662  18.183  0.00  0.00    +0.000 OA
ATOM     21  C   UNL     1      -3.823  11.878  17.946  0.00  0.00    +0.000 C 
ATOM     22  C   UNL     1      -2.316  11.630  18.011  0.00  0.00    +0.000 C 
ATOM     23  O   UNL     1      -1.906  11.508  19.381  0.00  0.00    +0.000 OA
ENDROOT
TORSDOF 0
ENDMDL
MODEL 2
REMARK VINA RESULT:      -6.0      4.707      6.266
REMARK  Name = 
REMARK  0 active torsions:
REMARK  status: ('A' for Active; 'I' for Inactive)
REMARK                            x       y       z     vdW  Elec       q    Type
REMARK                         _______ _______ _______ _____ _____    ______ ____
ROOT
ATOM      1 BR   UNL     1       2.230   5.553  19.915  0.00  0.00    +0.000 Br
ATOM      2  C   UNL     1       1.973   7.383  19.501  0.00  0.00    +0.000 A 
ATOM      3  C   UNL     1       2.210   7.833  18.205  0.00  0.00    +0.000 A 
ATOM      4  C   UNL     1       2.032   9.184  17.901  0.00  0.00    +0.000 A 
ATOM      5  C   UNL     1       1.621  10.075  18.895  0.00  0.00    +0.000 A 
ATOM      6  C   UNL     1       1.328   9.605  20.183  0.00  0.00    +0.000 A 
ATOM      7  C   UNL     1       1.539   8.258  20.496  0.00  0.00    +0.000 A 
ATOM      8  O   UNL     1       0.901  10.519  21.111  0.00  0.00    +0.000 OA
ATOM      9  C   UNL     1      -0.191  10.064  21.923  0.00  0.00    +0.000 C 
ATOM     10  C   UNL     1      -1.184  11.206  22.139  0.00  0.00    +0.000 C 
ATOM     11  O   UNL     1      -0.696  12.111  23.134  0.00  0.00    +0.000 OA
ATOM     12  C   UNL     1      -1.697  13.059  23.528  0.00  0.00    +0.000 C 
ATOM     13  C   UNL     1      -1.078  14.451  23.642  0.00  0.00    +0.000 C 
ATOM     14  O   UNL     1      -1.150  15.084  22.362  0.00  0.00    +0.000 OA
ATOM     15  C   UNL     1      -0.606  16.407  22.382  0.00  0.00    +0.000 C 
ATOM     16  C   UNL     1      -0.418  16.876  20.942  0.00  0.00    +0.000 C 
ATOM     17  O   UNL     1       0.713  16.197  20.383  0.00  0.00    +0.000 OA
ATOM     18  C   UNL     1       0.804  16.379  18.968  0.00  0.00    +0.000 C 
ATOM     19  C   UNL     1       2.079  15.701  18.467  0.00  0.00    +0.000 C 
ATOM     20  O   UNL     1       1.804  14.344  18.094  0.00  0.00    +0.000 OA
ATOM     21  C   UNL     1       2.751  13.430  18.657  0.00  0.00    +0.000 C 
ATOM     22  C   UNL     1       2.569  12.038  18.050  0.00  0.00    +0.000 C 
ATOM     23  O   UNL     1       1.420  11.404  18.631  0.00  0.00    +0.000 OA
ENDROOT
TORSDOF 0
ENDMDL
MODEL 3
REMARK VINA RESULT:      -5.9      4.438      6.712
REMARK  Name = 
REMARK  0 active torsions:
REMARK  status: ('A' for Active; 'I' for Inactive)
REMARK                            x       y       z     vdW  Elec       q    Type
REMARK                         _______ _______ _______ _____ _____    ______ ____
ROOT
ATOM      1 BR   UNL     1       2.436   6.858  18.304  0.00  0.00    +0.000 Br
ATOM      2  C   UNL     1       1.799   8.206  19.471  0.00  0.00    +0.000 A 
ATOM      3  C   UNL     1       1.538   7.893  20.803  0.00  0.00    +0.000 A 
ATOM      4  C   UNL     1       1.057   8.883  21.663  0.00  0.00    +0.000 A 
ATOM      5  C   UNL     1       0.840  10.177  21.184  0.00  0.00    +0.000 A 
ATOM      6  C   UNL     1       1.160  10.499  19.857  0.00  0.00    +0.000 A 
ATOM      7  C   UNL     1       1.609   9.499  18.988  0.00  0.00    +0.000 A 
ATOM      8  O   UNL     1       0.953  11.792  19.450  0.00  0.00    +0.000 OA
ATOM      9  C   UNL     1       2.012  12.330  18.645  0.00  0.00    +0.000 C 
ATOM     10  C   UNL     1       2.269  13.785  19.037  0.00  0.00    +0.000 C 
ATOM     11  O   UNL     1       1.273  14.640  18.466  0.00  0.00    +0.000 OA
ATOM     12  C   UNL     1       1.610  16.025  18.617  0.00  0.00    +0.000 C 
ATOM     13  C   UNL     1       0.372  16.819  19.030  0.00  0.00    +0.000 C 
ATOM     14  O   UNL     1       0.283  16.807  20.457  0.00  0.00    +0.000 OA
ATOM     15  C   UNL     1      -0.845  17.546  20.934  0.00  0.00    +0.000 C 
ATOM     16  C   UNL     1      -1.054  17.213  22.409  0.00  0.00    +0.000 C 
ATOM     17  O   UNL     1      -1.616  15.899  22.506  0.00  0.00    +0.000 OA
ATOM     18  C   UNL     1      -1.604  15.407  23.848  0.00  0.00    +0.000 C 
ATOM     19  C   UNL     1      -2.296  14.045  23.877  0.00  0.00    +0.000 C 
ATOM     20  O   UNL     1      -1.338  12.997  23.675  0.00  0.00    +0.000 OA
ATOM     21  C   UNL     1      -1.767  12.061  22.682  0.00  0.00    +0.000 C 
ATOM     22  C   UNL     1      -0.842  10.843  22.665  0.00  0.00    +0.000 C 
ATOM     23  O   UNL     1       0.385  11.179  22.000  0.00  0.00    +0.000 OA
ENDROOT
TORSDOF 0
ENDMDL
MODEL 4
REMARK VINA RESULT:      -5.8      4.057      6.136
REMARK  Name = 
REMARK  0 active torsions:
REMARK  status: ('A' for Active; 'I' for Inactive)
REMARK                            x       y       z     vdW  Elec       q    Type
REMARK                         _______ _______ _______ _____ _____    ______ ____
ROOT
ATOM      1 BR   UNL     1       2.310   7.742  18.172  0.00  0.00    +0.000 Br
ATOM      2  C   UNL     1       1.554   8.973  19.396  0.00  0.00    +0.000 A 
ATOM      3  C   UNL     1       1.449   8.627  20.741  0.00  0.00    +0.000 A 
ATOM      4  C   UNL     1       0.881   9.529  21.643  0.00  0.00    +0.000 A 
ATOM      5  C   UNL     1       0.422  10.770  21.193  0.00  0.00    +0.000 A 
ATOM      6  C   UNL     1       0.584  11.134  19.849  0.00  0.00    +0.000 A 
ATOM      7  C   UNL     1       1.121  10.217  18.940  0.00  0.00    +0.000 A 
ATOM      8  O   UNL     1       0.141  12.375  19.470  0.00  0.00    +0.000 OA
ATOM      9  C   UNL     1       1.035  13.074  18.593  0.00  0.00    +0.000 C 
ATOM     10  C   UNL     1       1.081  14.553  18.976  0.00  0.00    +0.000 C 
ATOM     11  O   UNL     1      -0.079  15.233  18.490  0.00  0.00    +0.000 OA
ATOM     12  C   UNL     1       0.040  16.656  18.627  0.00  0.00    +0.000 C 
ATOM     13  C   UNL     1      -1.276  17.240  19.140  0.00  0.00    +0.000 C 
ATOM     14  O   UNL     1      -1.253  17.219  20.569  0.00  0.00    +0.000 OA
ATOM     15  C   UNL     1      -2.446  17.768  21.136  0.00  0.00    +0.000 C 
ATOM     16  C   UNL     1      -2.486  17.410  22.620  0.00  0.00    +0.000 C 
ATOM     17  O   UNL     1      -2.819  16.023  22.747  0.00  0.00    +0.000 OA
ATOM     18  C   UNL     1      -2.626  15.544  24.080  0.00  0.00    +0.000 C 
ATOM     19  C   UNL     1      -3.085  14.088  24.149  0.00  0.00    +0.000 C 
ATOM     20  O   UNL     1      -1.988  13.209  23.866  0.00  0.00    +0.000 OA
ATOM     21  C   UNL     1      -2.334  12.211  22.900  0.00  0.00    +0.000 C 
ATOM     22  C   UNL     1      -1.228  11.160  22.803  0.00  0.00    +0.000 C 
ATOM     23  O   UNL     1      -0.126  11.687  22.051  0.00  0.00    +0.000 OA
ENDROOT
TORSDOF 0
ENDMDL
MODEL 5
REMARK VINA RESULT:      -5.7      2.796      4.835
REMARK  Name = 
REMARK  0 active torsions:
REMARK  status: ('A' for Active; 'I' for Inactive)
REMARK                            x       y       z     vdW  Elec       q    Type
REMARK                         _______ _______ _______ _____ _____    ______ ____
ROOT
ATOM      1 BR   UNL     1       2.215   8.536  17.912  0.00  0.00    +0.000 Br
ATOM      2  C   UNL     1       1.228  10.107  18.288  0.00  0.00    +0.000 A 
ATOM      3  C   UNL     1       1.895  11.324  18.412  0.00  0.00    +0.000 A 
ATOM      4  C   UNL     1       1.170  12.482  18.700  0.00  0.00    +0.000 A 
ATOM      5  C   UNL     1      -0.216  12.415  18.863  0.00  0.00    +0.000 A 
ATOM      6  C   UNL     1      -0.888  11.198  18.680  0.00  0.00    +0.000 A 
ATOM      7  C   UNL     1      -0.157  10.033  18.425  0.00  0.00    +0.000 A 
ATOM      8  O   UNL     1      -2.251  11.197  18.825  0.00  0.00    +0.000 OA
ATOM      9  C   UNL     1      -2.946  10.433  17.829  0.00  0.00    +0.000 C 
ATOM     10  C   UNL     1      -4.216  11.172  17.406  0.00  0.00    +0.000 C 
ATOM     11  O   UNL     1      -5.243  11.004  18.387  0.00  0.00    +0.000 OA
ATOM     12  C   UNL     1      -6.510  11.484  17.919  0.00  0.00    +0.000 C 
ATOM     13  C   UNL     1      -7.210  12.269  19.027  0.00  0.00    +0.000 C 
ATOM     14  O   UNL     1      -6.796  13.635  18.943  0.00  0.00    +0.000 OA
ATOM     15  C   UNL     1      -7.420  14.450  19.939  0.00  0.00    +0.000 C 
ATOM     16  C   UNL     1      -6.691  15.790  19.996  0.00  0.00    +0.000 C 
ATOM     17  O   UNL     1      -5.431  15.597  20.651  0.00  0.00    +0.000 OA
ATOM     18  C   UNL     1      -4.577  16.735  20.518  0.00  0.00    +0.000 C 
ATOM     19  C   UNL     1      -3.296  16.482  21.314  0.00  0.00    +0.000 C 
ATOM     20  O   UNL     1      -2.307  15.867  20.480  0.00  0.00    +0.000 OA
ATOM     21  C   UNL     1      -1.713  14.724  21.103  0.00  0.00    +0.000 C 
ATOM     22  C   UNL     1      -0.509  14.242  20.292  0.00  0.00    +0.000 C 
ATOM     23  O   UNL     1      -0.963  13.532  19.131  0.00  0.00    +0.000 OA
ENDROOT
TORSDOF 0
ENDMDL
MODEL 6
REMARK VINA RESULT:      -5.6      3.618      6.114
REMARK  Name = 
REMARK  0 active torsions:
REMARK  status: ('A' for Active; 'I' for Inactive)
REMARK                            x       y       z     vdW  Elec       q    Type
REMARK                         _______ _______ _______ _____ _____    ______ ____
ROOT
ATOM      1 BR   UNL     1       1.461   7.670  20.828  0.00  0.00    +0.000 Br
ATOM      2  C   UNL     1       0.511   9.181  21.462  0.00  0.00    +0.000 A 
ATOM      3  C   UNL     1      -0.037   9.161  22.742  0.00  0.00    +0.000 A 
ATOM      4  C   UNL     1      -0.747  10.269  23.207  0.00  0.00    +0.000 A 
ATOM      5  C   UNL     1      -0.906  11.389  22.387  0.00  0.00    +0.000 A 
ATOM      6  C   UNL     1      -0.303  11.426  21.122  0.00  0.00    +0.000 A 
ATOM      7  C   UNL     1       0.379  10.302  20.644  0.00  0.00    +0.000 A 
ATOM      8  O   UNL     1      -0.468  12.562  20.372  0.00  0.00    +0.000 OA
ATOM      9  C   UNL     1       0.723  13.002  19.704  0.00  0.00    +0.000 C 
ATOM     10  C   UNL     1       0.815  14.527  19.768  0.00  0.00    +0.000 C 
ATOM     11  O   UNL     1      -0.059  15.122  18.805  0.00  0.00    +0.000 OA
ATOM     12  C   UNL     1       0.171  16.532  18.676  0.00  0.00    +0.000 C 
ATOM     13  C   UNL     1      -1.164  17.271  18.606  0.00  0.00    +0.000 C 
ATOM     14  O   UNL     1      -1.579  17.581  19.938  0.00  0.00    +0.000 OA
ATOM     15  C   UNL     1      -2.819  18.294  19.965  0.00  0.00    +0.000 C 
ATOM     16  C   UNL     1      -3.348  18.292  21.397  0.00  0.00    +0.000 C 
ATOM     17  O   UNL     1      -3.857  16.987  21.695  0.00  0.00    +0.000 OA
ATOM     18  C   UNL     1      -4.133  16.822  23.088  0.00  0.00    +0.000 C 
ATOM     19  C   UNL     1      -4.751  15.441  23.305  0.00  0.00    +0.000 C 
ATOM     20  O   UNL     1      -3.726  14.477  23.578  0.00  0.00    +0.000 OA
ATOM     21  C   UNL     1      -3.871  13.297  22.780  0.00  0.00    +0.000 C 
ATOM     22  C   UNL     1      -2.913  12.208  23.263  0.00  0.00    +0.000 C 
ATOM     23  O   UNL     1      -1.582  12.502  22.813  0.00  0.00    +0.000 OA
ENDROOT
TORSDOF 0
ENDMDL
MODEL 7
REMARK VINA RESULT:      -5.6      2.489      5.482
REMARK  Name = 
REMARK  0 active torsions:
REMARK  status: ('A' for Active; 'I' for Inactive)
REMARK                            x       y       z     vdW  Elec       q    Type
REMARK                         _______ _______ _______ _____ _____    ______ ____
ROOT
ATOM      1 BR   UNL     1      -0.866  16.026  26.578  0.00  0.00    +0.000 Br
ATOM      2  C   UNL     1      -1.819  15.474  25.038  0.00  0.00    +0.000 A 
ATOM      3  C   UNL     1      -3.052  16.054  24.749  0.00  0.00    +0.000 A 
ATOM      4  C   UNL     1      -3.762  15.640  23.621  0.00  0.00    +0.000 A 
ATOM      5  C   UNL     1      -3.234  14.649  22.789  0.00  0.00    +0.000 A 
ATOM      6  C   UNL     1      -1.967  14.112  23.053  0.00  0.00    +0.000 A 
ATOM      7  C   UNL     1      -1.272  14.502  24.203  0.00  0.00    +0.000 A 
ATOM      8  O   UNL     1      -1.486  13.163  22.187  0.00  0.00    +0.000 OA
ATOM      9  C   UNL     1      -0.102  13.325  21.850  0.00  0.00    +0.000 C 
ATOM     10  C   UNL     1       0.105  13.024  20.365  0.00  0.00    +0.000 C 
ATOM     11  O   UNL     1       0.116  11.612  20.137  0.00  0.00    +0.000 OA
ATOM     12  C   UNL     1       0.536  11.291  18.804  0.00  0.00    +0.000 C 
ATOM     13  C   UNL     1      -0.355  10.191  18.230  0.00  0.00    +0.000 C 
ATOM     14  O   UNL     1      -1.482  10.804  17.600  0.00  0.00    +0.000 OA
ATOM     15  C   UNL     1      -2.364   9.842  17.016  0.00  0.00    +0.000 C 
ATOM     16  C   UNL     1      -3.677  10.538  16.666  0.00  0.00    +0.000 C 
ATOM     17  O   UNL     1      -4.406  10.775  17.876  0.00  0.00    +0.000 OA
ATOM     18  C   UNL     1      -5.519  11.647  17.672  0.00  0.00    +0.000 C 
ATOM     19  C   UNL     1      -6.288  11.777  18.986  0.00  0.00    +0.000 C 
ATOM     20  O   UNL     1      -5.789  12.885  19.746  0.00  0.00    +0.000 OA
ATOM     21  C   UNL     1      -5.531  12.530  21.108  0.00  0.00    +0.000 C 
ATOM     22  C   UNL     1      -5.230  13.781  21.934  0.00  0.00    +0.000 C 
ATOM     23  O   UNL     1      -3.894  14.229  21.664  0.00  0.00    +0.000 OA
ENDROOT
TORSDOF 0
ENDMDL
MODEL 8
REMARK VINA RESULT:      -5.5      2.050      4.664
REMARK  Name = 
REMARK  0 active torsions:
REMARK  status: ('A' for Active; 'I' for Inactive)
REMARK                            x       y       z     vdW  Elec       q    Type
REMARK                         _______ _______ _______ _____ _____    ______ ____
ROOT
ATOM      1 BR   UNL     1       2.194   8.682  17.863  0.00  0.00    +0.000 Br
ATOM      2  C   UNL     1       1.092   9.898  18.807  0.00  0.00    +0.000 A 
ATOM      3  C   UNL     1       1.671  10.807  19.691  0.00  0.00    +0.000 A 
ATOM      4  C   UNL     1       0.860  11.697  20.396  0.00  0.00    +0.000 A 
ATOM      5  C   UNL     1      -0.525  11.671  20.215  0.00  0.00    +0.000 A 
ATOM      6  C   UNL     1      -1.096  10.795  19.281  0.00  0.00    +0.000 A 
ATOM      7  C   UNL     1      -0.286   9.880  18.601  0.00  0.00    +0.000 A 
ATOM      8  O   UNL     1      -2.458  10.833  19.124  0.00  0.00    +0.000 OA
ATOM      9  C   UNL     1      -2.893  10.769  17.759  0.00  0.00    +0.000 C 
ATOM     10  C   UNL     1      -4.067  11.725  17.546  0.00  0.00    +0.000 C 
ATOM     11  O   UNL     1      -5.275  11.154  18.057  0.00  0.00    +0.000 OA
ATOM     12  C   UNL     1      -6.428  11.914  17.670  0.00  0.00    +0.000 C 
ATOM     13  C   UNL     1      -7.379  12.055  18.858  0.00  0.00    +0.000 C 
ATOM     14  O   UNL     1      -7.007  13.220  19.598  0.00  0.00    +0.000 OA
ATOM     15  C   UNL     1      -7.861  13.440  20.724  0.00  0.00    +0.000 C 
ATOM     16  C   UNL     1      -7.211  14.481  21.631  0.00  0.00    +0.000 C 
ATOM     17  O   UNL     1      -6.116  13.868  22.321  0.00  0.00    +0.000 OA
ATOM     18  C   UNL     1      -5.296  14.828  22.990  0.00  0.00    +0.000 C 
ATOM     19  C   UNL     1      -4.209  14.087  23.769  0.00  0.00    +0.000 C 
ATOM     20  O   UNL     1      -3.041  13.921  22.956  0.00  0.00    +0.000 OA
ATOM     21  C   UNL     1      -2.555  12.575  22.981  0.00  0.00    +0.000 C 
ATOM     22  C   UNL     1      -1.187  12.492  22.302  0.00  0.00    +0.000 C 
ATOM     23  O   UNL     1      -1.353  12.540  20.877  0.00  0.00    +0.000 OA
ENDROOT
TORSDOF 0
ENDMDL
MODEL 9
REMARK VINA RESULT:      -5.5      2.940      6.047
REMARK  Name = 
REMARK  0 active torsions:
REMARK  status: ('A' for Active; 'I' for Inactive)
REMARK                            x       y       z     vdW  Elec       q    Type
REMARK                         _______ _______ _______ _____ _____    ______ ____
ROOT
ATOM      1 BR   UNL     1      -4.664  17.529  25.323  0.00  0.00    +0.000 Br
ATOM      2  C   UNL     1      -3.735  16.177  24.378  0.00  0.00    +0.000 A 
ATOM      3  C   UNL     1      -2.593  15.609  24.938  0.00  0.00    +0.000 A 
ATOM      4  C   UNL     1      -1.900  14.620  24.237  0.00  0.00    +0.000 A 
ATOM      5  C   UNL     1      -2.353  14.207  22.981  0.00  0.00    +0.000 A 
ATOM      6  C   UNL     1      -3.535  14.742  22.449  0.00  0.00    +0.000 A 
ATOM      7  C   UNL     1      -4.209  15.757  23.136  0.00  0.00    +0.000 A 
ATOM      8  O   UNL     1      -3.947  14.280  21.226  0.00  0.00    +0.000 OA
ATOM      9  C   UNL     1      -5.357  14.030  21.138  0.00  0.00    +0.000 C 
ATOM     10  C   UNL     1      -5.604  12.748  20.341  0.00  0.00    +0.000 C 
ATOM     11  O   UNL     1      -5.464  12.996  18.939  0.00  0.00    +0.000 OA
ATOM     12  C   UNL     1      -5.913  11.884  18.154  0.00  0.00    +0.000 C 
ATOM     13  C   UNL     1      -4.933  11.625  17.011  0.00  0.00    +0.000 C 
ATOM     14  O   UNL     1      -3.918  10.734  17.479  0.00  0.00    +0.000 OA
ATOM     15  C   UNL     1      -2.962  10.421  16.462  0.00  0.00    +0.000 C 
ATOM     16  C   UNL     1      -1.758   9.751  17.118  0.00  0.00    +0.000 C 
ATOM     17  O   UNL     1      -1.000  10.748  17.811  0.00  0.00    +0.000 OA
ATOM     18  C   UNL     1      -0.007  10.174  18.664  0.00  0.00    +0.000 C 
ATOM     19  C   UNL     1       0.810  11.301  19.295  0.00  0.00    +0.000 C 
ATOM     20  O   UNL     1       0.227  11.697  20.543  0.00  0.00    +0.000 OA
ATOM     21  C   UNL     1       0.082  13.117  20.642  0.00  0.00    +0.000 C 
ATOM     22  C   UNL     1      -0.318  13.512  22.064  0.00  0.00    +0.000 C 
ATOM     23  O   UNL     1      -1.709  13.228  22.271  0.00  0.00    +0.000 OA
ENDROOT
TORSDOF 0
ENDMDL
