MODEL 1
REMARK VINA RESULT:      -6.9      0.000      0.000
REMARK  Name = 
REMARK  9 active torsions:
REMARK  status: ('A' for Active; 'I' for Inactive)
REMARK    1  A    between atoms: C_1  and  C_2
REMARK    2  A    between atoms: C_2  and  C_3
REMARK    3  A    between atoms: C_3  and  S_4
REMARK    4  A    between atoms: S_4  and  C_5
REMARK    5  A    between atoms: N_11  and  C_12
REMARK    6  A    between atoms: N_20  and  C_21
REMARK    7  A    between atoms: C_21  and  C_22
REMARK    8  A    between atoms: C_22  and  C_23
REMARK    9  A    between atoms: C_22  and  C_24
REMARK                            x       y       z     vdW  Elec       q    Type
REMARK                         _______ _______ _______ _____ _____    ______ ____
ROOT
ATOM      1  C   UNL     1       4.163   6.333  17.356  0.00  0.00    +0.000 A 
ATOM      2  N   UNL     1       3.501   7.461  17.644  0.00  0.00    +0.000 NA
ATOM      3  C   UNL     1       2.651   7.480  18.695  0.00  0.00    +0.000 A 
ATOM      4  N   UNL     1       2.093   8.732  18.998  0.00  0.00    +0.000 N 
ATOM      5  C   UNL     1       1.910   9.649  17.850  0.00  0.00    +0.000 C 
ATOM      6  C   UNL     1       1.698  11.107  18.326  0.00  0.00    +0.000 C 
ATOM      7  N   UNL     1       0.594  11.248  19.298  0.00  0.00    +0.000 NA
ATOM      8  C   UNL     1       0.479  12.628  19.767  0.00  0.00    +0.000 C 
ATOM      9  C   UNL     1       0.862  10.353  20.439  0.00  0.00    +0.000 C 
ATOM     10  C   UNL     1       1.049   8.879  20.027  0.00  0.00    +0.000 C 
ATOM     11  C   UNL     1       2.465   6.312  19.463  0.00  0.00    +0.000 A 
ATOM     12  N   UNL     1       1.550   6.242  20.543  0.00  0.00    +0.000 NA
ATOM     13  C   UNL     1       1.559   5.197  21.296  0.00  0.00    +0.000 A 
ATOM     14  C   UNL     1       2.461   4.021  21.083  0.00  0.00    +0.000 A 
ATOM     15  O   UNL     1       2.452   3.147  21.939  0.00  0.00    +0.000 OA
ATOM     16  N   UNL     1       3.206   4.037  19.919  0.00  0.00    +0.000 N 
ATOM     17  C   UNL     1       3.244   5.201  19.096  0.00  0.00    +0.000 A 
ATOM     18  N   UNL     1       4.074   5.192  18.040  0.00  0.00    +0.000 NA
ENDROOT
BRANCH   1  19
ATOM     19  S   UNL     1       5.306   6.372  15.999  0.00  0.00    +0.000 S 
BRANCH  19  20
ATOM     20  C   UNL     1       6.708   5.551  16.822  0.00  0.00    +0.000 C 
BRANCH  20  22
ATOM     21  C   UNL     1       7.773   5.956  19.066  0.00  0.00    +0.000 C 
ATOM     22  C   UNL     1       7.464   6.547  17.698  0.00  0.00    +0.000 C 
ENDBRANCH  20  22
ENDBRANCH  19  20
ENDBRANCH   1  19
BRANCH  16  23
ATOM     23  C   UNL     1       4.019   2.876  19.576  0.00  0.00    +0.000 C 
BRANCH  23  24
ATOM     24  C   UNL     1       3.279   1.788  18.773  0.00  0.00    +0.000 C 
ATOM     25  C   UNL     1       1.768   2.018  18.712  0.00  0.00    +0.000 C 
ATOM     26  C   UNL     1       3.843   1.734  17.350  0.00  0.00    +0.000 C 
ENDBRANCH  23  24
ENDBRANCH  16  23
TORSDOF 5
ENDMDL
MODEL 2
REMARK VINA RESULT:      -6.8      0.741      1.260
REMARK  Name = 
REMARK  9 active torsions:
REMARK  status: ('A' for Active; 'I' for Inactive)
REMARK    1  A    between atoms: C_1  and  C_2
REMARK    2  A    between atoms: C_2  and  C_3
REMARK    3  A    between atoms: C_3  and  S_4
REMARK    4  A    between atoms: S_4  and  C_5
REMARK    5  A    between atoms: N_11  and  C_12
REMARK    6  A    between atoms: N_20  and  C_21
REMARK    7  A    between atoms: C_21  and  C_22
REMARK    8  A    between atoms: C_22  and  C_23
REMARK    9  A    between atoms: C_22  and  C_24
REMARK                            x       y       z     vdW  Elec       q    Type
REMARK                         _______ _______ _______ _____ _____    ______ ____
ROOT
ATOM      1  C   UNL     1       4.115   6.332  17.373  0.00  0.00    +0.000 A 
ATOM      2  N   UNL     1       3.431   7.435  17.704  0.00  0.00    +0.000 NA
ATOM      3  C   UNL     1       2.608   7.406  18.776  0.00  0.00    +0.000 A 
ATOM      4  N   UNL     1       2.024   8.635  19.122  0.00  0.00    +0.000 N 
ATOM      5  C   UNL     1       1.786   9.572  18.001  0.00  0.00    +0.000 C 
ATOM      6  C   UNL     1       1.547  11.013  18.516  0.00  0.00    +0.000 C 
ATOM      7  N   UNL     1       0.465  11.101  19.519  0.00  0.00    +0.000 NA
ATOM      8  C   UNL     1       0.325  12.466  20.023  0.00  0.00    +0.000 C 
ATOM      9  C   UNL     1       0.786  10.188  20.631  0.00  0.00    +0.000 C 
ATOM     10  C   UNL     1       1.003   8.730  20.180  0.00  0.00    +0.000 C 
ATOM     11  C   UNL     1       2.474   6.216  19.521  0.00  0.00    +0.000 A 
ATOM     12  N   UNL     1       1.589   6.096  20.621  0.00  0.00    +0.000 NA
ATOM     13  C   UNL     1       1.646   5.034  21.349  0.00  0.00    +0.000 A 
ATOM     14  C   UNL     1       2.574   3.890  21.086  0.00  0.00    +0.000 A 
ATOM     15  O   UNL     1       2.610   2.996  21.921  0.00  0.00    +0.000 OA
ATOM     16  N   UNL     1       3.287   3.953  19.904  0.00  0.00    +0.000 N 
ATOM     17  C   UNL     1       3.272   5.136  19.108  0.00  0.00    +0.000 A 
ATOM     18  N   UNL     1       4.076   5.174  18.032  0.00  0.00    +0.000 NA
ENDROOT
BRANCH   1  19
ATOM     19  S   UNL     1       5.222   6.434  15.990  0.00  0.00    +0.000 S 
BRANCH  19  20
ATOM     20  C   UNL     1       6.427   5.181  16.532  0.00  0.00    +0.000 C 
BRANCH  20  22
ATOM     21  C   UNL     1       5.838   4.146  14.315  0.00  0.00    +0.000 C 
ATOM     22  C   UNL     1       6.943   4.391  15.332  0.00  0.00    +0.000 C 
ENDBRANCH  20  22
ENDBRANCH  19  20
ENDBRANCH   1  19
BRANCH  16  23
ATOM     23  C   UNL     1       4.123   2.823  19.514  0.00  0.00    +0.000 C 
BRANCH  23  24
ATOM     24  C   UNL     1       3.419   1.782  18.622  0.00  0.00    +0.000 C 
ATOM     25  C   UNL     1       1.894   1.873  18.692  0.00  0.00    +0.000 C 
ATOM     26  C   UNL     1       3.874   1.964  17.170  0.00  0.00    +0.000 C 
ENDBRANCH  23  24
ENDBRANCH  16  23
TORSDOF 5
ENDMDL
MODEL 3
REMARK VINA RESULT:      -6.3      0.962      1.006
REMARK  Name = 
REMARK  9 active torsions:
REMARK  status: ('A' for Active; 'I' for Inactive)
REMARK    1  A    between atoms: C_1  and  C_2
REMARK    2  A    between atoms: C_2  and  C_3
REMARK    3  A    between atoms: C_3  and  S_4
REMARK    4  A    between atoms: S_4  and  C_5
REMARK    5  A    between atoms: N_11  and  C_12
REMARK    6  A    between atoms: N_20  and  C_21
REMARK    7  A    between atoms: C_21  and  C_22
REMARK    8  A    between atoms: C_22  and  C_23
REMARK    9  A    between atoms: C_22  and  C_24
REMARK                            x       y       z     vdW  Elec       q    Type
REMARK                         _______ _______ _______ _____ _____    ______ ____
ROOT
ATOM      1  C   UNL     1       3.842   6.612  17.603  0.00  0.00    +0.000 A 
ATOM      2  N   UNL     1       3.099   7.586  18.144  0.00  0.00    +0.000 NA
ATOM      3  C   UNL     1       2.368   7.324  19.251  0.00  0.00    +0.000 A 
ATOM      4  N   UNL     1       1.717   8.430  19.820  0.00  0.00    +0.000 N 
ATOM      5  C   UNL     1       1.316   9.497  18.873  0.00  0.00    +0.000 C 
ATOM      6  C   UNL     1       1.002  10.817  19.619  0.00  0.00    +0.000 C 
ATOM      7  N   UNL     1      -0.001  10.656  20.693  0.00  0.00    +0.000 NA
ATOM      8  C   UNL     1      -0.210  11.913  21.409  0.00  0.00    +0.000 C 
ATOM      9  C   UNL     1       0.480   9.623  21.627  0.00  0.00    +0.000 C 
ATOM     10  C   UNL     1       0.778   8.273  20.944  0.00  0.00    +0.000 C 
ATOM     11  C   UNL     1       2.390   6.031  19.811  0.00  0.00    +0.000 A 
ATOM     12  N   UNL     1       1.608   5.669  20.935  0.00  0.00    +0.000 NA
ATOM     13  C   UNL     1       1.807   4.521  21.485  0.00  0.00    +0.000 A 
ATOM     14  C   UNL     1       2.801   3.518  20.989  0.00  0.00    +0.000 A 
ATOM     15  O   UNL     1       2.975   2.518  21.673  0.00  0.00    +0.000 OA
ATOM     16  N   UNL     1       3.412   3.819  19.787  0.00  0.00    +0.000 N 
ATOM     17  C   UNL     1       3.238   5.100  19.185  0.00  0.00    +0.000 A 
ATOM     18  N   UNL     1       3.948   5.371  18.077  0.00  0.00    +0.000 NA
ENDROOT
BRANCH   1  19
ATOM     19  S   UNL     1       4.824   7.018  16.182  0.00  0.00    +0.000 S 
BRANCH  19  20
ATOM     20  C   UNL     1       5.884   5.537  16.170  0.00  0.00    +0.000 C 
BRANCH  20  22
ATOM     21  C   UNL     1       7.603   4.649  17.779  0.00  0.00    +0.000 C 
ATOM     22  C   UNL     1       7.196   5.821  16.897  0.00  0.00    +0.000 C 
ENDBRANCH  20  22
ENDBRANCH  19  20
ENDBRANCH   1  19
BRANCH  16  23
ATOM     23  C   UNL     1       4.302   2.841  19.173  0.00  0.00    +0.000 C 
BRANCH  23  24
ATOM     24  C   UNL     1       3.632   1.930  18.127  0.00  0.00    +0.000 C 
ATOM     25  C   UNL     1       2.107   1.910  18.246  0.00  0.00    +0.000 C 
ATOM     26  C   UNL     1       4.026   2.393  16.721  0.00  0.00    +0.000 C 
ENDBRANCH  23  24
ENDBRANCH  16  23
TORSDOF 5
ENDMDL
MODEL 4
REMARK VINA RESULT:      -6.2      2.723      6.741
REMARK  Name = 
REMARK  9 active torsions:
REMARK  status: ('A' for Active; 'I' for Inactive)
REMARK    1  A    between atoms: C_1  and  C_2
REMARK    2  A    between atoms: C_2  and  C_3
REMARK    3  A    between atoms: C_3  and  S_4
REMARK    4  A    between atoms: S_4  and  C_5
REMARK    5  A    between atoms: N_11  and  C_12
REMARK    6  A    between atoms: N_20  and  C_21
REMARK    7  A    between atoms: C_21  and  C_22
REMARK    8  A    between atoms: C_22  and  C_23
REMARK    9  A    between atoms: C_22  and  C_24
REMARK                            x       y       z     vdW  Elec       q    Type
REMARK                         _______ _______ _______ _____ _____    ______ ____
ROOT
ATOM      1  C   UNL     1       2.433   5.123  20.491  0.00  0.00    +0.000 A 
ATOM      2  N   UNL     1       3.262   4.961  19.451  0.00  0.00    +0.000 NA
ATOM      3  C   UNL     1       3.357   5.940  18.523  0.00  0.00    +0.000 A 
ATOM      4  N   UNL     1       4.334   5.742  17.535  0.00  0.00    +0.000 N 
ATOM      5  C   UNL     1       4.622   4.330  17.190  0.00  0.00    +0.000 C 
ATOM      6  C   UNL     1       5.966   4.203  16.431  0.00  0.00    +0.000 C 
ATOM      7  N   UNL     1       6.044   5.068  15.235  0.00  0.00    +0.000 NA
ATOM      8  C   UNL     1       7.354   4.962  14.594  0.00  0.00    +0.000 C 
ATOM      9  C   UNL     1       5.802   6.461  15.652  0.00  0.00    +0.000 C 
ATOM     10  C   UNL     1       4.460   6.654  16.385  0.00  0.00    +0.000 C 
ATOM     11  C   UNL     1       2.579   7.108  18.658  0.00  0.00    +0.000 A 
ATOM     12  N   UNL     1       2.586   8.149  17.698  0.00  0.00    +0.000 NA
ATOM     13  C   UNL     1       1.977   9.251  17.974  0.00  0.00    +0.000 A 
ATOM     14  C   UNL     1       1.225   9.494  19.245  0.00  0.00    +0.000 A 
ATOM     15  O   UNL     1       0.794  10.624  19.432  0.00  0.00    +0.000 OA
ATOM     16  N   UNL     1       1.078   8.400  20.076  0.00  0.00    +0.000 N 
ATOM     17  C   UNL     1       1.779   7.187  19.811  0.00  0.00    +0.000 A 
ATOM     18  N   UNL     1       1.682   6.200  20.718  0.00  0.00    +0.000 NA
ENDROOT
BRANCH   1  19
ATOM     19  S   UNL     1       2.381   3.833  21.709  0.00  0.00    +0.000 S 
BRANCH  19  20
ATOM     20  C   UNL     1       1.052   2.833  20.966  0.00  0.00    +0.000 C 
BRANCH  20  22
ATOM     21  C   UNL     1       0.866   2.404  18.493  0.00  0.00    +0.000 C 
ATOM     22  C   UNL     1       1.591   2.036  19.781  0.00  0.00    +0.000 C 
ENDBRANCH  20  22
ENDBRANCH  19  20
ENDBRANCH   1  19
BRANCH  16  23
ATOM     23  C   UNL     1       0.257   8.521  21.276  0.00  0.00    +0.000 C 
BRANCH  23  24
ATOM     24  C   UNL     1       0.636   9.696  22.198  0.00  0.00    +0.000 C 
ATOM     25  C   UNL     1      -0.500  10.105  23.137  0.00  0.00    +0.000 C 
ATOM     26  C   UNL     1       1.868   9.318  23.025  0.00  0.00    +0.000 C 
ENDBRANCH  23  24
ENDBRANCH  16  23
TORSDOF 5
ENDMDL
MODEL 5
REMARK VINA RESULT:      -6.0      6.058      9.257
REMARK  Name = 
REMARK  9 active torsions:
REMARK  status: ('A' for Active; 'I' for Inactive)
REMARK    1  A    between atoms: C_1  and  C_2
REMARK    2  A    between atoms: C_2  and  C_3
REMARK    3  A    between atoms: C_3  and  S_4
REMARK    4  A    between atoms: S_4  and  C_5
REMARK    5  A    between atoms: N_11  and  C_12
REMARK    6  A    between atoms: N_20  and  C_21
REMARK    7  A    between atoms: C_21  and  C_22
REMARK    8  A    between atoms: C_22  and  C_23
REMARK    9  A    between atoms: C_22  and  C_24
REMARK                            x       y       z     vdW  Elec       q    Type
REMARK                         _______ _______ _______ _____ _____    ______ ____
ROOT
ATOM      1  C   UNL     1      -3.537  11.699  18.472  0.00  0.00    +0.000 A 
ATOM      2  N   UNL     1      -4.398  12.220  19.356  0.00  0.00    +0.000 NA
ATOM      3  C   UNL     1      -3.936  12.669  20.544  0.00  0.00    +0.000 A 
ATOM      4  N   UNL     1      -4.884  13.308  21.359  0.00  0.00    +0.000 N 
ATOM      5  C   UNL     1      -6.280  12.836  21.211  0.00  0.00    +0.000 C 
ATOM      6  C   UNL     1      -7.281  13.853  21.813  0.00  0.00    +0.000 C 
ATOM      7  N   UNL     1      -6.985  14.201  23.218  0.00  0.00    +0.000 NA
ATOM      8  C   UNL     1      -7.915  15.213  23.716  0.00  0.00    +0.000 C 
ATOM      9  C   UNL     1      -5.604  14.712  23.290  0.00  0.00    +0.000 C 
ATOM     10  C   UNL     1      -4.558  13.725  22.734  0.00  0.00    +0.000 C 
ATOM     11  C   UNL     1      -2.560  12.573  20.839  0.00  0.00    +0.000 A 
ATOM     12  N   UNL     1      -2.013  12.972  22.083  0.00  0.00    +0.000 NA
ATOM     13  C   UNL     1      -0.731  13.007  22.214  0.00  0.00    +0.000 A 
ATOM     14  C   UNL     1       0.230  12.619  21.134  0.00  0.00    +0.000 A 
ATOM     15  O   UNL     1       1.419  12.812  21.348  0.00  0.00    +0.000 OA
ATOM     16  N   UNL     1      -0.331  12.058  20.002  0.00  0.00    +0.000 N 
ATOM     17  C   UNL     1      -1.745  12.050  19.820  0.00  0.00    +0.000 A 
ATOM     18  N   UNL     1      -2.221  11.594  18.649  0.00  0.00    +0.000 NA
ENDROOT
BRANCH   1  19
ATOM     19  S   UNL     1      -4.185  11.171  16.906  0.00  0.00    +0.000 S 
BRANCH  19  20
ATOM     20  C   UNL     1      -2.893   9.957  16.491  0.00  0.00    +0.000 C 
BRANCH  20  22
ATOM     21  C   UNL     1      -3.919  10.063  14.195  0.00  0.00    +0.000 C 
ATOM     22  C   UNL     1      -2.624   9.966  14.988  0.00  0.00    +0.000 C 
ENDBRANCH  20  22
ENDBRANCH  19  20
ENDBRANCH   1  19
BRANCH  16  23
ATOM     23  C   UNL     1       0.542  11.542  18.954  0.00  0.00    +0.000 C 
BRANCH  23  24
ATOM     24  C   UNL     1       1.165  10.166  19.257  0.00  0.00    +0.000 C 
ATOM     25  C   UNL     1       0.355   9.356  20.271  0.00  0.00    +0.000 C 
ATOM     26  C   UNL     1       1.293   9.368  17.955  0.00  0.00    +0.000 C 
ENDBRANCH  23  24
ENDBRANCH  16  23
TORSDOF 5
ENDMDL
MODEL 6
REMARK VINA RESULT:      -5.8      2.406      4.462
REMARK  Name = 
REMARK  9 active torsions:
REMARK  status: ('A' for Active; 'I' for Inactive)
REMARK    1  A    between atoms: C_1  and  C_2
REMARK    2  A    between atoms: C_2  and  C_3
REMARK    3  A    between atoms: C_3  and  S_4
REMARK    4  A    between atoms: S_4  and  C_5
REMARK    5  A    between atoms: N_11  and  C_12
REMARK    6  A    between atoms: N_20  and  C_21
REMARK    7  A    between atoms: C_21  and  C_22
REMARK    8  A    between atoms: C_22  and  C_23
REMARK    9  A    between atoms: C_22  and  C_24
REMARK                            x       y       z     vdW  Elec       q    Type
REMARK                         _______ _______ _______ _____ _____    ______ ____
ROOT
ATOM      1  C   UNL     1       2.553   5.065  20.353  0.00  0.00    +0.000 A 
ATOM      2  N   UNL     1       1.879   6.203  20.564  0.00  0.00    +0.000 NA
ATOM      3  C   UNL     1       2.088   7.257  19.744  0.00  0.00    +0.000 A 
ATOM      4  N   UNL     1       1.255   8.366  19.962  0.00  0.00    +0.000 N 
ATOM      5  C   UNL     1       0.798   8.562  21.357  0.00  0.00    +0.000 C 
ATOM      6  C   UNL     1      -0.416   9.521  21.419  0.00  0.00    +0.000 C 
ATOM      7  N   UNL     1      -0.168  10.818  20.756  0.00  0.00    +0.000 NA
ATOM      8  C   UNL     1      -1.363  11.659  20.782  0.00  0.00    +0.000 C 
ATOM      9  C   UNL     1       0.230  10.558  19.360  0.00  0.00    +0.000 C 
ATOM     10  C   UNL     1       1.457   9.633  19.238  0.00  0.00    +0.000 C 
ATOM     11  C   UNL     1       3.016   7.147  18.688  0.00  0.00    +0.000 A 
ATOM     12  N   UNL     1       3.326   8.226  17.824  0.00  0.00    +0.000 NA
ATOM     13  C   UNL     1       4.056   7.999  16.787  0.00  0.00    +0.000 A 
ATOM     14  C   UNL     1       4.633   6.660  16.448  0.00  0.00    +0.000 A 
ATOM     15  O   UNL     1       5.209   6.556  15.373  0.00  0.00    +0.000 OA
ATOM     16  N   UNL     1       4.471   5.675  17.404  0.00  0.00    +0.000 N 
ATOM     17  C   UNL     1       3.631   5.892  18.535  0.00  0.00    +0.000 A 
ATOM     18  N   UNL     1       3.425   4.858  19.367  0.00  0.00    +0.000 NA
ENDROOT
BRANCH   1  19
ATOM     19  S   UNL     1       2.207   3.693  21.425  0.00  0.00    +0.000 S 
BRANCH  19  20
ATOM     20  C   UNL     1       2.740   2.356  20.309  0.00  0.00    +0.000 C 
BRANCH  20  22
ATOM     21  C   UNL     1       2.208   2.131  17.860  0.00  0.00    +0.000 C 
ATOM     22  C   UNL     1       1.654   2.066  19.276  0.00  0.00    +0.000 C 
ENDBRANCH  20  22
ENDBRANCH  19  20
ENDBRANCH   1  19
BRANCH  16  23
ATOM     23  C   UNL     1       5.106   4.378  17.206  0.00  0.00    +0.000 C 
BRANCH  23  24
ATOM     24  C   UNL     1       6.622   4.355  17.487  0.00  0.00    +0.000 C 
ATOM     25  C   UNL     1       7.463   4.486  16.216  0.00  0.00    +0.000 C 
ATOM     26  C   UNL     1       6.978   5.490  18.452  0.00  0.00    +0.000 C 
ENDBRANCH  23  24
ENDBRANCH  16  23
TORSDOF 5
ENDMDL
MODEL 7
REMARK VINA RESULT:      -5.7      8.596     11.160
REMARK  Name = 
REMARK  9 active torsions:
REMARK  status: ('A' for Active; 'I' for Inactive)
REMARK    1  A    between atoms: C_1  and  C_2
REMARK    2  A    between atoms: C_2  and  C_3
REMARK    3  A    between atoms: C_3  and  S_4
REMARK    4  A    between atoms: S_4  and  C_5
REMARK    5  A    between atoms: N_11  and  C_12
REMARK    6  A    between atoms: N_20  and  C_21
REMARK    7  A    between atoms: C_21  and  C_22
REMARK    8  A    between atoms: C_22  and  C_23
REMARK    9  A    between atoms: C_22  and  C_24
REMARK                            x       y       z     vdW  Elec       q    Type
REMARK                         _______ _______ _______ _____ _____    ______ ____
ROOT
ATOM      1  C   UNL     1       9.684  12.936  20.162  0.00  0.00    +0.000 A 
ATOM      2  N   UNL     1       9.048  12.711  21.319  0.00  0.00    +0.000 NA
ATOM      3  C   UNL     1       8.223  13.659  21.817  0.00  0.00    +0.000 A 
ATOM      4  N   UNL     1       7.507  13.293  22.967  0.00  0.00    +0.000 N 
ATOM      5  C   UNL     1       8.177  12.319  23.859  0.00  0.00    +0.000 C 
ATOM      6  C   UNL     1       7.169  11.674  24.841  0.00  0.00    +0.000 C 
ATOM      7  N   UNL     1       6.400  12.666  25.622  0.00  0.00    +0.000 NA
ATOM      8  C   UNL     1       5.417  12.009  26.482  0.00  0.00    +0.000 C 
ATOM      9  C   UNL     1       5.716  13.570  24.680  0.00  0.00    +0.000 C 
ATOM     10  C   UNL     1       6.676  14.267  23.697  0.00  0.00    +0.000 C 
ATOM     11  C   UNL     1       8.053  14.872  21.118  0.00  0.00    +0.000 A 
ATOM     12  N   UNL     1       7.250  15.932  21.606  0.00  0.00    +0.000 NA
ATOM     13  C   UNL     1       7.013  16.936  20.834  0.00  0.00    +0.000 A 
ATOM     14  C   UNL     1       7.566  17.075  19.450  0.00  0.00    +0.000 A 
ATOM     15  O   UNL     1       7.168  18.019  18.781  0.00  0.00    +0.000 OA
ATOM     16  N   UNL     1       8.493  16.122  19.074  0.00  0.00    +0.000 N 
ATOM     17  C   UNL     1       8.735  14.981  19.894  0.00  0.00    +0.000 A 
ATOM     18  N   UNL     1       9.563  14.035  19.418  0.00  0.00    +0.000 NA
ENDROOT
BRANCH   1  19
ATOM     19  S   UNL     1      10.715  11.640  19.524  0.00  0.00    +0.000 S 
BRANCH  19  20
ATOM     20  C   UNL     1       9.481  10.301  19.535  0.00  0.00    +0.000 C 
BRANCH  20  22
ATOM     21  C   UNL     1       8.191   8.810  17.971  0.00  0.00    +0.000 C 
ATOM     22  C   UNL     1       8.818  10.183  18.165  0.00  0.00    +0.000 C 
ENDBRANCH  20  22
ENDBRANCH  19  20
ENDBRANCH   1  19
BRANCH  16  23
ATOM     23  C   UNL     1       9.169  16.252  17.789  0.00  0.00    +0.000 C 
BRANCH  23  24
ATOM     24  C   UNL     1      10.537  16.959  17.851  0.00  0.00    +0.000 C 
ATOM     25  C   UNL     1      11.618  16.235  17.047  0.00  0.00    +0.000 C 
ATOM     26  C   UNL     1      10.393  18.394  17.333  0.00  0.00    +0.000 C 
ENDBRANCH  23  24
ENDBRANCH  16  23
TORSDOF 5
ENDMDL
MODEL 8
REMARK VINA RESULT:      -5.6      6.457     11.111
REMARK  Name = 
REMARK  9 active torsions:
REMARK  status: ('A' for Active; 'I' for Inactive)
REMARK    1  A    between atoms: C_1  and  C_2
REMARK    2  A    between atoms: C_2  and  C_3
REMARK    3  A    between atoms: C_3  and  S_4
REMARK    4  A    between atoms: S_4  and  C_5
REMARK    5  A    between atoms: N_11  and  C_12
REMARK    6  A    between atoms: N_20  and  C_21
REMARK    7  A    between atoms: C_21  and  C_22
REMARK    8  A    between atoms: C_22  and  C_23
REMARK    9  A    between atoms: C_22  and  C_24
REMARK                            x       y       z     vdW  Elec       q    Type
REMARK                         _______ _______ _______ _____ _____    ______ ____
ROOT
ATOM      1  C   UNL     1      -4.974  12.645  19.601  0.00  0.00    +0.000 A 
ATOM      2  N   UNL     1      -3.830  12.060  19.220  0.00  0.00    +0.000 NA
ATOM      3  C   UNL     1      -2.738  12.165  20.010  0.00  0.00    +0.000 A 
ATOM      4  N   UNL     1      -1.620  11.424  19.595  0.00  0.00    +0.000 N 
ATOM      5  C   UNL     1      -1.490  11.219  18.134  0.00  0.00    +0.000 C 
ATOM      6  C   UNL     1      -0.502  10.071  17.816  0.00  0.00    +0.000 C 
ATOM      7  N   UNL     1       0.823  10.251  18.446  0.00  0.00    +0.000 NA
ATOM      8  C   UNL     1       1.695   9.109  18.171  0.00  0.00    +0.000 C 
ATOM      9  C   UNL     1       0.631  10.395  19.900  0.00  0.00    +0.000 C 
ATOM     10  C   UNL     1      -0.320  11.547  20.278  0.00  0.00    +0.000 C 
ATOM     11  C   UNL     1      -2.815  12.895  21.214  0.00  0.00    +0.000 A 
ATOM     12  N   UNL     1      -1.698  13.093  22.063  0.00  0.00    +0.000 NA
ATOM     13  C   UNL     1      -1.887  13.627  23.220  0.00  0.00    +0.000 A 
ATOM     14  C   UNL     1      -3.220  14.087  23.721  0.00  0.00    +0.000 A 
ATOM     15  O   UNL     1      -3.280  14.466  24.883  0.00  0.00    +0.000 OA
ATOM     16  N   UNL     1      -4.252  14.054  22.803  0.00  0.00    +0.000 N 
ATOM     17  C   UNL     1      -4.076  13.428  21.534  0.00  0.00    +0.000 A 
ATOM     18  N   UNL     1      -5.149  13.328  20.732  0.00  0.00    +0.000 NA
ENDROOT
BRANCH   1  19
ATOM     19  S   UNL     1      -6.393  12.436  18.557  0.00  0.00    +0.000 S 
BRANCH  19  20
ATOM     20  C   UNL     1      -6.574  10.632  18.730  0.00  0.00    +0.000 C 
BRANCH  20  22
ATOM     21  C   UNL     1      -7.414   8.790  20.225  0.00  0.00    +0.000 C 
ATOM     22  C   UNL     1      -7.212  10.291  20.074  0.00  0.00    +0.000 C 
ENDBRANCH  20  22
ENDBRANCH  19  20
ENDBRANCH   1  19
BRANCH  16  23
ATOM     23  C   UNL     1      -5.554  14.597  23.172  0.00  0.00    +0.000 C 
BRANCH  23  24
ATOM     24  C   UNL     1      -6.629  13.536  23.480  0.00  0.00    +0.000 C 
ATOM     25  C   UNL     1      -6.105  12.395  24.354  0.00  0.00    +0.000 C 
ATOM     26  C   UNL     1      -7.819  14.203  24.175  0.00  0.00    +0.000 C 
ENDBRANCH  23  24
ENDBRANCH  16  23
TORSDOF 5
ENDMDL
MODEL 9
REMARK VINA RESULT:      -5.5      8.283     10.463
REMARK  Name = 
REMARK  9 active torsions:
REMARK  status: ('A' for Active; 'I' for Inactive)
REMARK    1  A    between atoms: C_1  and  C_2
REMARK    2  A    between atoms: C_2  and  C_3
REMARK    3  A    between atoms: C_3  and  S_4
REMARK    4  A    between atoms: S_4  and  C_5
REMARK    5  A    between atoms: N_11  and  C_12
REMARK    6  A    between atoms: N_20  and  C_21
REMARK    7  A    between atoms: C_21  and  C_22
REMARK    8  A    between atoms: C_22  and  C_23
REMARK    9  A    between atoms: C_22  and  C_24
REMARK                            x       y       z     vdW  Elec       q    Type
REMARK                         _______ _______ _______ _____ _____    ______ ____
ROOT
ATOM      1  C   UNL     1      -3.403  13.529  21.665  0.00  0.00    +0.000 A 
ATOM      2  N   UNL     1      -2.086  13.666  21.465  0.00  0.00    +0.000 NA
ATOM      3  C   UNL     1      -1.531  13.162  20.340  0.00  0.00    +0.000 A 
ATOM      4  N   UNL     1      -0.170  13.455  20.155  0.00  0.00    +0.000 N 
ATOM      5  C   UNL     1       0.626  13.619  21.393  0.00  0.00    +0.000 C 
ATOM      6  C   UNL     1       1.967  14.337  21.103  0.00  0.00    +0.000 C 
ATOM      7  N   UNL     1       2.763  13.681  20.044  0.00  0.00    +0.000 NA
ATOM      8  C   UNL     1       3.984  14.434  19.762  0.00  0.00    +0.000 C 
ATOM      9  C   UNL     1       1.936  13.596  18.827  0.00  0.00    +0.000 C 
ATOM     10  C   UNL     1       0.599  12.860  19.048  0.00  0.00    +0.000 C 
ATOM     11  C   UNL     1      -2.342  12.493  19.401  0.00  0.00    +0.000 A 
ATOM     12  N   UNL     1      -1.822  11.892  18.228  0.00  0.00    +0.000 NA
ATOM     13  C   UNL     1      -2.645  11.446  17.343  0.00  0.00    +0.000 A 
ATOM     14  C   UNL     1      -4.134  11.492  17.488  0.00  0.00    +0.000 A 
ATOM     15  O   UNL     1      -4.801  11.144  16.523  0.00  0.00    +0.000 OA
ATOM     16  N   UNL     1      -4.607  11.909  18.718  0.00  0.00    +0.000 N 
ATOM     17  C   UNL     1      -3.717  12.447  19.694  0.00  0.00    +0.000 A 
ATOM     18  N   UNL     1      -4.252  12.940  20.823  0.00  0.00    +0.000 NA
ENDROOT
BRANCH   1  19
ATOM     19  S   UNL     1      -4.093  14.252  23.131  0.00  0.00    +0.000 S 
BRANCH  19  20
ATOM     20  C   UNL     1      -3.750  12.880  24.279  0.00  0.00    +0.000 C 
BRANCH  20  22
ATOM     21  C   UNL     1      -6.250  12.765  24.011  0.00  0.00    +0.000 C 
ATOM     22  C   UNL     1      -5.055  12.328  24.847  0.00  0.00    +0.000 C 
ENDBRANCH  20  22
ENDBRANCH  19  20
ENDBRANCH   1  19
BRANCH  16  23
ATOM     23  C   UNL     1      -6.040  11.869  18.983  0.00  0.00    +0.000 C 
BRANCH  23  24
ATOM     24  C   UNL     1      -6.488  10.727  19.917  0.00  0.00    +0.000 C 
ATOM     25  C   UNL     1      -7.624  11.139  20.855  0.00  0.00    +0.000 C 
ATOM     26  C   UNL     1      -6.933   9.527  19.076  0.00  0.00    +0.000 C 
ENDBRANCH  23  24
ENDBRANCH  16  23
TORSDOF 5
ENDMDL
