MODEL 1
REMARK VINA RESULT:      -6.4      0.000      0.000
REMARK  Name = 
REMARK  5 active torsions:
REMARK  status: ('A' for Active; 'I' for Inactive)
REMARK    1  A    between atoms: C_2  and  C_3
REMARK    2  A    between atoms: C_3  and  C_4
REMARK    3  A    between atoms: C_4  and  N_5
REMARK    4  A    between atoms: N_13  and  C_14
REMARK    5  A    between atoms: C_14  and  C_15
REMARK                            x       y       z     vdW  Elec       q    Type
REMARK                         _______ _______ _______ _____ _____    ______ ____
ROOT
ATOM      1  O   UNL     1       8.429   6.572  19.166  0.00  0.00    +0.000 OA
ATOM      2  C   UNL     1       7.736   7.027  18.252  0.00  0.00    +0.000 C 
ATOM      3  N   UNL     1       6.474   6.533  17.975  0.00  0.00    +0.000 N 
ATOM      4  C   UNL     1       5.537   7.036  16.958  0.00  0.00    +0.000 C 
ATOM      5  C   UNL     1       4.946   5.879  16.118  0.00  0.00    +0.000 C 
ATOM      6  N   UNL     1       4.362   4.772  16.914  0.00  0.00    +0.000 NA
ATOM      7  C   UNL     1       5.392   4.309  17.878  0.00  0.00    +0.000 C 
ATOM      8  C   UNL     1       5.963   5.418  18.779  0.00  0.00    +0.000 C 
ENDROOT
BRANCH   2   9
ATOM      9  C   UNL     1       8.243   8.181  17.423  0.00  0.00    +0.000 C 
BRANCH   9  10
ATOM     10  C   UNL     1       7.792   9.498  18.040  0.00  0.00    +0.000 C 
BRANCH  10  11
ATOM     11  N   UNL     1       8.922  10.274  18.518  0.00  0.00    +0.000 N 
ATOM     12  C   UNL     1       9.796  10.994  17.761  0.00  0.00    +0.000 A 
ATOM     13  C   UNL     1      10.709  11.525  18.635  0.00  0.00    +0.000 A 
ATOM     14  C   UNL     1      10.303  11.066  19.901  0.00  0.00    +0.000 A 
ATOM     15  N   UNL     1       9.206  10.308  19.834  0.00  0.00    +0.000 NA
ENDBRANCH  10  11
ENDBRANCH   9  10
ENDBRANCH   2   9
BRANCH   6  16
ATOM     16  C   UNL     1       3.114   5.219  17.562  0.00  0.00    +0.000 C 
BRANCH  16  17
ATOM     17  C   UNL     1       2.484   4.182  18.446  0.00  0.00    +0.000 A 
ATOM     18  C   UNL     1       1.840   3.010  18.086  0.00  0.00    +0.000 A 
ATOM     19  C   UNL     1       1.354   2.290  19.219  0.00  0.00    +0.000 A 
ATOM     20  C   UNL     1       1.653   2.943  20.387  0.00  0.00    +0.000 A 
ATOM     21 CL   UNL     1       1.265   2.434  21.979  0.00  0.00    +0.000 Cl
ATOM     22  S   UNL     1       2.486   4.393  20.153  0.00  0.00    +0.000 S 
ENDBRANCH  16  17
ENDBRANCH   6  16
TORSDOF 5
ENDMDL
MODEL 2
REMARK VINA RESULT:      -6.1      0.864      1.054
REMARK  Name = 
REMARK  5 active torsions:
REMARK  status: ('A' for Active; 'I' for Inactive)
REMARK    1  A    between atoms: C_2  and  C_3
REMARK    2  A    between atoms: C_3  and  C_4
REMARK    3  A    between atoms: C_4  and  N_5
REMARK    4  A    between atoms: N_13  and  C_14
REMARK    5  A    between atoms: C_14  and  C_15
REMARK                            x       y       z     vdW  Elec       q    Type
REMARK                         _______ _______ _______ _____ _____    ______ ____
ROOT
ATOM      1  O   UNL     1       8.419   6.538  19.232  0.00  0.00    +0.000 OA
ATOM      2  C   UNL     1       7.706   7.084  18.386  0.00  0.00    +0.000 C 
ATOM      3  N   UNL     1       6.461   6.587  18.048  0.00  0.00    +0.000 N 
ATOM      4  C   UNL     1       5.502   7.185  17.106  0.00  0.00    +0.000 C 
ATOM      5  C   UNL     1       4.946   6.128  16.123  0.00  0.00    +0.000 C 
ATOM      6  N   UNL     1       4.404   4.907  16.769  0.00  0.00    +0.000 NA
ATOM      7  C   UNL     1       5.454   4.359  17.664  0.00  0.00    +0.000 C 
ATOM      8  C   UNL     1       5.992   5.361  18.701  0.00  0.00    +0.000 C 
ENDROOT
BRANCH   2   9
ATOM      9  C   UNL     1       8.170   8.352  17.714  0.00  0.00    +0.000 C 
BRANCH   9  10
ATOM     10  C   UNL     1       8.908   9.229  18.717  0.00  0.00    +0.000 C 
BRANCH  10  11
ATOM     11  N   UNL     1       9.001  10.601  18.253  0.00  0.00    +0.000 N 
ATOM     12  C   UNL     1       7.996  11.354  17.727  0.00  0.00    +0.000 A 
ATOM     13  C   UNL     1       8.556  12.563  17.402  0.00  0.00    +0.000 A 
ATOM     14  C   UNL     1       9.908  12.442  17.769  0.00  0.00    +0.000 A 
ATOM     15  N   UNL     1      10.182  11.247  18.297  0.00  0.00    +0.000 NA
ENDBRANCH  10  11
ENDBRANCH   9  10
ENDBRANCH   2   9
BRANCH   6  16
ATOM     16  C   UNL     1       3.145   5.224  17.471  0.00  0.00    +0.000 C 
BRANCH  16  17
ATOM     17  C   UNL     1       2.652   4.119  18.360  0.00  0.00    +0.000 A 
ATOM     18  C   UNL     1       2.253   2.839  18.014  0.00  0.00    +0.000 A 
ATOM     19  C   UNL     1       1.828   2.081  19.147  0.00  0.00    +0.000 A 
ATOM     20  C   UNL     1       1.926   2.814  20.300  0.00  0.00    +0.000 A 
ATOM     21 CL   UNL     1       1.529   2.296  21.887  0.00  0.00    +0.000 Cl
ATOM     22  S   UNL     1       2.501   4.383  20.053  0.00  0.00    +0.000 S 
ENDBRANCH  16  17
ENDBRANCH   6  16
TORSDOF 5
ENDMDL
MODEL 3
REMARK VINA RESULT:      -6.1      4.010      5.348
REMARK  Name = 
REMARK  5 active torsions:
REMARK  status: ('A' for Active; 'I' for Inactive)
REMARK    1  A    between atoms: C_2  and  C_3
REMARK    2  A    between atoms: C_3  and  C_4
REMARK    3  A    between atoms: C_4  and  N_5
REMARK    4  A    between atoms: N_13  and  C_14
REMARK    5  A    between atoms: C_14  and  C_15
REMARK                            x       y       z     vdW  Elec       q    Type
REMARK                         _______ _______ _______ _____ _____    ______ ____
ROOT
ATOM      1  O   UNL     1       4.767   3.070  16.901  0.00  0.00    +0.000 OA
ATOM      2  C   UNL     1       4.721   4.284  16.687  0.00  0.00    +0.000 C 
ATOM      3  N   UNL     1       4.035   5.148  17.520  0.00  0.00    +0.000 N 
ATOM      4  C   UNL     1       3.963   6.613  17.402  0.00  0.00    +0.000 C 
ATOM      5  C   UNL     1       2.507   7.119  17.538  0.00  0.00    +0.000 C 
ATOM      6  N   UNL     1       1.789   6.621  18.738  0.00  0.00    +0.000 NA
ATOM      7  C   UNL     1       1.883   5.140  18.745  0.00  0.00    +0.000 C 
ATOM      8  C   UNL     1       3.320   4.593  18.675  0.00  0.00    +0.000 C 
ENDROOT
BRANCH   2   9
ATOM      9  C   UNL     1       5.459   4.871  15.511  0.00  0.00    +0.000 C 
BRANCH   9  10
ATOM     10  C   UNL     1       6.961   4.788  15.748  0.00  0.00    +0.000 C 
BRANCH  10  11
ATOM     11  N   UNL     1       7.360   5.574  16.900  0.00  0.00    +0.000 N 
ATOM     12  C   UNL     1       7.617   5.112  18.155  0.00  0.00    +0.000 A 
ATOM     13  C   UNL     1       7.921   6.213  18.913  0.00  0.00    +0.000 A 
ATOM     14  C   UNL     1       7.820   7.299  18.024  0.00  0.00    +0.000 A 
ATOM     15  N   UNL     1       7.486   6.911  16.791  0.00  0.00    +0.000 NA
ENDBRANCH  10  11
ENDBRANCH   9  10
ENDBRANCH   2   9
BRANCH   6  16
ATOM     16  C   UNL     1       2.343   7.248  19.953  0.00  0.00    +0.000 C 
BRANCH  16  17
ATOM     17  C   UNL     1       1.491   8.353  20.507  0.00  0.00    +0.000 A 
ATOM     18  C   UNL     1       1.056   8.546  21.807  0.00  0.00    +0.000 A 
ATOM     19  C   UNL     1       0.241   9.711  21.937  0.00  0.00    +0.000 A 
ATOM     20  C   UNL     1       0.097  10.352  20.734  0.00  0.00    +0.000 A 
ATOM     21 CL   UNL     1      -0.792  11.790  20.434  0.00  0.00    +0.000 Cl
ATOM     22  S   UNL     1       0.901   9.587  19.462  0.00  0.00    +0.000 S 
ENDBRANCH  16  17
ENDBRANCH   6  16
TORSDOF 5
ENDMDL
MODEL 4
REMARK VINA RESULT:      -6.1      5.576      7.255
REMARK  Name = 
REMARK  5 active torsions:
REMARK  status: ('A' for Active; 'I' for Inactive)
REMARK    1  A    between atoms: C_2  and  C_3
REMARK    2  A    between atoms: C_3  and  C_4
REMARK    3  A    between atoms: C_4  and  N_5
REMARK    4  A    between atoms: N_13  and  C_14
REMARK    5  A    between atoms: C_14  and  C_15
REMARK                            x       y       z     vdW  Elec       q    Type
REMARK                         _______ _______ _______ _____ _____    ______ ____
ROOT
ATOM      1  O   UNL     1       1.707   9.087  19.227  0.00  0.00    +0.000 OA
ATOM      2  C   UNL     1       1.556   8.110  19.967  0.00  0.00    +0.000 C 
ATOM      3  N   UNL     1       2.215   6.916  19.744  0.00  0.00    +0.000 N 
ATOM      4  C   UNL     1       2.162   5.712  20.589  0.00  0.00    +0.000 C 
ATOM      5  C   UNL     1       1.922   4.440  19.741  0.00  0.00    +0.000 C 
ATOM      6  N   UNL     1       2.851   4.276  18.595  0.00  0.00    +0.000 NA
ATOM      7  C   UNL     1       2.802   5.519  17.786  0.00  0.00    +0.000 C 
ATOM      8  C   UNL     1       3.098   6.805  18.578  0.00  0.00    +0.000 C 
ENDROOT
BRANCH   2   9
ATOM      9  C   UNL     1       0.660   8.211  21.176  0.00  0.00    +0.000 C 
BRANCH   9  10
ATOM     10  C   UNL     1       1.226   9.233  22.154  0.00  0.00    +0.000 C 
BRANCH  10  11
ATOM     11  N   UNL     1       0.355  10.388  22.276  0.00  0.00    +0.000 N 
ATOM     12  C   UNL     1      -0.842  10.443  22.923  0.00  0.00    +0.000 A 
ATOM     13  C   UNL     1      -1.313  11.718  22.744  0.00  0.00    +0.000 A 
ATOM     14  C   UNL     1      -0.328  12.359  21.971  0.00  0.00    +0.000 A 
ATOM     15  N   UNL     1       0.697  11.551  21.690  0.00  0.00    +0.000 NA
ENDBRANCH  10  11
ENDBRANCH   9  10
ENDBRANCH   2   9
BRANCH   6  16
ATOM     16  C   UNL     1       4.204   3.949  19.085  0.00  0.00    +0.000 C 
BRANCH  16  17
ATOM     17  C   UNL     1       5.304   4.390  18.163  0.00  0.00    +0.000 A 
ATOM     18  C   UNL     1       6.426   5.149  18.451  0.00  0.00    +0.000 A 
ATOM     19  C   UNL     1       7.235   5.376  17.297  0.00  0.00    +0.000 A 
ATOM     20  C   UNL     1       6.696   4.779  16.187  0.00  0.00    +0.000 A 
ATOM     21 CL   UNL     1       7.338   4.793  14.596  0.00  0.00    +0.000 Cl
ATOM     22  S   UNL     1       5.247   3.968  16.496  0.00  0.00    +0.000 S 
ENDBRANCH  16  17
ENDBRANCH   6  16
TORSDOF 5
ENDMDL
MODEL 5
REMARK VINA RESULT:      -6.0      4.276      7.700
REMARK  Name = 
REMARK  5 active torsions:
REMARK  status: ('A' for Active; 'I' for Inactive)
REMARK    1  A    between atoms: C_2  and  C_3
REMARK    2  A    between atoms: C_3  and  C_4
REMARK    3  A    between atoms: C_4  and  N_5
REMARK    4  A    between atoms: N_13  and  C_14
REMARK    5  A    between atoms: C_14  and  C_15
REMARK                            x       y       z     vdW  Elec       q    Type
REMARK                         _______ _______ _______ _____ _____    ______ ____
ROOT
ATOM      1  O   UNL     1       3.749   5.800  20.057  0.00  0.00    +0.000 OA
ATOM      2  C   UNL     1       3.540   5.638  18.851  0.00  0.00    +0.000 C 
ATOM      3  N   UNL     1       4.572   5.561  17.934  0.00  0.00    +0.000 N 
ATOM      4  C   UNL     1       4.447   5.308  16.490  0.00  0.00    +0.000 C 
ATOM      5  C   UNL     1       5.293   6.309  15.668  0.00  0.00    +0.000 C 
ATOM      6  N   UNL     1       6.711   6.417  16.095  0.00  0.00    +0.000 NA
ATOM      7  C   UNL     1       6.729   6.712  17.549  0.00  0.00    +0.000 C 
ATOM      8  C   UNL     1       5.951   5.704  18.413  0.00  0.00    +0.000 C 
ENDROOT
BRANCH   2   9
ATOM      9  C   UNL     1       2.129   5.478  18.345  0.00  0.00    +0.000 C 
BRANCH   9  10
ATOM     10  C   UNL     1       1.741   4.005  18.347  0.00  0.00    +0.000 C 
BRANCH  10  11
ATOM     11  N   UNL     1       1.870   3.426  19.671  0.00  0.00    +0.000 N 
ATOM     12  C   UNL     1       2.807   2.526  20.081  0.00  0.00    +0.000 A 
ATOM     13  C   UNL     1       2.515   2.242  21.391  0.00  0.00    +0.000 A 
ATOM     14  C   UNL     1       1.380   3.020  21.682  0.00  0.00    +0.000 A 
ATOM     15  N   UNL     1       0.988   3.751  20.636  0.00  0.00    +0.000 NA
ENDBRANCH  10  11
ENDBRANCH   9  10
ENDBRANCH   2   9
BRANCH   6  16
ATOM     16  C   UNL     1       7.440   5.185  15.739  0.00  0.00    +0.000 C 
BRANCH  16  17
ATOM     17  C   UNL     1       7.166   4.701  14.344  0.00  0.00    +0.000 A 
ATOM     18  C   UNL     1       7.713   5.139  13.150  0.00  0.00    +0.000 A 
ATOM     19  C   UNL     1       7.182   4.440  12.024  0.00  0.00    +0.000 A 
ATOM     20  C   UNL     1       6.261   3.501  12.412  0.00  0.00    +0.000 A 
ATOM     21 CL   UNL     1       5.385   2.436  11.391  0.00  0.00    +0.000 Cl
ATOM     22  S   UNL     1       6.015   3.450  14.082  0.00  0.00    +0.000 S 
ENDBRANCH  16  17
ENDBRANCH   6  16
TORSDOF 5
ENDMDL
MODEL 6
REMARK VINA RESULT:      -6.0      7.382      9.640
REMARK  Name = 
REMARK  5 active torsions:
REMARK  status: ('A' for Active; 'I' for Inactive)
REMARK    1  A    between atoms: C_2  and  C_3
REMARK    2  A    between atoms: C_3  and  C_4
REMARK    3  A    between atoms: C_4  and  N_5
REMARK    4  A    between atoms: N_13  and  C_14
REMARK    5  A    between atoms: C_14  and  C_15
REMARK                            x       y       z     vdW  Elec       q    Type
REMARK                         _______ _______ _______ _____ _____    ______ ____
ROOT
ATOM      1  O   UNL     1       2.572   8.483  17.826  0.00  0.00    +0.000 OA
ATOM      2  C   UNL     1       2.132   8.177  18.937  0.00  0.00    +0.000 C 
ATOM      3  N   UNL     1       1.324   9.031  19.664  0.00  0.00    +0.000 N 
ATOM      4  C   UNL     1       0.693   8.751  20.963  0.00  0.00    +0.000 C 
ATOM      5  C   UNL     1       0.903   9.920  21.956  0.00  0.00    +0.000 C 
ATOM      6  N   UNL     1       0.524  11.255  21.428  0.00  0.00    +0.000 NA
ATOM      7  C   UNL     1       1.239  11.459  20.144  0.00  0.00    +0.000 C 
ATOM      8  C   UNL     1       1.007  10.349  19.103  0.00  0.00    +0.000 C 
ENDROOT
BRANCH   2   9
ATOM      9  C   UNL     1       2.439   6.822  19.523  0.00  0.00    +0.000 C 
BRANCH   9  10
ATOM     10  C   UNL     1       2.424   5.768  18.424  0.00  0.00    +0.000 C 
BRANCH  10  11
ATOM     11  N   UNL     1       1.785   4.545  18.873  0.00  0.00    +0.000 N 
ATOM     12  C   UNL     1       1.599   4.146  20.162  0.00  0.00    +0.000 A 
ATOM     13  C   UNL     1       0.988   2.920  20.097  0.00  0.00    +0.000 A 
ATOM     14  C   UNL     1       0.847   2.661  18.722  0.00  0.00    +0.000 A 
ATOM     15  N   UNL     1       1.325   3.656  17.970  0.00  0.00    +0.000 NA
ENDBRANCH  10  11
ENDBRANCH   9  10
ENDBRANCH   2   9
BRANCH   6  16
ATOM     16  C   UNL     1      -0.943  11.349  21.302  0.00  0.00    +0.000 C 
BRANCH  16  17
ATOM     17  C   UNL     1      -1.583  12.243  22.324  0.00  0.00    +0.000 A 
ATOM     18  C   UNL     1      -2.743  12.040  23.051  0.00  0.00    +0.000 A 
ATOM     19  C   UNL     1      -3.038  13.136  23.917  0.00  0.00    +0.000 A 
ATOM     20  C   UNL     1      -2.089  14.120  23.812  0.00  0.00    +0.000 A 
ATOM     21 CL   UNL     1      -2.047  15.605  24.671  0.00  0.00    +0.000 Cl
ATOM     22  S   UNL     1      -0.870  13.764  22.699  0.00  0.00    +0.000 S 
ENDBRANCH  16  17
ENDBRANCH   6  16
TORSDOF 5
ENDMDL
MODEL 7
REMARK VINA RESULT:      -6.0      4.015      5.386
REMARK  Name = 
REMARK  5 active torsions:
REMARK  status: ('A' for Active; 'I' for Inactive)
REMARK    1  A    between atoms: C_2  and  C_3
REMARK    2  A    between atoms: C_3  and  C_4
REMARK    3  A    between atoms: C_4  and  N_5
REMARK    4  A    between atoms: N_13  and  C_14
REMARK    5  A    between atoms: C_14  and  C_15
REMARK                            x       y       z     vdW  Elec       q    Type
REMARK                         _______ _______ _______ _____ _____    ______ ____
ROOT
ATOM      1  O   UNL     1       5.307   3.259  18.949  0.00  0.00    +0.000 OA
ATOM      2  C   UNL     1       5.024   4.193  18.196  0.00  0.00    +0.000 C 
ATOM      3  N   UNL     1       4.187   5.222  18.588  0.00  0.00    +0.000 N 
ATOM      4  C   UNL     1       3.831   6.413  17.803  0.00  0.00    +0.000 C 
ATOM      5  C   UNL     1       2.305   6.669  17.830  0.00  0.00    +0.000 C 
ATOM      6  N   UNL     1       1.707   6.698  19.188  0.00  0.00    +0.000 NA
ATOM      7  C   UNL     1       2.088   5.442  19.881  0.00  0.00    +0.000 C 
ATOM      8  C   UNL     1       3.604   5.179  19.933  0.00  0.00    +0.000 C 
ENDROOT
BRANCH   2   9
ATOM      9  C   UNL     1       5.625   4.256  16.814  0.00  0.00    +0.000 C 
BRANCH   9  10
ATOM     10  C   UNL     1       7.134   4.431  16.914  0.00  0.00    +0.000 C 
BRANCH  10  11
ATOM     11  N   UNL     1       7.484   5.751  17.404  0.00  0.00    +0.000 N 
ATOM     12  C   UNL     1       7.923   6.067  18.654  0.00  0.00    +0.000 A 
ATOM     13  C   UNL     1       8.091   7.428  18.666  0.00  0.00    +0.000 A 
ATOM     14  C   UNL     1       7.725   7.846  17.374  0.00  0.00    +0.000 A 
ATOM     15  N   UNL     1       7.361   6.823  16.597  0.00  0.00    +0.000 NA
ENDBRANCH  10  11
ENDBRANCH   9  10
ENDBRANCH   2   9
BRANCH   6  16
ATOM     16  C   UNL     1       2.136   7.915  19.903  0.00  0.00    +0.000 C 
BRANCH  16  17
ATOM     17  C   UNL     1       1.229   9.092  19.692  0.00  0.00    +0.000 A 
ATOM     18  C   UNL     1       1.133   9.929  18.593  0.00  0.00    +0.000 A 
ATOM     19  C   UNL     1       0.158  10.956  18.779  0.00  0.00    +0.000 A 
ATOM     20  C   UNL     1      -0.444  10.851  20.006  0.00  0.00    +0.000 A 
ATOM     21 CL   UNL     1      -1.672  11.869  20.640  0.00  0.00    +0.000 Cl
ATOM     22  S   UNL     1       0.138   9.567  20.935  0.00  0.00    +0.000 S 
ENDBRANCH  16  17
ENDBRANCH   6  16
TORSDOF 5
ENDMDL
MODEL 8
REMARK VINA RESULT:      -5.9      1.147      1.553
REMARK  Name = 
REMARK  5 active torsions:
REMARK  status: ('A' for Active; 'I' for Inactive)
REMARK    1  A    between atoms: C_2  and  C_3
REMARK    2  A    between atoms: C_3  and  C_4
REMARK    3  A    between atoms: C_4  and  N_5
REMARK    4  A    between atoms: N_13  and  C_14
REMARK    5  A    between atoms: C_14  and  C_15
REMARK                            x       y       z     vdW  Elec       q    Type
REMARK                         _______ _______ _______ _____ _____    ______ ____
ROOT
ATOM      1  O   UNL     1       8.380   7.174  16.244  0.00  0.00    +0.000 OA
ATOM      2  C   UNL     1       7.654   7.160  17.242  0.00  0.00    +0.000 C 
ATOM      3  N   UNL     1       6.611   6.262  17.376  0.00  0.00    +0.000 N 
ATOM      4  C   UNL     1       5.725   6.112  18.540  0.00  0.00    +0.000 C 
ATOM      5  C   UNL     1       4.239   6.047  18.112  0.00  0.00    +0.000 C 
ATOM      6  N   UNL     1       3.944   5.049  17.054  0.00  0.00    +0.000 NA
ATOM      7  C   UNL     1       4.857   5.309  15.913  0.00  0.00    +0.000 C 
ATOM      8  C   UNL     1       6.350   5.319  16.283  0.00  0.00    +0.000 C 
ENDROOT
BRANCH   2   9
ATOM      9  C   UNL     1       7.916   8.116  18.378  0.00  0.00    +0.000 C 
BRANCH   9  10
ATOM     10  C   UNL     1       8.032   9.537  17.843  0.00  0.00    +0.000 C 
BRANCH  10  11
ATOM     11  N   UNL     1       9.063  10.284  18.539  0.00  0.00    +0.000 N 
ATOM     12  C   UNL     1       9.251  10.354  19.887  0.00  0.00    +0.000 A 
ATOM     13  C   UNL     1      10.315  11.197  20.080  0.00  0.00    +0.000 A 
ATOM     14  C   UNL     1      10.702  11.588  18.786  0.00  0.00    +0.000 A 
ATOM     15  N   UNL     1       9.944  11.026  17.841  0.00  0.00    +0.000 NA
ENDBRANCH  10  11
ENDBRANCH   9  10
ENDBRANCH   2   9
BRANCH   6  16
ATOM     16  C   UNL     1       4.064   3.684  17.600  0.00  0.00    +0.000 C 
BRANCH  16  17
ATOM     17  C   UNL     1       2.958   3.310  18.545  0.00  0.00    +0.000 A 
ATOM     18  C   UNL     1       1.608   3.154  18.282  0.00  0.00    +0.000 A 
ATOM     19  C   UNL     1       0.866   2.810  19.453  0.00  0.00    +0.000 A 
ATOM     20  C   UNL     1       1.684   2.715  20.548  0.00  0.00    +0.000 A 
ATOM     21 CL   UNL     1       1.216   2.320  22.151  0.00  0.00    +0.000 Cl
ATOM     22  S   UNL     1       3.306   3.040  20.208  0.00  0.00    +0.000 S 
ENDBRANCH  16  17
ENDBRANCH   6  16
TORSDOF 5
ENDMDL
MODEL 9
REMARK VINA RESULT:      -5.9      4.339      5.697
REMARK  Name = 
REMARK  5 active torsions:
REMARK  status: ('A' for Active; 'I' for Inactive)
REMARK    1  A    between atoms: C_2  and  C_3
REMARK    2  A    between atoms: C_3  and  C_4
REMARK    3  A    between atoms: C_4  and  N_5
REMARK    4  A    between atoms: N_13  and  C_14
REMARK    5  A    between atoms: C_14  and  C_15
REMARK                            x       y       z     vdW  Elec       q    Type
REMARK                         _______ _______ _______ _____ _____    ______ ____
ROOT
ATOM      1  O   UNL     1       4.485   2.875  18.654  0.00  0.00    +0.000 OA
ATOM      2  C   UNL     1       4.330   3.953  18.074  0.00  0.00    +0.000 C 
ATOM      3  N   UNL     1       3.688   5.021  18.673  0.00  0.00    +0.000 N 
ATOM      4  C   UNL     1       3.501   6.365  18.107  0.00  0.00    +0.000 C 
ATOM      5  C   UNL     1       2.039   6.847  18.268  0.00  0.00    +0.000 C 
ATOM      6  N   UNL     1       1.504   6.745  19.649  0.00  0.00    +0.000 NA
ATOM      7  C   UNL     1       1.701   5.349  20.113  0.00  0.00    +0.000 C 
ATOM      8  C   UNL     1       3.154   4.850  20.029  0.00  0.00    +0.000 C 
ENDROOT
BRANCH   2   9
ATOM      9  C   UNL     1       4.882   4.148  16.684  0.00  0.00    +0.000 C 
BRANCH   9  10
ATOM     10  C   UNL     1       6.402   4.046  16.712  0.00  0.00    +0.000 C 
BRANCH  10  11
ATOM     11  N   UNL     1       6.992   5.139  17.461  0.00  0.00    +0.000 N 
ATOM     12  C   UNL     1       7.087   6.440  17.070  0.00  0.00    +0.000 A 
ATOM     13  C   UNL     1       7.746   7.095  18.078  0.00  0.00    +0.000 A 
ATOM     14  C   UNL     1       8.011   6.101  19.038  0.00  0.00    +0.000 A 
ATOM     15  N   UNL     1       7.544   4.906  18.668  0.00  0.00    +0.000 NA
ENDBRANCH  10  11
ENDBRANCH   9  10
ENDBRANCH   2   9
BRANCH   6  16
ATOM     16  C   UNL     1       2.152   7.747  20.516  0.00  0.00    +0.000 C 
BRANCH  16  17
ATOM     17  C   UNL     1       1.203   8.767  21.076  0.00  0.00    +0.000 A 
ATOM     18  C   UNL     1       0.800   8.951  22.388  0.00  0.00    +0.000 A 
ATOM     19  C   UNL     1      -0.135  10.022  22.521  0.00  0.00    +0.000 A 
ATOM     20  C   UNL     1      -0.397  10.606  21.309  0.00  0.00    +0.000 A 
ATOM     21 CL   UNL     1      -1.451  11.926  21.008  0.00  0.00    +0.000 Cl
ATOM     22  S   UNL     1       0.438   9.895  20.025  0.00  0.00    +0.000 S 
ENDBRANCH  16  17
ENDBRANCH   6  16
TORSDOF 5
ENDMDL
