MODEL 1
REMARK VINA RESULT:      -8.6      0.000      0.000
REMARK  Name = 
REMARK  7 active torsions:
REMARK  status: ('A' for Active; 'I' for Inactive)
REMARK    1  A    between atoms: C_1  and  O_2
REMARK    2  A    between atoms: O_2  and  C_3
REMARK    3  A    between atoms: C_6  and  C_7
REMARK    4  A    between atoms: N_9  and  C_10
REMARK    5  A    between atoms: C_16  and  C_17
REMARK    6  A    between atoms: C_25  and  O_26
REMARK    7  A    between atoms: O_26  and  C_27
REMARK                            x       y       z     vdW  Elec       q    Type
REMARK                         _______ _______ _______ _____ _____    ______ ____
ROOT
ATOM      1  C   UNL     1       1.411   8.183  20.475  0.00  0.00    +0.000 C 
ATOM      2  O   UNL     1       1.682   7.210  21.145  0.00  0.00    +0.000 OA
ATOM      3  N   UNL     1       1.864   8.383  19.169  0.00  0.00    +0.000 N 
ATOM      4  H   UNL     1       1.616   9.253  18.722  0.00  0.00    +0.000 HD
ENDROOT
BRANCH   3   5
ATOM      5  C   UNL     1       2.478   7.416  18.317  0.00  0.00    +0.000 A 
ATOM      6  C   UNL     1       3.683   7.665  17.600  0.00  0.00    +0.000 A 
ATOM      7  C   UNL     1       4.447   6.600  17.099  0.00  0.00    +0.000 A 
ATOM      8  C   UNL     1       3.974   5.357  17.432  0.00  0.00    +0.000 A 
ATOM      9  C   UNL     1       2.736   5.030  17.965  0.00  0.00    +0.000 A 
ATOM     10  C   UNL     1       1.946   6.097  18.380  0.00  0.00    +0.000 A 
ATOM     11  C   UNL     1       2.856   3.642  18.571  0.00  0.00    +0.000 C 
ATOM     12  C   UNL     1       2.847   2.352  17.699  0.00  0.00    +0.000 C 
ATOM     13  C   UNL     1       4.355   3.662  18.921  0.00  0.00    +0.000 C 
ATOM     14  O   UNL     1       4.914   2.956  19.723  0.00  0.00    +0.000 OA
ATOM     15  N   UNL     1       4.915   4.463  17.928  0.00  0.00    +0.000 N 
ATOM     16  C   UNL     1       5.980   4.125  17.032  0.00  0.00    +0.000 C 
ATOM     17  C   UNL     1       6.563   5.354  16.325  0.00  0.00    +0.000 C 
ATOM     18  C   UNL     1       5.877   6.718  16.627  0.00  0.00    +0.000 C 
ENDBRANCH   3   5
BRANCH   1  22
ATOM     19  C   UNL     1      -0.899  11.232  22.525  0.00  0.00    +0.000 A 
ATOM     20  C   UNL     1      -0.511  10.037  23.148  0.00  0.00    +0.000 A 
ATOM     21  C   UNL     1       0.225   9.075  22.457  0.00  0.00    +0.000 A 
ATOM     22  C   UNL     1       0.577   9.250  21.114  0.00  0.00    +0.000 A 
ATOM     23  C   UNL     1       0.097  10.393  20.460  0.00  0.00    +0.000 A 
ATOM     24  C   UNL     1      -0.640  11.382  21.154  0.00  0.00    +0.000 A 
BRANCH  19  26
ATOM     25  C   UNL     1      -2.970  12.164  23.240  0.00  0.00    +0.000 C 
ATOM     26  O   UNL     1      -1.543  12.217  23.222  0.00  0.00    +0.000 OA
ENDBRANCH  19  26
BRANCH  24  27
ATOM     27  O   UNL     1      -0.989  12.443  20.338  0.00  0.00    +0.000 OA
ATOM     28  C   UNL     1      -1.308  12.195  18.984  0.00  0.00    +0.000 C 
ENDBRANCH  24  27
ENDBRANCH   1  22
TORSDOF 4
ENDMDL
MODEL 2
REMARK VINA RESULT:      -8.3      1.477      2.218
REMARK  Name = 
REMARK  7 active torsions:
REMARK  status: ('A' for Active; 'I' for Inactive)
REMARK    1  A    between atoms: C_1  and  O_2
REMARK    2  A    between atoms: O_2  and  C_3
REMARK    3  A    between atoms: C_6  and  C_7
REMARK    4  A    between atoms: N_9  and  C_10
REMARK    5  A    between atoms: C_16  and  C_17
REMARK    6  A    between atoms: C_25  and  O_26
REMARK    7  A    between atoms: O_26  and  C_27
REMARK                            x       y       z     vdW  Elec       q    Type
REMARK                         _______ _______ _______ _____ _____    ______ ____
ROOT
ATOM      1  C   UNL     1       1.109   9.363  18.621  0.00  0.00    +0.000 C 
ATOM      2  O   UNL     1       0.634   9.437  17.508  0.00  0.00    +0.000 OA
ATOM      3  N   UNL     1       1.934   8.322  19.050  0.00  0.00    +0.000 N 
ATOM      4  H   UNL     1       2.234   8.336  20.014  0.00  0.00    +0.000 HD
ENDROOT
BRANCH   3   5
ATOM      5  C   UNL     1       2.566   7.336  18.233  0.00  0.00    +0.000 A 
ATOM      6  C   UNL     1       3.777   7.574  17.522  0.00  0.00    +0.000 A 
ATOM      7  C   UNL     1       4.555   6.501  17.061  0.00  0.00    +0.000 A 
ATOM      8  C   UNL     1       4.089   5.265  17.426  0.00  0.00    +0.000 A 
ATOM      9  C   UNL     1       2.847   4.943  17.955  0.00  0.00    +0.000 A 
ATOM     10  C   UNL     1       2.044   6.015  18.329  0.00  0.00    +0.000 A 
ATOM     11  C   UNL     1       2.972   3.575  18.603  0.00  0.00    +0.000 C 
ATOM     12  C   UNL     1       2.984   2.259  17.769  0.00  0.00    +0.000 C 
ATOM     13  C   UNL     1       4.467   3.617  18.968  0.00  0.00    +0.000 C 
ATOM     14  O   UNL     1       5.022   2.940  19.796  0.00  0.00    +0.000 OA
ATOM     15  N   UNL     1       5.031   4.393  17.957  0.00  0.00    +0.000 N 
ATOM     16  C   UNL     1       6.110   4.039  17.084  0.00  0.00    +0.000 C 
ATOM     17  C   UNL     1       6.690   5.251  16.348  0.00  0.00    +0.000 C 
ATOM     18  C   UNL     1       5.989   6.617  16.602  0.00  0.00    +0.000 C 
ENDBRANCH   3   5
BRANCH   1  22
ATOM     19  C   UNL     1      -0.038  12.592  21.285  0.00  0.00    +0.000 A 
ATOM     20  C   UNL     1       0.401  12.819  19.973  0.00  0.00    +0.000 A 
ATOM     21  C   UNL     1       0.769  11.759  19.146  0.00  0.00    +0.000 A 
ATOM     22  C   UNL     1       0.743  10.435  19.601  0.00  0.00    +0.000 A 
ATOM     23  C   UNL     1       0.409  10.216  20.943  0.00  0.00    +0.000 A 
ATOM     24  C   UNL     1       0.022  11.283  21.789  0.00  0.00    +0.000 A 
BRANCH  19  26
ATOM     25  C   UNL     1       0.395  14.730  22.238  0.00  0.00    +0.000 C 
ATOM     26  O   UNL     1      -0.485  13.618  22.071  0.00  0.00    +0.000 OA
ENDBRANCH  19  26
BRANCH  24  27
ATOM     27  O   UNL     1      -0.301  10.851  23.062  0.00  0.00    +0.000 OA
ATOM     28  C   UNL     1      -0.089   9.496  23.405  0.00  0.00    +0.000 C 
ENDBRANCH  24  27
ENDBRANCH   1  22
TORSDOF 4
ENDMDL
MODEL 3
REMARK VINA RESULT:      -8.2      1.245      1.304
REMARK  Name = 
REMARK  7 active torsions:
REMARK  status: ('A' for Active; 'I' for Inactive)
REMARK    1  A    between atoms: C_1  and  O_2
REMARK    2  A    between atoms: O_2  and  C_3
REMARK    3  A    between atoms: C_6  and  C_7
REMARK    4  A    between atoms: N_9  and  C_10
REMARK    5  A    between atoms: C_16  and  C_17
REMARK    6  A    between atoms: C_25  and  O_26
REMARK    7  A    between atoms: O_26  and  C_27
REMARK                            x       y       z     vdW  Elec       q    Type
REMARK                         _______ _______ _______ _____ _____    ______ ____
ROOT
ATOM      1  C   UNL     1       1.389   9.325  18.722  0.00  0.00    +0.000 C 
ATOM      2  O   UNL     1       1.533   9.827  17.628  0.00  0.00    +0.000 OA
ATOM      3  N   UNL     1       1.743   8.010  19.030  0.00  0.00    +0.000 N 
ATOM      4  H   UNL     1       1.535   7.680  19.961  0.00  0.00    +0.000 HD
ENDROOT
BRANCH   3   5
ATOM      5  C   UNL     1       2.544   7.130  18.241  0.00  0.00    +0.000 A 
ATOM      6  C   UNL     1       3.789   7.516  17.666  0.00  0.00    +0.000 A 
ATOM      7  C   UNL     1       4.710   6.546  17.242  0.00  0.00    +0.000 A 
ATOM      8  C   UNL     1       4.334   5.254  17.505  0.00  0.00    +0.000 A 
ATOM      9  C   UNL     1       3.085   4.791  17.892  0.00  0.00    +0.000 A 
ATOM     10  C   UNL     1       2.148   5.763  18.228  0.00  0.00    +0.000 A 
ATOM     11  C   UNL     1       3.280   3.409  18.492  0.00  0.00    +0.000 C 
ATOM     12  C   UNL     1       3.501   2.145  17.610  0.00  0.00    +0.000 C 
ATOM     13  C   UNL     1       4.721   3.572  19.008  0.00  0.00    +0.000 C 
ATOM     14  O   UNL     1       5.257   2.909  19.859  0.00  0.00    +0.000 OA
ATOM     15  N   UNL     1       5.301   4.448  18.093  0.00  0.00    +0.000 N 
ATOM     16  C   UNL     1       6.489   4.241  17.319  0.00  0.00    +0.000 C 
ATOM     17  C   UNL     1       7.016   5.539  16.697  0.00  0.00    +0.000 C 
ATOM     18  C   UNL     1       6.163   6.819  16.935  0.00  0.00    +0.000 C 
ENDBRANCH   3   5
BRANCH   1  22
ATOM     19  C   UNL     1      -0.395  11.592  21.964  0.00  0.00    +0.000 A 
ATOM     20  C   UNL     1      -0.369  10.190  21.952  0.00  0.00    +0.000 A 
ATOM     21  C   UNL     1       0.206   9.492  20.890  0.00  0.00    +0.000 A 
ATOM     22  C   UNL     1       0.750  10.161  19.787  0.00  0.00    +0.000 A 
ATOM     23  C   UNL     1       0.627  11.556  19.747  0.00  0.00    +0.000 A 
ATOM     24  C   UNL     1       0.057  12.275  20.825  0.00  0.00    +0.000 A 
BRANCH  19  26
ATOM     25  C   UNL     1      -2.293  12.278  23.228  0.00  0.00    +0.000 C 
ATOM     26  O   UNL     1      -0.877  12.282  23.042  0.00  0.00    +0.000 OA
ENDBRANCH  19  26
BRANCH  24  27
ATOM     27  O   UNL     1       0.062  13.640  20.603  0.00  0.00    +0.000 OA
ATOM     28  C   UNL     1      -0.368  14.137  19.351  0.00  0.00    +0.000 C 
ENDBRANCH  24  27
ENDBRANCH   1  22
TORSDOF 4
ENDMDL
MODEL 4
REMARK VINA RESULT:      -8.2      2.212      8.907
REMARK  Name = 
REMARK  7 active torsions:
REMARK  status: ('A' for Active; 'I' for Inactive)
REMARK    1  A    between atoms: C_1  and  O_2
REMARK    2  A    between atoms: O_2  and  C_3
REMARK    3  A    between atoms: C_6  and  C_7
REMARK    4  A    between atoms: N_9  and  C_10
REMARK    5  A    between atoms: C_16  and  C_17
REMARK    6  A    between atoms: C_25  and  O_26
REMARK    7  A    between atoms: O_26  and  C_27
REMARK                            x       y       z     vdW  Elec       q    Type
REMARK                         _______ _______ _______ _____ _____    ______ ____
ROOT
ATOM      1  C   UNL     1       2.855   6.562  18.166  0.00  0.00    +0.000 C 
ATOM      2  O   UNL     1       2.150   5.698  18.642  0.00  0.00    +0.000 OA
ATOM      3  N   UNL     1       2.519   7.917  18.137  0.00  0.00    +0.000 N 
ATOM      4  H   UNL     1       3.159   8.542  17.672  0.00  0.00    +0.000 HD
ENDROOT
BRANCH   3   5
ATOM      5  C   UNL     1       1.464   8.554  18.857  0.00  0.00    +0.000 A 
ATOM      6  C   UNL     1       1.136   8.229  20.205  0.00  0.00    +0.000 A 
ATOM      7  C   UNL     1       0.381   9.116  20.988  0.00  0.00    +0.000 A 
ATOM      8  C   UNL     1       0.082  10.304  20.372  0.00  0.00    +0.000 A 
ATOM      9  C   UNL     1       0.208  10.623  19.027  0.00  0.00    +0.000 A 
ATOM     10  C   UNL     1       0.882   9.696  18.238  0.00  0.00    +0.000 A 
ATOM     11  C   UNL     1       0.197  12.138  18.918  0.00  0.00    +0.000 C 
ATOM     12  C   UNL     1      -1.117  12.967  19.015  0.00  0.00    +0.000 C 
ATOM     13  C   UNL     1       0.779  12.482  20.301  0.00  0.00    +0.000 C 
ATOM     14  O   UNL     1       1.301  13.520  20.621  0.00  0.00    +0.000 OA
ATOM     15  N   UNL     1       0.319  11.451  21.118  0.00  0.00    +0.000 N 
ATOM     16  C   UNL     1      -0.435  11.569  22.330  0.00  0.00    +0.000 C 
ATOM     17  C   UNL     1      -0.457  10.264  23.134  0.00  0.00    +0.000 C 
ATOM     18  C   UNL     1       0.256   9.040  22.491  0.00  0.00    +0.000 C 
ENDBRANCH   3   5
BRANCH   1  22
ATOM     19  C   UNL     1       6.463   5.175  16.192  0.00  0.00    +0.000 A 
ATOM     20  C   UNL     1       5.358   4.340  16.412  0.00  0.00    +0.000 A 
ATOM     21  C   UNL     1       4.217   4.816  17.057  0.00  0.00    +0.000 A 
ATOM     22  C   UNL     1       4.142   6.131  17.533  0.00  0.00    +0.000 A 
ATOM     23  C   UNL     1       5.284   6.932  17.411  0.00  0.00    +0.000 A 
ATOM     24  C   UNL     1       6.444   6.464  16.747  0.00  0.00    +0.000 A 
BRANCH  19  26
ATOM     25  C   UNL     1       7.447   4.786  14.060  0.00  0.00    +0.000 C 
ATOM     26  O   UNL     1       7.548   4.740  15.483  0.00  0.00    +0.000 OA
ENDBRANCH  19  26
BRANCH  24  27
ATOM     27  O   UNL     1       7.443   7.419  16.704  0.00  0.00    +0.000 OA
ATOM     28  C   UNL     1       7.916   7.977  17.914  0.00  0.00    +0.000 C 
ENDBRANCH  24  27
ENDBRANCH   1  22
TORSDOF 4
ENDMDL
MODEL 5
REMARK VINA RESULT:      -8.1      2.677      4.107
REMARK  Name = 
REMARK  7 active torsions:
REMARK  status: ('A' for Active; 'I' for Inactive)
REMARK    1  A    between atoms: C_1  and  O_2
REMARK    2  A    between atoms: O_2  and  C_3
REMARK    3  A    between atoms: C_6  and  C_7
REMARK    4  A    between atoms: N_9  and  C_10
REMARK    5  A    between atoms: C_16  and  C_17
REMARK    6  A    between atoms: C_25  and  O_26
REMARK    7  A    between atoms: O_26  and  C_27
REMARK                            x       y       z     vdW  Elec       q    Type
REMARK                         _______ _______ _______ _____ _____    ______ ____
ROOT
ATOM      1  C   UNL     1       0.514   9.613  18.709  0.00  0.00    +0.000 C 
ATOM      2  O   UNL     1       0.985  10.112  19.707  0.00  0.00    +0.000 OA
ATOM      3  N   UNL     1       1.145   8.615  17.963  0.00  0.00    +0.000 N 
ATOM      4  H   UNL     1       0.683   8.306  17.120  0.00  0.00    +0.000 HD
ENDROOT
BRANCH   3   5
ATOM      5  C   UNL     1       2.278   7.839  18.353  0.00  0.00    +0.000 A 
ATOM      6  C   UNL     1       2.209   6.793  19.317  0.00  0.00    +0.000 A 
ATOM      7  C   UNL     1       3.219   5.821  19.387  0.00  0.00    +0.000 A 
ATOM      8  C   UNL     1       4.185   5.937  18.422  0.00  0.00    +0.000 A 
ATOM      9  C   UNL     1       4.419   7.009  17.572  0.00  0.00    +0.000 A 
ATOM     10  C   UNL     1       3.455   8.012  17.573  0.00  0.00    +0.000 A 
ATOM     11  C   UNL     1       5.260   6.496  16.416  0.00  0.00    +0.000 C 
ATOM     12  C   UNL     1       6.789   6.240  16.552  0.00  0.00    +0.000 C 
ATOM     13  C   UNL     1       4.791   5.030  16.410  0.00  0.00    +0.000 C 
ATOM     14  O   UNL     1       4.876   4.253  15.492  0.00  0.00    +0.000 OA
ATOM     15  N   UNL     1       4.515   4.766  17.750  0.00  0.00    +0.000 N 
ATOM     16  C   UNL     1       5.057   3.718  18.562  0.00  0.00    +0.000 C 
ATOM     17  C   UNL     1       4.271   3.520  19.863  0.00  0.00    +0.000 C 
ATOM     18  C   UNL     1       3.096   4.507  20.121  0.00  0.00    +0.000 C 
ENDBRANCH   3   5
BRANCH   1  22
ATOM     19  C   UNL     1      -3.241  11.346  17.392  0.00  0.00    +0.000 A 
ATOM     20  C   UNL     1      -2.575  11.782  18.547  0.00  0.00    +0.000 A 
ATOM     21  C   UNL     1      -1.374  11.198  18.946  0.00  0.00    +0.000 A 
ATOM     22  C   UNL     1      -0.803  10.139  18.229  0.00  0.00    +0.000 A 
ATOM     23  C   UNL     1      -1.522   9.631  17.138  0.00  0.00    +0.000 A 
ATOM     24  C   UNL     1      -2.736  10.224  16.717  0.00  0.00    +0.000 A 
BRANCH  19  26
ATOM     25  C   UNL     1      -5.567  11.754  17.698  0.00  0.00    +0.000 C 
ATOM     26  O   UNL     1      -4.372  11.973  16.947  0.00  0.00    +0.000 OA
ENDBRANCH  19  26
BRANCH  24  27
ATOM     27  O   UNL     1      -3.266   9.596  15.605  0.00  0.00    +0.000 OA
ATOM     28  C   UNL     1      -3.007  10.131  14.322  0.00  0.00    +0.000 C 
ENDBRANCH  24  27
ENDBRANCH   1  22
TORSDOF 4
ENDMDL
MODEL 6
REMARK VINA RESULT:      -7.9      1.945      3.175
REMARK  Name = 
REMARK  7 active torsions:
REMARK  status: ('A' for Active; 'I' for Inactive)
REMARK    1  A    between atoms: C_1  and  O_2
REMARK    2  A    between atoms: O_2  and  C_3
REMARK    3  A    between atoms: C_6  and  C_7
REMARK    4  A    between atoms: N_9  and  C_10
REMARK    5  A    between atoms: C_16  and  C_17
REMARK    6  A    between atoms: C_25  and  O_26
REMARK    7  A    between atoms: O_26  and  C_27
REMARK                            x       y       z     vdW  Elec       q    Type
REMARK                         _______ _______ _______ _____ _____    ______ ____
ROOT
ATOM      1  C   UNL     1       0.892   9.205  21.081  0.00  0.00    +0.000 C 
ATOM      2  O   UNL     1       1.317   9.087  22.210  0.00  0.00    +0.000 OA
ATOM      3  N   UNL     1       1.316   8.427  20.002  0.00  0.00    +0.000 N 
ATOM      4  H   UNL     1       0.930   8.645  19.095  0.00  0.00    +0.000 HD
ENDROOT
BRANCH   3   5
ATOM      5  C   UNL     1       2.090   7.229  20.060  0.00  0.00    +0.000 A 
ATOM      6  C   UNL     1       1.852   6.195  21.009  0.00  0.00    +0.000 A 
ATOM      7  C   UNL     1       2.355   4.902  20.797  0.00  0.00    +0.000 A 
ATOM      8  C   UNL     1       2.995   4.733  19.596  0.00  0.00    +0.000 A 
ATOM      9  C   UNL     1       3.418   5.713  18.709  0.00  0.00    +0.000 A 
ATOM     10  C   UNL     1       2.987   7.009  18.976  0.00  0.00    +0.000 A 
ATOM     11  C   UNL     1       3.641   5.042  17.365  0.00  0.00    +0.000 C 
ATOM     12  C   UNL     1       4.908   4.190  17.063  0.00  0.00    +0.000 C 
ATOM     13  C   UNL     1       2.628   3.891  17.501  0.00  0.00    +0.000 C 
ATOM     14  O   UNL     1       2.146   3.250  16.601  0.00  0.00    +0.000 OA
ATOM     15  N   UNL     1       2.629   3.610  18.865  0.00  0.00    +0.000 N 
ATOM     16  C   UNL     1       2.884   2.350  19.497  0.00  0.00    +0.000 C 
ATOM     17  C   UNL     1       2.456   2.336  20.969  0.00  0.00    +0.000 C 
ATOM     18  C   UNL     1       1.900   3.671  21.543  0.00  0.00    +0.000 C 
ENDBRANCH   3   5
BRANCH   1  22
ATOM     19  C   UNL     1      -1.943  12.447  20.543  0.00  0.00    +0.000 A 
ATOM     20  C   UNL     1      -1.539  12.003  21.811  0.00  0.00    +0.000 A 
ATOM     21  C   UNL     1      -0.632  10.953  21.948  0.00  0.00    +0.000 A 
ATOM     22  C   UNL     1      -0.114  10.286  20.831  0.00  0.00    +0.000 A 
ATOM     23  C   UNL     1      -0.599  10.656  19.570  0.00  0.00    +0.000 A 
ATOM     24  C   UNL     1      -1.510  11.728  19.418  0.00  0.00    +0.000 A 
BRANCH  19  26
ATOM     25  C   UNL     1      -4.143  13.342  20.714  0.00  0.00    +0.000 C 
ATOM     26  O   UNL     1      -2.763  13.532  20.401  0.00  0.00    +0.000 OA
ENDBRANCH  19  26
BRANCH  24  27
ATOM     27  O   UNL     1      -1.836  11.954  18.093  0.00  0.00    +0.000 OA
ATOM     28  C   UNL     1      -2.814  11.140  17.475  0.00  0.00    +0.000 C 
ENDBRANCH  24  27
ENDBRANCH   1  22
TORSDOF 4
ENDMDL
MODEL 7
REMARK VINA RESULT:      -7.9      2.549      9.156
REMARK  Name = 
REMARK  7 active torsions:
REMARK  status: ('A' for Active; 'I' for Inactive)
REMARK    1  A    between atoms: C_1  and  O_2
REMARK    2  A    between atoms: O_2  and  C_3
REMARK    3  A    between atoms: C_6  and  C_7
REMARK    4  A    between atoms: N_9  and  C_10
REMARK    5  A    between atoms: C_16  and  C_17
REMARK    6  A    between atoms: C_25  and  O_26
REMARK    7  A    between atoms: O_26  and  C_27
REMARK                            x       y       z     vdW  Elec       q    Type
REMARK                         _______ _______ _______ _____ _____    ______ ____
ROOT
ATOM      1  C   UNL     1       1.653   9.065  18.304  0.00  0.00    +0.000 C 
ATOM      2  O   UNL     1       2.075   9.788  17.428  0.00  0.00    +0.000 OA
ATOM      3  N   UNL     1       0.552   9.371  19.107  0.00  0.00    +0.000 N 
ATOM      4  H   UNL     1       0.317   8.717  19.839  0.00  0.00    +0.000 HD
ENDROOT
BRANCH   3   5
ATOM      5  C   UNL     1      -0.404  10.409  18.891  0.00  0.00    +0.000 A 
ATOM      6  C   UNL     1      -1.553  10.248  18.066  0.00  0.00    +0.000 A 
ATOM      7  C   UNL     1      -2.643  11.124  18.184  0.00  0.00    +0.000 A 
ATOM      8  C   UNL     1      -2.521  12.050  19.187  0.00  0.00    +0.000 A 
ATOM      9  C   UNL     1      -1.382  12.383  19.906  0.00  0.00    +0.000 A 
ATOM     10  C   UNL     1      -0.275  11.561  19.717  0.00  0.00    +0.000 A 
ATOM     11  C   UNL     1      -1.835  13.093  21.170  0.00  0.00    +0.000 C 
ATOM     12  C   UNL     1      -2.296  14.581  21.166  0.00  0.00    +0.000 C 
ATOM     13  C   UNL     1      -3.217  12.436  21.332  0.00  0.00    +0.000 C 
ATOM     14  O   UNL     1      -3.868  12.375  22.345  0.00  0.00    +0.000 OA
ATOM     15  N   UNL     1      -3.622  12.191  20.022  0.00  0.00    +0.000 N 
ATOM     16  C   UNL     1      -4.829  12.628  19.385  0.00  0.00    +0.000 C 
ATOM     17  C   UNL     1      -5.100  11.885  18.072  0.00  0.00    +0.000 C 
ATOM     18  C   UNL     1      -4.019  10.863  17.617  0.00  0.00    +0.000 C 
ENDBRANCH   3   5
BRANCH   1  22
ATOM     19  C   UNL     1       3.991   5.469  18.974  0.00  0.00    +0.000 A 
ATOM     20  C   UNL     1       4.215   6.320  17.882  0.00  0.00    +0.000 A 
ATOM     21  C   UNL     1       3.440   7.463  17.692  0.00  0.00    +0.000 A 
ATOM     22  C   UNL     1       2.394   7.790  18.564  0.00  0.00    +0.000 A 
ATOM     23  C   UNL     1       2.099   6.884  19.592  0.00  0.00    +0.000 A 
ATOM     24  C   UNL     1       2.887   5.727  19.801  0.00  0.00    +0.000 A 
BRANCH  19  26
ATOM     25  C   UNL     1       4.369   3.134  18.708  0.00  0.00    +0.000 C 
ATOM     26  O   UNL     1       4.803   4.396  19.214  0.00  0.00    +0.000 OA
ENDBRANCH  19  26
BRANCH  24  27
ATOM     27  O   UNL     1       2.450   4.987  20.885  0.00  0.00    +0.000 OA
ATOM     28  C   UNL     1       1.351   4.113  20.726  0.00  0.00    +0.000 C 
ENDBRANCH  24  27
ENDBRANCH   1  22
TORSDOF 4
ENDMDL
MODEL 8
REMARK VINA RESULT:      -7.9      2.203      9.119
REMARK  Name = 
REMARK  7 active torsions:
REMARK  status: ('A' for Active; 'I' for Inactive)
REMARK    1  A    between atoms: C_1  and  O_2
REMARK    2  A    between atoms: O_2  and  C_3
REMARK    3  A    between atoms: C_6  and  C_7
REMARK    4  A    between atoms: N_9  and  C_10
REMARK    5  A    between atoms: C_16  and  C_17
REMARK    6  A    between atoms: C_25  and  O_26
REMARK    7  A    between atoms: O_26  and  C_27
REMARK                            x       y       z     vdW  Elec       q    Type
REMARK                         _______ _______ _______ _____ _____    ______ ____
ROOT
ATOM      1  C   UNL     1       1.846   8.910  18.548  0.00  0.00    +0.000 C 
ATOM      2  O   UNL     1       2.020   9.561  17.541  0.00  0.00    +0.000 OA
ATOM      3  N   UNL     1       1.128   9.364  19.657  0.00  0.00    +0.000 N 
ATOM      4  H   UNL     1       1.088   8.756  20.462  0.00  0.00    +0.000 HD
ENDROOT
BRANCH   3   5
ATOM      5  C   UNL     1       0.278  10.509  19.718  0.00  0.00    +0.000 A 
ATOM      6  C   UNL     1      -0.886  10.658  18.911  0.00  0.00    +0.000 A 
ATOM      7  C   UNL     1      -1.883  11.580  19.262  0.00  0.00    +0.000 A 
ATOM      8  C   UNL     1      -1.665  12.227  20.451  0.00  0.00    +0.000 A 
ATOM      9  C   UNL     1      -0.495  12.271  21.196  0.00  0.00    +0.000 A 
ATOM     10  C   UNL     1       0.524  11.415  20.788  0.00  0.00    +0.000 A 
ATOM     11  C   UNL     1      -0.870  12.702  22.603  0.00  0.00    +0.000 C 
ATOM     12  C   UNL     1      -1.181  14.185  22.962  0.00  0.00    +0.000 C 
ATOM     13  C   UNL     1      -2.310  12.158  22.645  0.00  0.00    +0.000 C 
ATOM     14  O   UNL     1      -2.958  11.922  23.633  0.00  0.00    +0.000 OA
ATOM     15  N   UNL     1      -2.743  12.271  21.325  0.00  0.00    +0.000 N 
ATOM     16  C   UNL     1      -3.904  12.957  20.844  0.00  0.00    +0.000 C 
ATOM     17  C   UNL     1      -4.254  12.575  19.401  0.00  0.00    +0.000 C 
ATOM     18  C   UNL     1      -3.281  11.593  18.688  0.00  0.00    +0.000 C 
ENDBRANCH   3   5
BRANCH   1  22
ATOM     19  C   UNL     1       3.879   5.077  18.635  0.00  0.00    +0.000 A 
ATOM     20  C   UNL     1       4.019   5.979  17.570  0.00  0.00    +0.000 A 
ATOM     21  C   UNL     1       3.345   7.199  17.570  0.00  0.00    +0.000 A 
ATOM     22  C   UNL     1       2.484   7.557  18.615  0.00  0.00    +0.000 A 
ATOM     23  C   UNL     1       2.260   6.612  19.625  0.00  0.00    +0.000 A 
ATOM     24  C   UNL     1       2.948   5.375  19.641  0.00  0.00    +0.000 A 
BRANCH  19  26
ATOM     25  C   UNL     1       3.991   2.752  18.136  0.00  0.00    +0.000 C 
ATOM     26  O   UNL     1       4.606   3.919  18.682  0.00  0.00    +0.000 OA
ENDBRANCH  19  26
BRANCH  24  27
ATOM     27  O   UNL     1       2.610   4.603  20.738  0.00  0.00    +0.000 OA
ATOM     28  C   UNL     1       1.400   3.873  20.721  0.00  0.00    +0.000 C 
ENDBRANCH  24  27
ENDBRANCH   1  22
TORSDOF 4
ENDMDL
MODEL 9
REMARK VINA RESULT:      -7.9      1.942      8.947
REMARK  Name = 
REMARK  7 active torsions:
REMARK  status: ('A' for Active; 'I' for Inactive)
REMARK    1  A    between atoms: C_1  and  O_2
REMARK    2  A    between atoms: O_2  and  C_3
REMARK    3  A    between atoms: C_6  and  C_7
REMARK    4  A    between atoms: N_9  and  C_10
REMARK    5  A    between atoms: C_16  and  C_17
REMARK    6  A    between atoms: C_25  and  O_26
REMARK    7  A    between atoms: O_26  and  C_27
REMARK                            x       y       z     vdW  Elec       q    Type
REMARK                         _______ _______ _______ _____ _____    ______ ____
ROOT
ATOM      1  C   UNL     1       2.218   7.855  18.713  0.00  0.00    +0.000 C 
ATOM      2  O   UNL     1       1.916   7.830  19.886  0.00  0.00    +0.000 OA
ATOM      3  N   UNL     1       1.677   8.748  17.786  0.00  0.00    +0.000 N 
ATOM      4  H   UNL     1       1.964   8.648  16.824  0.00  0.00    +0.000 HD
ENDROOT
BRANCH   3   5
ATOM      5  C   UNL     1       0.907   9.917  18.071  0.00  0.00    +0.000 A 
ATOM      6  C   UNL     1      -0.487  10.015  17.796  0.00  0.00    +0.000 A 
ATOM      7  C   UNL     1      -1.270  10.995  18.426  0.00  0.00    +0.000 A 
ATOM      8  C   UNL     1      -0.597  11.751  19.350  0.00  0.00    +0.000 A 
ATOM      9  C   UNL     1       0.774  11.837  19.547  0.00  0.00    +0.000 A 
ATOM     10  C   UNL     1       1.552  10.918  18.850  0.00  0.00    +0.000 A 
ATOM     11  C   UNL     1       0.998  12.416  20.933  0.00  0.00    +0.000 C 
ATOM     12  C   UNL     1       0.835  13.935  21.234  0.00  0.00    +0.000 C 
ATOM     13  C   UNL     1      -0.292  11.918  21.612  0.00  0.00    +0.000 C 
ATOM     14  O   UNL     1      -0.478  11.799  22.797  0.00  0.00    +0.000 OA
ATOM     15  N   UNL     1      -1.226  11.910  20.579  0.00  0.00    +0.000 N 
ATOM     16  C   UNL     1      -2.494  12.576  20.543  0.00  0.00    +0.000 C 
ATOM     17  C   UNL     1      -3.394  12.062  19.414  0.00  0.00    +0.000 C 
ATOM     18  C   UNL     1      -2.780  10.987  18.472  0.00  0.00    +0.000 C 
ENDBRANCH   3   5
BRANCH   1  22
ATOM     19  C   UNL     1       5.207   5.055  17.278  0.00  0.00    +0.000 A 
ATOM     20  C   UNL     1       5.084   6.353  16.763  0.00  0.00    +0.000 A 
ATOM     21  C   UNL     1       4.107   7.225  17.241  0.00  0.00    +0.000 A 
ATOM     22  C   UNL     1       3.197   6.830  18.229  0.00  0.00    +0.000 A 
ATOM     23  C   UNL     1       3.249   5.500  18.666  0.00  0.00    +0.000 A 
ATOM     24  C   UNL     1       4.244   4.610  18.197  0.00  0.00    +0.000 A 
BRANCH  19  26
ATOM     25  C   UNL     1       7.522   4.509  17.384  0.00  0.00    +0.000 C 
ATOM     26  O   UNL     1       6.218   4.226  16.876  0.00  0.00    +0.000 OA
ENDBRANCH  19  26
BRANCH  24  27
ATOM     27  O   UNL     1       4.143   3.358  18.777  0.00  0.00    +0.000 OA
ATOM     28  C   UNL     1       3.421   2.344  18.107  0.00  0.00    +0.000 C 
ENDBRANCH  24  27
ENDBRANCH   1  22
TORSDOF 4
ENDMDL
