MODEL 1
REMARK VINA RESULT:      -9.0      0.000      0.000
REMARK  Name = 
REMARK  13 active torsions:
REMARK  status: ('A' for Active; 'I' for Inactive)
REMARK    1  A    between atoms: C_1  and  C_2
REMARK    2  A    between atoms: C_2  and  C_3
REMARK    3  A    between atoms: C_3  and  C_4
REMARK    4  A    between atoms: C_4  and  N_5
REMARK    5  A    between atoms: C_7  and  C_8
REMARK    6  A    between atoms: N_16  and  C_17
REMARK    7  A    between atoms: C_17  and  C_18
REMARK    8  A    between atoms: C_18  and  C_19
REMARK    9  A    between atoms: C_19  and  C_20
REMARK   10  A    between atoms: C_20  and  O_21
REMARK   11  A    between atoms: O_21  and  C_22
REMARK   12  A    between atoms: C_24  and  C_25
REMARK   13  A    between atoms: C_28  and  C_29
REMARK                            x       y       z     vdW  Elec       q    Type
REMARK                         _______ _______ _______ _____ _____    ______ ____
ROOT
ATOM      1  C   UNL     1       4.031   4.862  17.951  0.00  0.00    +0.000 A 
ATOM      2  N   UNL     1       4.374   3.784  18.630  0.00  0.00    +0.000 NA
ATOM      3  C   UNL     1       3.411   3.601  19.587  0.00  0.00    +0.000 A 
ATOM      4  C   UNL     1       3.300   2.589  20.552  0.00  0.00    +0.000 A 
ATOM      5  C   UNL     1       2.203   2.592  21.421  0.00  0.00    +0.000 A 
ATOM      6  C   UNL     1       1.226   3.581  21.322  0.00  0.00    +0.000 A 
ATOM      7  C   UNL     1       1.319   4.599  20.361  0.00  0.00    +0.000 A 
ATOM      8  C   UNL     1       2.439   4.594  19.513  0.00  0.00    +0.000 A 
ATOM      9  N   UNL     1       2.878   5.415  18.490  0.00  0.00    +0.000 N 
ENDROOT
BRANCH   1  12
ATOM     10  N   UNL     1       6.934   6.187  17.407  0.00  0.00    +0.000 N 
ATOM     11  C   UNL     1       5.602   6.662  17.123  0.00  0.00    +0.000 C 
ATOM     12  C   UNL     1       4.794   5.413  16.766  0.00  0.00    +0.000 C 
ATOM     13  C   UNL     1       5.868   4.445  16.254  0.00  0.00    +0.000 C 
ATOM     14  C   UNL     1       7.131   4.884  16.966  0.00  0.00    +0.000 C 
ATOM     15  O   UNL     1       8.148   4.226  17.054  0.00  0.00    +0.000 OA
BRANCH  10  16
ATOM     16  C   UNL     1       7.872   6.949  18.210  0.00  0.00    +0.000 C 
BRANCH  16  17
ATOM     17  C   UNL     1       8.039   8.410  17.791  0.00  0.00    +0.000 C 
BRANCH  17  19
ATOM     18  C   UNL     1       8.966  10.688  18.289  0.00  0.00    +0.000 C 
ATOM     19  C   UNL     1       8.839   9.253  18.784  0.00  0.00    +0.000 C 
ENDBRANCH  17  19
ENDBRANCH  16  17
ENDBRANCH  10  16
ENDBRANCH   1  12
BRANCH   9  20
ATOM     20  C   UNL     1       2.143   6.549  17.966  0.00  0.00    +0.000 C 
BRANCH  20  21
ATOM     21  C   UNL     1       2.323   7.871  18.728  0.00  0.00    +0.000 C 
BRANCH  21  22
ATOM     22  C   UNL     1       1.686   9.048  17.972  0.00  0.00    +0.000 C 
BRANCH  22  23
ATOM     23  C   UNL     1       0.595   9.685  18.820  0.00  0.00    +0.000 C 
BRANCH  23  24
ATOM     24  O   UNL     1       1.137  10.499  19.853  0.00  0.00    +0.000 OA
BRANCH  24  25
ATOM     25  C   UNL     1       0.212  10.757  20.846  0.00  0.00    +0.000 A 
ATOM     26  C   UNL     1      -0.815  11.699  20.695  0.00  0.00    +0.000 A 
ATOM     27  C   UNL     1      -1.707  11.979  21.730  0.00  0.00    +0.000 A 
ATOM     28  C   UNL     1      -2.717  13.075  21.574  0.00  0.00    +0.000 C 
ATOM     29  C   UNL     1      -1.605  11.249  22.915  0.00  0.00    +0.000 A 
ATOM     30  C   UNL     1      -0.601  10.284  23.065  0.00  0.00    +0.000 A 
ATOM     31  C   UNL     1       0.329  10.039  22.042  0.00  0.00    +0.000 A 
ATOM     32  C   UNL     1       1.456   9.069  22.259  0.00  0.00    +0.000 C 
ENDBRANCH  24  25
ENDBRANCH  23  24
ENDBRANCH  22  23
ENDBRANCH  21  22
ENDBRANCH  20  21
ENDBRANCH   9  20
TORSDOF 10
ENDMDL
MODEL 2
REMARK VINA RESULT:      -8.7      1.641      2.448
REMARK  Name = 
REMARK  13 active torsions:
REMARK  status: ('A' for Active; 'I' for Inactive)
REMARK    1  A    between atoms: C_1  and  C_2
REMARK    2  A    between atoms: C_2  and  C_3
REMARK    3  A    between atoms: C_3  and  C_4
REMARK    4  A    between atoms: C_4  and  N_5
REMARK    5  A    between atoms: C_7  and  C_8
REMARK    6  A    between atoms: N_16  and  C_17
REMARK    7  A    between atoms: C_17  and  C_18
REMARK    8  A    between atoms: C_18  and  C_19
REMARK    9  A    between atoms: C_19  and  C_20
REMARK   10  A    between atoms: C_20  and  O_21
REMARK   11  A    between atoms: O_21  and  C_22
REMARK   12  A    between atoms: C_24  and  C_25
REMARK   13  A    between atoms: C_28  and  C_29
REMARK                            x       y       z     vdW  Elec       q    Type
REMARK                         _______ _______ _______ _____ _____    ______ ____
ROOT
ATOM      1  C   UNL     1       3.969   4.714  17.227  0.00  0.00    +0.000 A 
ATOM      2  N   UNL     1       3.533   3.470  17.288  0.00  0.00    +0.000 NA
ATOM      3  C   UNL     1       2.658   3.413  18.340  0.00  0.00    +0.000 A 
ATOM      4  C   UNL     1       1.910   2.325  18.813  0.00  0.00    +0.000 A 
ATOM      5  C   UNL     1       1.052   2.510  19.903  0.00  0.00    +0.000 A 
ATOM      6  C   UNL     1       0.932   3.762  20.504  0.00  0.00    +0.000 A 
ATOM      7  C   UNL     1       1.670   4.862  20.042  0.00  0.00    +0.000 A 
ATOM      8  C   UNL     1       2.545   4.652  18.962  0.00  0.00    +0.000 A 
ATOM      9  N   UNL     1       3.424   5.459  18.263  0.00  0.00    +0.000 N 
ENDROOT
BRANCH   1  12
ATOM     10  N   UNL     1       6.908   6.069  17.176  0.00  0.00    +0.000 N 
ATOM     11  C   UNL     1       5.646   6.513  16.638  0.00  0.00    +0.000 C 
ATOM     12  C   UNL     1       4.929   5.241  16.182  0.00  0.00    +0.000 C 
ATOM     13  C   UNL     1       6.090   4.275  15.908  0.00  0.00    +0.000 C 
ATOM     14  C   UNL     1       7.196   4.757  16.822  0.00  0.00    +0.000 C 
ATOM     15  O   UNL     1       8.188   4.119  17.116  0.00  0.00    +0.000 OA
BRANCH  10  16
ATOM     16  C   UNL     1       7.676   6.871  18.110  0.00  0.00    +0.000 C 
BRANCH  16  17
ATOM     17  C   UNL     1       7.839   8.340  17.715  0.00  0.00    +0.000 C 
BRANCH  17  19
ATOM     18  C   UNL     1       8.836  10.589  18.204  0.00  0.00    +0.000 C 
ATOM     19  C   UNL     1       8.770   9.130  18.634  0.00  0.00    +0.000 C 
ENDBRANCH  17  19
ENDBRANCH  16  17
ENDBRANCH  10  16
ENDBRANCH   1  12
BRANCH   9  20
ATOM     20  C   UNL     1       3.592   6.882  18.478  0.00  0.00    +0.000 C 
BRANCH  20  21
ATOM     21  C   UNL     1       2.313   7.662  18.817  0.00  0.00    +0.000 C 
BRANCH  21  22
ATOM     22  C   UNL     1       1.891   8.582  17.661  0.00  0.00    +0.000 C 
BRANCH  22  23
ATOM     23  C   UNL     1       1.558   9.969  18.191  0.00  0.00    +0.000 C 
BRANCH  23  24
ATOM     24  O   UNL     1       0.536   9.925  19.180  0.00  0.00    +0.000 OA
BRANCH  24  25
ATOM     25  C   UNL     1      -0.679  10.356  18.686  0.00  0.00    +0.000 A 
ATOM     26  C   UNL     1      -1.216   9.883  17.480  0.00  0.00    +0.000 A 
ATOM     27  C   UNL     1      -2.422  10.371  16.976  0.00  0.00    +0.000 A 
ATOM     28  C   UNL     1      -2.905   9.930  15.628  0.00  0.00    +0.000 C 
ATOM     29  C   UNL     1      -3.135  11.301  17.734  0.00  0.00    +0.000 A 
ATOM     30  C   UNL     1      -2.622  11.757  18.956  0.00  0.00    +0.000 A 
ATOM     31  C   UNL     1      -1.383  11.305  19.437  0.00  0.00    +0.000 A 
ATOM     32  C   UNL     1      -0.807  11.878  20.702  0.00  0.00    +0.000 C 
ENDBRANCH  24  25
ENDBRANCH  23  24
ENDBRANCH  22  23
ENDBRANCH  21  22
ENDBRANCH  20  21
ENDBRANCH   9  20
TORSDOF 10
ENDMDL
MODEL 3
REMARK VINA RESULT:      -8.7      1.352      2.223
REMARK  Name = 
REMARK  13 active torsions:
REMARK  status: ('A' for Active; 'I' for Inactive)
REMARK    1  A    between atoms: C_1  and  C_2
REMARK    2  A    between atoms: C_2  and  C_3
REMARK    3  A    between atoms: C_3  and  C_4
REMARK    4  A    between atoms: C_4  and  N_5
REMARK    5  A    between atoms: C_7  and  C_8
REMARK    6  A    between atoms: N_16  and  C_17
REMARK    7  A    between atoms: C_17  and  C_18
REMARK    8  A    between atoms: C_18  and  C_19
REMARK    9  A    between atoms: C_19  and  C_20
REMARK   10  A    between atoms: C_20  and  O_21
REMARK   11  A    between atoms: O_21  and  C_22
REMARK   12  A    between atoms: C_24  and  C_25
REMARK   13  A    between atoms: C_28  and  C_29
REMARK                            x       y       z     vdW  Elec       q    Type
REMARK                         _______ _______ _______ _____ _____    ______ ____
ROOT
ATOM      1  C   UNL     1       4.062   4.794  17.924  0.00  0.00    +0.000 A 
ATOM      2  N   UNL     1       4.457   3.740  18.612  0.00  0.00    +0.000 NA
ATOM      3  C   UNL     1       3.509   3.523  19.576  0.00  0.00    +0.000 A 
ATOM      4  C   UNL     1       3.448   2.517  20.551  0.00  0.00    +0.000 A 
ATOM      5  C   UNL     1       2.357   2.479  21.426  0.00  0.00    +0.000 A 
ATOM      6  C   UNL     1       1.335   3.421  21.322  0.00  0.00    +0.000 A 
ATOM      7  C   UNL     1       1.377   4.433  20.351  0.00  0.00    +0.000 A 
ATOM      8  C   UNL     1       2.492   4.470  19.497  0.00  0.00    +0.000 A 
ATOM      9  N   UNL     1       2.887   5.299  18.463  0.00  0.00    +0.000 N 
ENDROOT
BRANCH   1  12
ATOM     10  N   UNL     1       6.923   6.191  17.341  0.00  0.00    +0.000 N 
ATOM     11  C   UNL     1       5.576   6.634  17.078  0.00  0.00    +0.000 C 
ATOM     12  C   UNL     1       4.793   5.367  16.729  0.00  0.00    +0.000 C 
ATOM     13  C   UNL     1       5.883   4.427  16.199  0.00  0.00    +0.000 C 
ATOM     14  C   UNL     1       7.145   4.895  16.893  0.00  0.00    +0.000 C 
ATOM     15  O   UNL     1       8.180   4.262  16.963  0.00  0.00    +0.000 OA
BRANCH  10  16
ATOM     16  C   UNL     1       7.855   6.973  18.132  0.00  0.00    +0.000 C 
BRANCH  16  17
ATOM     17  C   UNL     1       7.898   8.463  17.788  0.00  0.00    +0.000 C 
BRANCH  17  19
ATOM     18  C   UNL     1       9.061  10.662  18.111  0.00  0.00    +0.000 C 
ATOM     19  C   UNL     1       8.798   9.287  18.709  0.00  0.00    +0.000 C 
ENDBRANCH  17  19
ENDBRANCH  16  17
ENDBRANCH  10  16
ENDBRANCH   1  12
BRANCH   9  20
ATOM     20  C   UNL     1       2.099   6.393  17.932  0.00  0.00    +0.000 C 
BRANCH  20  21
ATOM     21  C   UNL     1       2.441   7.789  18.475  0.00  0.00    +0.000 C 
BRANCH  21  22
ATOM     22  C   UNL     1       1.771   8.043  19.835  0.00  0.00    +0.000 C 
BRANCH  22  23
ATOM     23  C   UNL     1       1.240   9.467  19.899  0.00  0.00    +0.000 C 
BRANCH  23  24
ATOM     24  O   UNL     1      -0.106   9.508  20.360  0.00  0.00    +0.000 OA
BRANCH  24  25
ATOM     25  C   UNL     1      -0.921  10.226  19.509  0.00  0.00    +0.000 A 
ATOM     26  C   UNL     1      -1.383   9.711  18.290  0.00  0.00    +0.000 A 
ATOM     27  C   UNL     1      -2.165  10.474  17.423  0.00  0.00    +0.000 A 
ATOM     28  C   UNL     1      -2.541   9.932  16.077  0.00  0.00    +0.000 C 
ATOM     29  C   UNL     1      -2.546  11.756  17.821  0.00  0.00    +0.000 A 
ATOM     30  C   UNL     1      -2.115  12.270  19.052  0.00  0.00    +0.000 A 
ATOM     31  C   UNL     1      -1.285  11.520  19.900  0.00  0.00    +0.000 A 
ATOM     32  C   UNL     1      -0.756  12.126  21.170  0.00  0.00    +0.000 C 
ENDBRANCH  24  25
ENDBRANCH  23  24
ENDBRANCH  22  23
ENDBRANCH  21  22
ENDBRANCH  20  21
ENDBRANCH   9  20
TORSDOF 10
ENDMDL
MODEL 4
REMARK VINA RESULT:      -8.5      1.295      2.052
REMARK  Name = 
REMARK  13 active torsions:
REMARK  status: ('A' for Active; 'I' for Inactive)
REMARK    1  A    between atoms: C_1  and  C_2
REMARK    2  A    between atoms: C_2  and  C_3
REMARK    3  A    between atoms: C_3  and  C_4
REMARK    4  A    between atoms: C_4  and  N_5
REMARK    5  A    between atoms: C_7  and  C_8
REMARK    6  A    between atoms: N_16  and  C_17
REMARK    7  A    between atoms: C_17  and  C_18
REMARK    8  A    between atoms: C_18  and  C_19
REMARK    9  A    between atoms: C_19  and  C_20
REMARK   10  A    between atoms: C_20  and  O_21
REMARK   11  A    between atoms: O_21  and  C_22
REMARK   12  A    between atoms: C_24  and  C_25
REMARK   13  A    between atoms: C_28  and  C_29
REMARK                            x       y       z     vdW  Elec       q    Type
REMARK                         _______ _______ _______ _____ _____    ______ ____
ROOT
ATOM      1  C   UNL     1       4.059   4.967  17.823  0.00  0.00    +0.000 A 
ATOM      2  N   UNL     1       4.452   3.901  18.493  0.00  0.00    +0.000 NA
ATOM      3  C   UNL     1       3.513   3.680  19.465  0.00  0.00    +0.000 A 
ATOM      4  C   UNL     1       3.455   2.663  20.429  0.00  0.00    +0.000 A 
ATOM      5  C   UNL     1       2.374   2.623  21.316  0.00  0.00    +0.000 A 
ATOM      6  C   UNL     1       1.359   3.574  21.235  0.00  0.00    +0.000 A 
ATOM      7  C   UNL     1       1.397   4.597  20.275  0.00  0.00    +0.000 A 
ATOM      8  C   UNL     1       2.503   4.636  19.409  0.00  0.00    +0.000 A 
ATOM      9  N   UNL     1       2.894   5.475  18.381  0.00  0.00    +0.000 N 
ENDROOT
BRANCH   1  12
ATOM     10  N   UNL     1       6.940   6.310  17.215  0.00  0.00    +0.000 N 
ATOM     11  C   UNL     1       5.599   6.790  16.987  0.00  0.00    +0.000 C 
ATOM     12  C   UNL     1       4.780   5.549  16.627  0.00  0.00    +0.000 C 
ATOM     13  C   UNL     1       5.838   4.595  16.056  0.00  0.00    +0.000 C 
ATOM     14  C   UNL     1       7.123   5.019  16.736  0.00  0.00    +0.000 C 
ATOM     15  O   UNL     1       8.144   4.361  16.773  0.00  0.00    +0.000 OA
BRANCH  10  16
ATOM     16  C   UNL     1       7.904   7.054  18.005  0.00  0.00    +0.000 C 
BRANCH  16  17
ATOM     17  C   UNL     1       7.838   8.573  17.837  0.00  0.00    +0.000 C 
BRANCH  17  19
ATOM     18  C   UNL     1       9.286  10.594  18.175  0.00  0.00    +0.000 C 
ATOM     19  C   UNL     1       8.709   9.344  18.828  0.00  0.00    +0.000 C 
ENDBRANCH  17  19
ENDBRANCH  16  17
ENDBRANCH  10  16
ENDBRANCH   1  12
BRANCH   9  20
ATOM     20  C   UNL     1       2.109   6.582  17.872  0.00  0.00    +0.000 C 
BRANCH  20  21
ATOM     21  C   UNL     1       2.472   7.968  18.424  0.00  0.00    +0.000 C 
BRANCH  21  22
ATOM     22  C   UNL     1       1.541   8.378  19.576  0.00  0.00    +0.000 C 
BRANCH  22  23
ATOM     23  C   UNL     1       1.045   9.801  19.367  0.00  0.00    +0.000 C 
BRANCH  23  24
ATOM     24  O   UNL     1       0.072   9.874  18.331  0.00  0.00    +0.000 OA
BRANCH  24  25
ATOM     25  C   UNL     1      -1.000  10.670  18.685  0.00  0.00    +0.000 A 
ATOM     26  C   UNL     1      -0.973  11.524  19.797  0.00  0.00    +0.000 A 
ATOM     27  C   UNL     1      -2.086  12.280  20.164  0.00  0.00    +0.000 A 
ATOM     28  C   UNL     1      -2.060  13.090  21.425  0.00  0.00    +0.000 C 
ATOM     29  C   UNL     1      -3.224  12.229  19.357  0.00  0.00    +0.000 A 
ATOM     30  C   UNL     1      -3.250  11.402  18.226  0.00  0.00    +0.000 A 
ATOM     31  C   UNL     1      -2.148  10.601  17.887  0.00  0.00    +0.000 A 
ATOM     32  C   UNL     1      -2.232   9.650  16.726  0.00  0.00    +0.000 C 
ENDBRANCH  24  25
ENDBRANCH  23  24
ENDBRANCH  22  23
ENDBRANCH  21  22
ENDBRANCH  20  21
ENDBRANCH   9  20
TORSDOF 10
ENDMDL
MODEL 5
REMARK VINA RESULT:      -8.5      1.696      2.475
REMARK  Name = 
REMARK  13 active torsions:
REMARK  status: ('A' for Active; 'I' for Inactive)
REMARK    1  A    between atoms: C_1  and  C_2
REMARK    2  A    between atoms: C_2  and  C_3
REMARK    3  A    between atoms: C_3  and  C_4
REMARK    4  A    between atoms: C_4  and  N_5
REMARK    5  A    between atoms: C_7  and  C_8
REMARK    6  A    between atoms: N_16  and  C_17
REMARK    7  A    between atoms: C_17  and  C_18
REMARK    8  A    between atoms: C_18  and  C_19
REMARK    9  A    between atoms: C_19  and  C_20
REMARK   10  A    between atoms: C_20  and  O_21
REMARK   11  A    between atoms: O_21  and  C_22
REMARK   12  A    between atoms: C_24  and  C_25
REMARK   13  A    between atoms: C_28  and  C_29
REMARK                            x       y       z     vdW  Elec       q    Type
REMARK                         _______ _______ _______ _____ _____    ______ ____
ROOT
ATOM      1  C   UNL     1       4.010   4.982  17.989  0.00  0.00    +0.000 A 
ATOM      2  N   UNL     1       4.450   3.900  18.602  0.00  0.00    +0.000 NA
ATOM      3  C   UNL     1       3.536   3.602  19.577  0.00  0.00    +0.000 A 
ATOM      4  C   UNL     1       3.529   2.539  20.493  0.00  0.00    +0.000 A 
ATOM      5  C   UNL     1       2.465   2.422  21.394  0.00  0.00    +0.000 A 
ATOM      6  C   UNL     1       1.418   3.341  21.375  0.00  0.00    +0.000 A 
ATOM      7  C   UNL     1       1.406   4.409  20.464  0.00  0.00    +0.000 A 
ATOM      8  C   UNL     1       2.494   4.525  19.583  0.00  0.00    +0.000 A 
ATOM      9  N   UNL     1       2.839   5.423  18.590  0.00  0.00    +0.000 N 
ENDROOT
BRANCH   1  12
ATOM     10  N   UNL     1       6.870   6.365  17.373  0.00  0.00    +0.000 N 
ATOM     11  C   UNL     1       5.523   6.857  17.225  0.00  0.00    +0.000 C 
ATOM     12  C   UNL     1       4.690   5.643  16.811  0.00  0.00    +0.000 C 
ATOM     13  C   UNL     1       5.726   4.730  16.141  0.00  0.00    +0.000 C 
ATOM     14  C   UNL     1       7.035   5.108  16.803  0.00  0.00    +0.000 C 
ATOM     15  O   UNL     1       8.055   4.450  16.761  0.00  0.00    +0.000 OA
BRANCH  10  16
ATOM     16  C   UNL     1       7.862   7.055  18.177  0.00  0.00    +0.000 C 
BRANCH  16  17
ATOM     17  C   UNL     1       8.155   8.492  17.744  0.00  0.00    +0.000 C 
BRANCH  17  19
ATOM     18  C   UNL     1       9.180  10.718  18.281  0.00  0.00    +0.000 C 
ATOM     19  C   UNL     1       8.813   9.345  18.828  0.00  0.00    +0.000 C 
ENDBRANCH  17  19
ENDBRANCH  16  17
ENDBRANCH  10  16
ENDBRANCH   1  12
BRANCH   9  20
ATOM     20  C   UNL     1       2.009   6.526  18.147  0.00  0.00    +0.000 C 
BRANCH  20  21
ATOM     21  C   UNL     1       2.300   7.886  18.799  0.00  0.00    +0.000 C 
BRANCH  21  22
ATOM     22  C   UNL     1       2.093   9.042  17.808  0.00  0.00    +0.000 C 
BRANCH  22  23
ATOM     23  C   UNL     1       0.782   9.756  18.104  0.00  0.00    +0.000 C 
BRANCH  23  24
ATOM     24  O   UNL     1       0.836  10.471  19.332  0.00  0.00    +0.000 OA
BRANCH  24  25
ATOM     25  C   UNL     1       0.873  11.837  19.133  0.00  0.00    +0.000 A 
ATOM     26  C   UNL     1       2.000  12.497  18.624  0.00  0.00    +0.000 A 
ATOM     27  C   UNL     1       2.031  13.884  18.479  0.00  0.00    +0.000 A 
ATOM     28  C   UNL     1       3.293  14.565  18.045  0.00  0.00    +0.000 C 
ATOM     29  C   UNL     1       0.881  14.613  18.787  0.00  0.00    +0.000 A 
ATOM     30  C   UNL     1      -0.262  13.960  19.266  0.00  0.00    +0.000 A 
ATOM     31  C   UNL     1      -0.274  12.569  19.462  0.00  0.00    +0.000 A 
ATOM     32  C   UNL     1      -1.477  11.901  20.067  0.00  0.00    +0.000 C 
ENDBRANCH  24  25
ENDBRANCH  23  24
ENDBRANCH  22  23
ENDBRANCH  21  22
ENDBRANCH  20  21
ENDBRANCH   9  20
TORSDOF 10
ENDMDL
MODEL 6
REMARK VINA RESULT:      -8.3      2.387      4.074
REMARK  Name = 
REMARK  13 active torsions:
REMARK  status: ('A' for Active; 'I' for Inactive)
REMARK    1  A    between atoms: C_1  and  C_2
REMARK    2  A    between atoms: C_2  and  C_3
REMARK    3  A    between atoms: C_3  and  C_4
REMARK    4  A    between atoms: C_4  and  N_5
REMARK    5  A    between atoms: C_7  and  C_8
REMARK    6  A    between atoms: N_16  and  C_17
REMARK    7  A    between atoms: C_17  and  C_18
REMARK    8  A    between atoms: C_18  and  C_19
REMARK    9  A    between atoms: C_19  and  C_20
REMARK   10  A    between atoms: C_20  and  O_21
REMARK   11  A    between atoms: O_21  and  C_22
REMARK   12  A    between atoms: C_24  and  C_25
REMARK   13  A    between atoms: C_28  and  C_29
REMARK                            x       y       z     vdW  Elec       q    Type
REMARK                         _______ _______ _______ _____ _____    ______ ____
ROOT
ATOM      1  C   UNL     1       4.646   4.714  18.396  0.00  0.00    +0.000 A 
ATOM      2  N   UNL     1       4.433   3.440  18.127  0.00  0.00    +0.000 NA
ATOM      3  C   UNL     1       3.195   3.136  18.627  0.00  0.00    +0.000 A 
ATOM      4  C   UNL     1       2.494   1.922  18.584  0.00  0.00    +0.000 A 
ATOM      5  C   UNL     1       1.216   1.851  19.148  0.00  0.00    +0.000 A 
ATOM      6  C   UNL     1       0.638   2.977  19.734  0.00  0.00    +0.000 A 
ATOM      7  C   UNL     1       1.322   4.201  19.783  0.00  0.00    +0.000 A 
ATOM      8  C   UNL     1       2.615   4.246  19.233  0.00  0.00    +0.000 A 
ATOM      9  N   UNL     1       3.578   5.232  19.114  0.00  0.00    +0.000 N 
ENDROOT
BRANCH   1  12
ATOM     10  N   UNL     1       6.427   5.095  15.721  0.00  0.00    +0.000 N 
ATOM     11  C   UNL     1       6.789   4.683  17.054  0.00  0.00    +0.000 C 
ATOM     12  C   UNL     1       5.881   5.487  17.987  0.00  0.00    +0.000 C 
ATOM     13  C   UNL     1       5.548   6.731  17.153  0.00  0.00    +0.000 C 
ATOM     14  C   UNL     1       5.663   6.255  15.719  0.00  0.00    +0.000 C 
ATOM     15  O   UNL     1       5.224   6.844  14.751  0.00  0.00    +0.000 OA
BRANCH  10  16
ATOM     16  C   UNL     1       6.704   4.275  14.556  0.00  0.00    +0.000 C 
BRANCH  16  17
ATOM     17  C   UNL     1       5.471   3.880  13.740  0.00  0.00    +0.000 C 
BRANCH  17  19
ATOM     18  C   UNL     1       4.525   3.246  11.505  0.00  0.00    +0.000 C 
ATOM     19  C   UNL     1       5.795   3.368  12.336  0.00  0.00    +0.000 C 
ENDBRANCH  17  19
ENDBRANCH  16  17
ENDBRANCH  10  16
ENDBRANCH   1  12
BRANCH   9  20
ATOM     20  C   UNL     1       3.402   6.614  19.515  0.00  0.00    +0.000 C 
BRANCH  20  21
ATOM     21  C   UNL     1       2.570   7.486  18.562  0.00  0.00    +0.000 C 
BRANCH  21  22
ATOM     22  C   UNL     1       1.630   8.425  19.334  0.00  0.00    +0.000 C 
BRANCH  22  23
ATOM     23  C   UNL     1       1.109   9.517  18.411  0.00  0.00    +0.000 C 
BRANCH  23  24
ATOM     24  O   UNL     1       0.381  10.509  19.126  0.00  0.00    +0.000 OA
BRANCH  24  25
ATOM     25  C   UNL     1      -0.883  10.698  18.604  0.00  0.00    +0.000 A 
ATOM     26  C   UNL     1      -1.322  10.060  17.435  0.00  0.00    +0.000 A 
ATOM     27  C   UNL     1      -2.586  10.307  16.899  0.00  0.00    +0.000 A 
ATOM     28  C   UNL     1      -2.975   9.698  15.586  0.00  0.00    +0.000 C 
ATOM     29  C   UNL     1      -3.450  11.158  17.589  0.00  0.00    +0.000 A 
ATOM     30  C   UNL     1      -3.032  11.777  18.775  0.00  0.00    +0.000 A 
ATOM     31  C   UNL     1      -1.741  11.570  19.286  0.00  0.00    +0.000 A 
ATOM     32  C   UNL     1      -1.281  12.317  20.506  0.00  0.00    +0.000 C 
ENDBRANCH  24  25
ENDBRANCH  23  24
ENDBRANCH  22  23
ENDBRANCH  21  22
ENDBRANCH  20  21
ENDBRANCH   9  20
TORSDOF 10
ENDMDL
MODEL 7
REMARK VINA RESULT:      -8.2      1.183      1.853
REMARK  Name = 
REMARK  13 active torsions:
REMARK  status: ('A' for Active; 'I' for Inactive)
REMARK    1  A    between atoms: C_1  and  C_2
REMARK    2  A    between atoms: C_2  and  C_3
REMARK    3  A    between atoms: C_3  and  C_4
REMARK    4  A    between atoms: C_4  and  N_5
REMARK    5  A    between atoms: C_7  and  C_8
REMARK    6  A    between atoms: N_16  and  C_17
REMARK    7  A    between atoms: C_17  and  C_18
REMARK    8  A    between atoms: C_18  and  C_19
REMARK    9  A    between atoms: C_19  and  C_20
REMARK   10  A    between atoms: C_20  and  O_21
REMARK   11  A    between atoms: O_21  and  C_22
REMARK   12  A    between atoms: C_24  and  C_25
REMARK   13  A    between atoms: C_28  and  C_29
REMARK                            x       y       z     vdW  Elec       q    Type
REMARK                         _______ _______ _______ _____ _____    ______ ____
ROOT
ATOM      1  C   UNL     1       4.134   4.826  17.174  0.00  0.00    +0.000 A 
ATOM      2  N   UNL     1       3.796   3.554  17.269  0.00  0.00    +0.000 NA
ATOM      3  C   UNL     1       2.860   3.470  18.265  0.00  0.00    +0.000 A 
ATOM      4  C   UNL     1       2.171   2.346  18.743  0.00  0.00    +0.000 A 
ATOM      5  C   UNL     1       1.229   2.506  19.766  0.00  0.00    +0.000 A 
ATOM      6  C   UNL     1       0.968   3.769  20.294  0.00  0.00    +0.000 A 
ATOM      7  C   UNL     1       1.645   4.905  19.826  0.00  0.00    +0.000 A 
ATOM      8  C   UNL     1       2.604   4.722  18.816  0.00  0.00    +0.000 A 
ATOM      9  N   UNL     1       3.461   5.568  18.135  0.00  0.00    +0.000 N 
ENDROOT
BRANCH   1  12
ATOM     10  N   UNL     1       7.071   6.184  17.231  0.00  0.00    +0.000 N 
ATOM     11  C   UNL     1       5.820   6.643  16.679  0.00  0.00    +0.000 C 
ATOM     12  C   UNL     1       5.116   5.385  16.168  0.00  0.00    +0.000 C 
ATOM     13  C   UNL     1       6.284   4.428  15.891  0.00  0.00    +0.000 C 
ATOM     14  C   UNL     1       7.369   4.883  16.845  0.00  0.00    +0.000 C 
ATOM     15  O   UNL     1       8.354   4.238  17.142  0.00  0.00    +0.000 OA
BRANCH  10  16
ATOM     16  C   UNL     1       7.816   6.958  18.207  0.00  0.00    +0.000 C 
BRANCH  16  17
ATOM     17  C   UNL     1       8.075   8.413  17.811  0.00  0.00    +0.000 C 
BRANCH  17  19
ATOM     18  C   UNL     1       9.196  10.599  18.320  0.00  0.00    +0.000 C 
ATOM     19  C   UNL     1       8.906   9.194  18.830  0.00  0.00    +0.000 C 
ENDBRANCH  17  19
ENDBRANCH  16  17
ENDBRANCH  10  16
ENDBRANCH   1  12
BRANCH   9  20
ATOM     20  C   UNL     1       3.498   7.008  18.290  0.00  0.00    +0.000 C 
BRANCH  20  21
ATOM     21  C   UNL     1       2.325   7.778  17.665  0.00  0.00    +0.000 C 
BRANCH  21  22
ATOM     22  C   UNL     1       1.552   8.582  18.722  0.00  0.00    +0.000 C 
BRANCH  22  23
ATOM     23  C   UNL     1       1.265   9.984  18.208  0.00  0.00    +0.000 C 
BRANCH  23  24
ATOM     24  O   UNL     1      -0.088  10.362  18.430  0.00  0.00    +0.000 OA
BRANCH  24  25
ATOM     25  C   UNL     1      -0.248  11.027  19.630  0.00  0.00    +0.000 A 
ATOM     26  C   UNL     1      -0.377  10.358  20.855  0.00  0.00    +0.000 A 
ATOM     27  C   UNL     1      -0.588  11.050  22.047  0.00  0.00    +0.000 A 
ATOM     28  C   UNL     1      -0.840  10.296  23.318  0.00  0.00    +0.000 C 
ATOM     29  C   UNL     1      -0.600  12.445  22.016  0.00  0.00    +0.000 A 
ATOM     30  C   UNL     1      -0.440  13.125  20.801  0.00  0.00    +0.000 A 
ATOM     31  C   UNL     1      -0.281  12.426  19.594  0.00  0.00    +0.000 A 
ATOM     32  C   UNL     1      -0.208  13.173  18.292  0.00  0.00    +0.000 C 
ENDBRANCH  24  25
ENDBRANCH  23  24
ENDBRANCH  22  23
ENDBRANCH  21  22
ENDBRANCH  20  21
ENDBRANCH   9  20
TORSDOF 10
ENDMDL
MODEL 8
REMARK VINA RESULT:      -8.2      2.176      2.979
REMARK  Name = 
REMARK  13 active torsions:
REMARK  status: ('A' for Active; 'I' for Inactive)
REMARK    1  A    between atoms: C_1  and  C_2
REMARK    2  A    between atoms: C_2  and  C_3
REMARK    3  A    between atoms: C_3  and  C_4
REMARK    4  A    between atoms: C_4  and  N_5
REMARK    5  A    between atoms: C_7  and  C_8
REMARK    6  A    between atoms: N_16  and  C_17
REMARK    7  A    between atoms: C_17  and  C_18
REMARK    8  A    between atoms: C_18  and  C_19
REMARK    9  A    between atoms: C_19  and  C_20
REMARK   10  A    between atoms: C_20  and  O_21
REMARK   11  A    between atoms: O_21  and  C_22
REMARK   12  A    between atoms: C_24  and  C_25
REMARK   13  A    between atoms: C_28  and  C_29
REMARK                            x       y       z     vdW  Elec       q    Type
REMARK                         _______ _______ _______ _____ _____    ______ ____
ROOT
ATOM      1  C   UNL     1       3.791   5.347  17.285  0.00  0.00    +0.000 A 
ATOM      2  N   UNL     1       3.595   4.078  16.981  0.00  0.00    +0.000 NA
ATOM      3  C   UNL     1       2.699   3.590  17.894  0.00  0.00    +0.000 A 
ATOM      4  C   UNL     1       2.148   2.304  17.997  0.00  0.00    +0.000 A 
ATOM      5  C   UNL     1       1.222   2.037  19.011  0.00  0.00    +0.000 A 
ATOM      6  C   UNL     1       0.839   3.040  19.900  0.00  0.00    +0.000 A 
ATOM      7  C   UNL     1       1.377   4.332  19.811  0.00  0.00    +0.000 A 
ATOM      8  C   UNL     1       2.324   4.575  18.802  0.00  0.00    +0.000 A 
ATOM      9  N   UNL     1       3.067   5.679  18.422  0.00  0.00    +0.000 N 
ENDROOT
BRANCH   1  12
ATOM     10  N   UNL     1       6.914   6.195  17.278  0.00  0.00    +0.000 N 
ATOM     11  C   UNL     1       5.714   6.985  17.401  0.00  0.00    +0.000 C 
ATOM     12  C   UNL     1       4.681   6.293  16.509  0.00  0.00    +0.000 C 
ATOM     13  C   UNL     1       5.552   5.567  15.476  0.00  0.00    +0.000 C 
ATOM     14  C   UNL     1       6.857   5.317  16.203  0.00  0.00    +0.000 C 
ATOM     15  O   UNL     1       7.719   4.539  15.845  0.00  0.00    +0.000 OA
BRANCH  10  16
ATOM     16  C   UNL     1       7.964   6.223  18.280  0.00  0.00    +0.000 C 
BRANCH  16  17
ATOM     17  C   UNL     1       8.269   7.608  18.853  0.00  0.00    +0.000 C 
BRANCH  17  19
ATOM     18  C   UNL     1       8.814  10.012  18.389  0.00  0.00    +0.000 C 
ATOM     19  C   UNL     1       8.217   8.732  17.819  0.00  0.00    +0.000 C 
ENDBRANCH  17  19
ENDBRANCH  16  17
ENDBRANCH  10  16
ENDBRANCH   1  12
BRANCH   9  20
ATOM     20  C   UNL     1       2.953   6.997  19.013  0.00  0.00    +0.000 C 
BRANCH  20  21
ATOM     21  C   UNL     1       2.273   8.064  18.142  0.00  0.00    +0.000 C 
BRANCH  21  22
ATOM     22  C   UNL     1       1.164   8.798  18.912  0.00  0.00    +0.000 C 
BRANCH  22  23
ATOM     23  C   UNL     1       0.590   9.920  18.059  0.00  0.00    +0.000 C 
BRANCH  23  24
ATOM     24  O   UNL     1      -0.302  10.743  18.802  0.00  0.00    +0.000 OA
BRANCH  24  25
ATOM     25  C   UNL     1      -1.537  10.845  18.194  0.00  0.00    +0.000 A 
ATOM     26  C   UNL     1      -1.828  10.236  16.965  0.00  0.00    +0.000 A 
ATOM     27  C   UNL     1      -3.068  10.395  16.346  0.00  0.00    +0.000 A 
ATOM     28  C   UNL     1      -3.302   9.828  14.978  0.00  0.00    +0.000 C 
ATOM     29  C   UNL     1      -4.056  11.123  17.009  0.00  0.00    +0.000 A 
ATOM     30  C   UNL     1      -3.786  11.710  18.252  0.00  0.00    +0.000 A 
ATOM     31  C   UNL     1      -2.521  11.594  18.850  0.00  0.00    +0.000 A 
ATOM     32  C   UNL     1      -2.224  12.310  20.137  0.00  0.00    +0.000 C 
ENDBRANCH  24  25
ENDBRANCH  23  24
ENDBRANCH  22  23
ENDBRANCH  21  22
ENDBRANCH  20  21
ENDBRANCH   9  20
TORSDOF 10
ENDMDL
MODEL 9
REMARK VINA RESULT:      -8.1      1.792      2.450
REMARK  Name = 
REMARK  13 active torsions:
REMARK  status: ('A' for Active; 'I' for Inactive)
REMARK    1  A    between atoms: C_1  and  C_2
REMARK    2  A    between atoms: C_2  and  C_3
REMARK    3  A    between atoms: C_3  and  C_4
REMARK    4  A    between atoms: C_4  and  N_5
REMARK    5  A    between atoms: C_7  and  C_8
REMARK    6  A    between atoms: N_16  and  C_17
REMARK    7  A    between atoms: C_17  and  C_18
REMARK    8  A    between atoms: C_18  and  C_19
REMARK    9  A    between atoms: C_19  and  C_20
REMARK   10  A    between atoms: C_20  and  O_21
REMARK   11  A    between atoms: O_21  and  C_22
REMARK   12  A    between atoms: C_24  and  C_25
REMARK   13  A    between atoms: C_28  and  C_29
REMARK                            x       y       z     vdW  Elec       q    Type
REMARK                         _______ _______ _______ _____ _____    ______ ____
ROOT
ATOM      1  C   UNL     1       3.934   4.607  17.284  0.00  0.00    +0.000 A 
ATOM      2  N   UNL     1       3.505   3.359  17.264  0.00  0.00    +0.000 NA
ATOM      3  C   UNL     1       2.694   3.206  18.356  0.00  0.00    +0.000 A 
ATOM      4  C   UNL     1       1.977   2.076  18.778  0.00  0.00    +0.000 A 
ATOM      5  C   UNL     1       1.185   2.160  19.928  0.00  0.00    +0.000 A 
ATOM      6  C   UNL     1       1.098   3.355  20.640  0.00  0.00    +0.000 A 
ATOM      7  C   UNL     1       1.805   4.496  20.232  0.00  0.00    +0.000 A 
ATOM      8  C   UNL     1       2.614   4.386  19.089  0.00  0.00    +0.000 A 
ATOM      9  N   UNL     1       3.449   5.256  18.411  0.00  0.00    +0.000 N 
ENDROOT
BRANCH   1  12
ATOM     10  N   UNL     1       6.818   6.073  17.193  0.00  0.00    +0.000 N 
ATOM     11  C   UNL     1       5.519   6.499  16.735  0.00  0.00    +0.000 C 
ATOM     12  C   UNL     1       4.829   5.228  16.234  0.00  0.00    +0.000 C 
ATOM     13  C   UNL     1       6.010   4.324  15.857  0.00  0.00    +0.000 C 
ATOM     14  C   UNL     1       7.137   4.794  16.752  0.00  0.00    +0.000 C 
ATOM     15  O   UNL     1       8.162   4.179  16.967  0.00  0.00    +0.000 OA
BRANCH  10  16
ATOM     16  C   UNL     1       7.596   6.849  18.141  0.00  0.00    +0.000 C 
BRANCH  16  17
ATOM     17  C   UNL     1       7.929   8.272  17.688  0.00  0.00    +0.000 C 
BRANCH  17  19
ATOM     18  C   UNL     1       9.027  10.472  18.184  0.00  0.00    +0.000 C 
ATOM     19  C   UNL     1       8.677   9.096  18.735  0.00  0.00    +0.000 C 
ENDBRANCH  17  19
ENDBRANCH  16  17
ENDBRANCH  10  16
ENDBRANCH   1  12
BRANCH   9  20
ATOM     20  C   UNL     1       3.626   6.657  18.737  0.00  0.00    +0.000 C 
BRANCH  20  21
ATOM     21  C   UNL     1       2.356   7.519  18.696  0.00  0.00    +0.000 C 
BRANCH  21  22
ATOM     22  C   UNL     1       1.911   7.936  20.106  0.00  0.00    +0.000 C 
BRANCH  22  23
ATOM     23  C   UNL     1       1.012   9.162  20.031  0.00  0.00    +0.000 C 
BRANCH  23  24
ATOM     24  O   UNL     1       0.818   9.591  18.688  0.00  0.00    +0.000 OA
BRANCH  24  25
ATOM     25  C   UNL     1       0.470  10.925  18.619  0.00  0.00    +0.000 A 
ATOM     26  C   UNL     1       1.390  11.959  18.841  0.00  0.00    +0.000 A 
ATOM     27  C   UNL     1       1.004  13.299  18.816  0.00  0.00    +0.000 A 
ATOM     28  C   UNL     1       1.988  14.371  19.175  0.00  0.00    +0.000 C 
ATOM     29  C   UNL     1      -0.318  13.607  18.492  0.00  0.00    +0.000 A 
ATOM     30  C   UNL     1      -1.239  12.582  18.236  0.00  0.00    +0.000 A 
ATOM     31  C   UNL     1      -0.862  11.232  18.314  0.00  0.00    +0.000 A 
ATOM     32  C   UNL     1      -1.887  10.148  18.132  0.00  0.00    +0.000 C 
ENDBRANCH  24  25
ENDBRANCH  23  24
ENDBRANCH  22  23
ENDBRANCH  21  22
ENDBRANCH  20  21
ENDBRANCH   9  20
TORSDOF 10
ENDMDL
