MODEL 1
REMARK VINA RESULT:      -7.3      0.000      0.000
REMARK  Name = 
REMARK  10 active torsions:
REMARK  status: ('A' for Active; 'I' for Inactive)
REMARK    1  A    between atoms: C_1  and  N_2
REMARK    2  A    between atoms: N_5  and  O_6
REMARK    3  A    between atoms: N_5  and  C_7
REMARK    4  A    between atoms: N_8  and  N_9
REMARK    5  A    between atoms: C_10  and  C_11
REMARK    6  A    between atoms: C_14  and  N_15
REMARK    7  A    between atoms: N_15  and  C_16
REMARK    8  A    between atoms: N_15  and  C_17
REMARK    9  A    between atoms: C_23  and  C_24
REMARK   10  A    between atoms: C_23  and  C_25
REMARK                            x       y       z     vdW  Elec       q    Type
REMARK                         _______ _______ _______ _____ _____    ______ ____
ROOT
ATOM      1  C   UNL     1      -1.976  11.789  19.919  0.00  0.00    +0.000 C 
ATOM      2  N   UNL     1      -0.890  11.005  20.519  0.00  0.00    +0.000 N 
ATOM      3  C   UNL     1      -0.883  11.078  21.926  0.00  0.00    +0.000 C 
ATOM      4  S   UNL     1      -0.272   9.987  23.039  0.00  0.00    +0.000 S 
ATOM      5  S   UNL     1      -1.679  12.550  22.462  0.00  0.00    +0.000 S 
ATOM      6  C   UNL     1      -2.171  13.072  20.777  0.00  0.00    +0.000 C 
ATOM      7  C   UNL     1      -1.296  14.265  20.381  0.00  0.00    +0.000 C 
ATOM      8  C   UNL     1      -3.640  13.502  20.873  0.00  0.00    +0.000 C 
ENDROOT
BRANCH   1  13
ATOM      9  C   UNL     1      -2.963  10.748  15.205  0.00  0.00    +0.000 C 
ATOM     10  N   UNL     1      -2.234  11.345  16.294  0.00  0.00    +0.000 N 
ATOM     11  C   UNL     1      -2.808  11.515  17.541  0.00  0.00    +0.000 C 
ATOM     12  O   UNL     1      -3.965  11.219  17.786  0.00  0.00    +0.000 OA
ATOM     13  N   UNL     1      -1.908  12.039  18.467  0.00  0.00    +0.000 N 
ATOM     14  H   UNL     1      -1.229  11.218  16.332  0.00  0.00    +0.000 HD
BRANCH  13  15
ATOM     15  O   UNL     1      -0.559  12.112  18.005  0.00  0.00    +0.000 OA
ATOM     16  H   UNL     1      -0.175  11.347  18.479  0.00  0.00    +0.000 HD
ENDBRANCH  13  15
ENDBRANCH   1  13
BRANCH   2  17
ATOM     17  N   UNL     1      -0.436   9.850  19.886  0.00  0.00    +0.000 NA
ATOM     18  C   UNL     1       0.862   9.823  19.791  0.00  0.00    +0.000 C 
BRANCH  18  19
ATOM     19  C   UNL     1       1.649   8.672  19.311  0.00  0.00    +0.000 A 
ATOM     20  C   UNL     1       2.221   8.758  18.046  0.00  0.00    +0.000 A 
ATOM     21  C   UNL     1       2.984   7.694  17.546  0.00  0.00    +0.000 A 
ATOM     22  C   UNL     1       3.236   6.528  18.291  0.00  0.00    +0.000 A 
ATOM     23  C   UNL     1       2.673   6.497  19.583  0.00  0.00    +0.000 A 
ATOM     24  C   UNL     1       1.882   7.546  20.090  0.00  0.00    +0.000 A 
BRANCH  22  25
ATOM     25  N   UNL     1       3.939   5.460  17.746  0.00  0.00    +0.000 N 
ATOM     26  C   UNL     1       4.829   5.637  16.597  0.00  0.00    +0.000 C 
ATOM     27  C   UNL     1       4.171   4.226  18.492  0.00  0.00    +0.000 C 
ENDBRANCH  22  25
ENDBRANCH  18  19
ENDBRANCH   2  17
TORSDOF 5
ENDMDL
MODEL 2
REMARK VINA RESULT:      -7.2      0.249      1.205
REMARK  Name = 
REMARK  10 active torsions:
REMARK  status: ('A' for Active; 'I' for Inactive)
REMARK    1  A    between atoms: C_1  and  N_2
REMARK    2  A    between atoms: N_5  and  O_6
REMARK    3  A    between atoms: N_5  and  C_7
REMARK    4  A    between atoms: N_8  and  N_9
REMARK    5  A    between atoms: C_10  and  C_11
REMARK    6  A    between atoms: C_14  and  N_15
REMARK    7  A    between atoms: N_15  and  C_16
REMARK    8  A    between atoms: N_15  and  C_17
REMARK    9  A    between atoms: C_23  and  C_24
REMARK   10  A    between atoms: C_23  and  C_25
REMARK                            x       y       z     vdW  Elec       q    Type
REMARK                         _______ _______ _______ _____ _____    ______ ____
ROOT
ATOM      1  C   UNL     1      -1.895  11.698  19.993  0.00  0.00    +0.000 C 
ATOM      2  N   UNL     1      -0.814  10.900  20.582  0.00  0.00    +0.000 N 
ATOM      3  C   UNL     1      -0.813  10.943  21.989  0.00  0.00    +0.000 C 
ATOM      4  S   UNL     1      -0.209   9.827  23.081  0.00  0.00    +0.000 S 
ATOM      5  S   UNL     1      -1.610  12.403  22.552  0.00  0.00    +0.000 S 
ATOM      6  C   UNL     1      -2.093  12.962  20.877  0.00  0.00    +0.000 C 
ATOM      7  C   UNL     1      -1.214  14.162  20.511  0.00  0.00    +0.000 C 
ATOM      8  C   UNL     1      -3.562  13.392  20.975  0.00  0.00    +0.000 C 
ENDROOT
BRANCH   1  13
ATOM      9  C   UNL     1      -2.919  10.800  15.258  0.00  0.00    +0.000 C 
ATOM     10  N   UNL     1      -2.170  11.347  16.359  0.00  0.00    +0.000 N 
ATOM     11  C   UNL     1      -2.738  11.507  17.610  0.00  0.00    +0.000 C 
ATOM     12  O   UNL     1      -3.904  11.245  17.850  0.00  0.00    +0.000 OA
ATOM     13  N   UNL     1      -1.819  11.979  18.547  0.00  0.00    +0.000 N 
ATOM     14  H   UNL     1      -1.170  11.185  16.393  0.00  0.00    +0.000 HD
BRANCH  13  15
ATOM     15  O   UNL     1      -0.470  12.017  18.085  0.00  0.00    +0.000 OA
ATOM     16  H   UNL     1       0.003  12.052  18.942  0.00  0.00    +0.000 HD
ENDBRANCH  13  15
ENDBRANCH   1  13
BRANCH   2  17
ATOM     17  N   UNL     1      -0.358   9.758  19.925  0.00  0.00    +0.000 NA
ATOM     18  C   UNL     1       0.942   9.726  19.846  0.00  0.00    +0.000 C 
BRANCH  18  19
ATOM     19  C   UNL     1       1.728   8.583  19.348  0.00  0.00    +0.000 A 
ATOM     20  C   UNL     1       1.860   7.473  20.176  0.00  0.00    +0.000 A 
ATOM     21  C   UNL     1       2.591   6.357  19.746  0.00  0.00    +0.000 A 
ATOM     22  C   UNL     1       3.185   6.287  18.473  0.00  0.00    +0.000 A 
ATOM     23  C   UNL     1       2.994   7.415  17.649  0.00  0.00    +0.000 A 
ATOM     24  C   UNL     1       2.285   8.553  18.075  0.00  0.00    +0.000 A 
BRANCH  22  25
ATOM     25  N   UNL     1       3.961   5.197  18.097  0.00  0.00    +0.000 N 
ATOM     26  C   UNL     1       3.929   3.940  18.848  0.00  0.00    +0.000 C 
ATOM     27  C   UNL     1       4.519   5.072  16.753  0.00  0.00    +0.000 C 
ENDBRANCH  22  25
ENDBRANCH  18  19
ENDBRANCH   2  17
TORSDOF 5
ENDMDL
MODEL 3
REMARK VINA RESULT:      -6.0      1.230      1.874
REMARK  Name = 
REMARK  10 active torsions:
REMARK  status: ('A' for Active; 'I' for Inactive)
REMARK    1  A    between atoms: C_1  and  N_2
REMARK    2  A    between atoms: N_5  and  O_6
REMARK    3  A    between atoms: N_5  and  C_7
REMARK    4  A    between atoms: N_8  and  N_9
REMARK    5  A    between atoms: C_10  and  C_11
REMARK    6  A    between atoms: C_14  and  N_15
REMARK    7  A    between atoms: N_15  and  C_16
REMARK    8  A    between atoms: N_15  and  C_17
REMARK    9  A    between atoms: C_23  and  C_24
REMARK   10  A    between atoms: C_23  and  C_25
REMARK                            x       y       z     vdW  Elec       q    Type
REMARK                         _______ _______ _______ _____ _____    ______ ____
ROOT
ATOM      1  C   UNL     1      -2.912  11.917  19.613  0.00  0.00    +0.000 C 
ATOM      2  N   UNL     1      -1.683  12.067  20.401  0.00  0.00    +0.000 N 
ATOM      3  C   UNL     1      -1.932  12.142  21.785  0.00  0.00    +0.000 C 
ATOM      4  S   UNL     1      -0.926  11.752  23.064  0.00  0.00    +0.000 S 
ATOM      5  S   UNL     1      -3.569  12.711  22.077  0.00  0.00    +0.000 S 
ATOM      6  C   UNL     1      -4.028  12.752  20.305  0.00  0.00    +0.000 C 
ATOM      7  C   UNL     1      -4.111  14.219  19.875  0.00  0.00    +0.000 C 
ATOM      8  C   UNL     1      -5.408  12.091  20.204  0.00  0.00    +0.000 C 
ENDROOT
BRANCH   1  13
ATOM      9  C   UNL     1      -2.851  10.419  14.920  0.00  0.00    +0.000 C 
ATOM     10  N   UNL     1      -2.576  11.308  16.019  0.00  0.00    +0.000 N 
ATOM     11  C   UNL     1      -3.290  11.238  17.201  0.00  0.00    +0.000 C 
ATOM     12  O   UNL     1      -4.216  10.464  17.373  0.00  0.00    +0.000 OA
ATOM     13  N   UNL     1      -2.812  12.132  18.157  0.00  0.00    +0.000 N 
ATOM     14  H   UNL     1      -1.627  11.642  16.145  0.00  0.00    +0.000 HD
BRANCH  13  15
ATOM     15  O   UNL     1      -1.595  12.786  17.800  0.00  0.00    +0.000 OA
ATOM     16  H   UNL     1      -0.951  12.086  18.033  0.00  0.00    +0.000 HD
ENDBRANCH  13  15
ENDBRANCH   1  13
BRANCH   2  17
ATOM     17  N   UNL     1      -0.492  11.503  19.944  0.00  0.00    +0.000 NA
ATOM     18  C   UNL     1      -0.464  10.213  20.119  0.00  0.00    +0.000 C 
BRANCH  18  19
ATOM     19  C   UNL     1       0.587   9.316  19.605  0.00  0.00    +0.000 A 
ATOM     20  C   UNL     1       1.089   8.344  20.465  0.00  0.00    +0.000 A 
ATOM     21  C   UNL     1       2.084   7.461  20.023  0.00  0.00    +0.000 A 
ATOM     22  C   UNL     1       2.590   7.486  18.710  0.00  0.00    +0.000 A 
ATOM     23  C   UNL     1       2.025   8.459  17.860  0.00  0.00    +0.000 A 
ATOM     24  C   UNL     1       1.045   9.370  18.295  0.00  0.00    +0.000 A 
BRANCH  22  25
ATOM     25  N   UNL     1       3.624   6.645  18.318  0.00  0.00    +0.000 N 
ATOM     26  C   UNL     1       3.712   5.266  18.801  0.00  0.00    +0.000 C 
ATOM     27  C   UNL     1       4.424   6.909  17.125  0.00  0.00    +0.000 C 
ENDBRANCH  22  25
ENDBRANCH  18  19
ENDBRANCH   2  17
TORSDOF 5
ENDMDL
MODEL 4
REMARK VINA RESULT:      -5.9      2.497      3.833
REMARK  Name = 
REMARK  10 active torsions:
REMARK  status: ('A' for Active; 'I' for Inactive)
REMARK    1  A    between atoms: C_1  and  N_2
REMARK    2  A    between atoms: N_5  and  O_6
REMARK    3  A    between atoms: N_5  and  C_7
REMARK    4  A    between atoms: N_8  and  N_9
REMARK    5  A    between atoms: C_10  and  C_11
REMARK    6  A    between atoms: C_14  and  N_15
REMARK    7  A    between atoms: N_15  and  C_16
REMARK    8  A    between atoms: N_15  and  C_17
REMARK    9  A    between atoms: C_23  and  C_24
REMARK   10  A    between atoms: C_23  and  C_25
REMARK                            x       y       z     vdW  Elec       q    Type
REMARK                         _______ _______ _______ _____ _____    ______ ____
ROOT
ATOM      1  C   UNL     1      -0.296  12.862  20.060  0.00  0.00    +0.000 C 
ATOM      2  N   UNL     1      -0.495  11.499  19.553  0.00  0.00    +0.000 N 
ATOM      3  C   UNL     1      -1.796  11.291  19.054  0.00  0.00    +0.000 C 
ATOM      4  S   UNL     1      -2.326  10.189  17.912  0.00  0.00    +0.000 S 
ATOM      5  S   UNL     1      -2.917  12.425  19.791  0.00  0.00    +0.000 S 
ATOM      6  C   UNL     1      -1.625  13.323  20.726  0.00  0.00    +0.000 C 
ATOM      7  C   UNL     1      -1.777  12.958  22.206  0.00  0.00    +0.000 C 
ATOM      8  C   UNL     1      -1.903  14.817  20.518  0.00  0.00    +0.000 C 
ENDROOT
BRANCH   1  13
ATOM      9  C   UNL     1       4.269  14.565  20.795  0.00  0.00    +0.000 C 
ATOM     10  N   UNL     1       3.117  13.740  21.053  0.00  0.00    +0.000 N 
ATOM     11  C   UNL     1       1.862  14.083  20.582  0.00  0.00    +0.000 C 
ATOM     12  O   UNL     1       1.642  15.114  19.968  0.00  0.00    +0.000 OA
ATOM     13  N   UNL     1       0.907  13.112  20.876  0.00  0.00    +0.000 N 
ATOM     14  H   UNL     1       3.248  12.739  21.143  0.00  0.00    +0.000 HD
BRANCH  13  15
ATOM     15  O   UNL     1       1.438  11.904  21.419  0.00  0.00    +0.000 OA
ATOM     16  H   UNL     1       0.827  11.773  22.173  0.00  0.00    +0.000 HD
ENDBRANCH  13  15
ENDBRANCH   1  13
BRANCH   2  17
ATOM     17  N   UNL     1       0.577  10.802  18.998  0.00  0.00    +0.000 NA
ATOM     18  C   UNL     1       0.759   9.648  19.574  0.00  0.00    +0.000 C 
BRANCH  18  19
ATOM     19  C   UNL     1       1.710   8.619  19.116  0.00  0.00    +0.000 A 
ATOM     20  C   UNL     1       1.933   7.524  19.945  0.00  0.00    +0.000 A 
ATOM     21  C   UNL     1       2.823   6.514  19.553  0.00  0.00    +0.000 A 
ATOM     22  C   UNL     1       3.494   6.535  18.317  0.00  0.00    +0.000 A 
ATOM     23  C   UNL     1       3.210   7.641  17.489  0.00  0.00    +0.000 A 
ATOM     24  C   UNL     1       2.340   8.676  17.879  0.00  0.00    +0.000 A 
BRANCH  22  25
ATOM     25  N   UNL     1       4.422   5.557  17.982  0.00  0.00    +0.000 N 
ATOM     26  C   UNL     1       4.853   5.355  16.598  0.00  0.00    +0.000 C 
ATOM     27  C   UNL     1       5.315   4.966  18.975  0.00  0.00    +0.000 C 
ENDBRANCH  22  25
ENDBRANCH  18  19
ENDBRANCH   2  17
TORSDOF 5
ENDMDL
MODEL 5
REMARK VINA RESULT:      -5.8      4.184      9.060
REMARK  Name = 
REMARK  10 active torsions:
REMARK  status: ('A' for Active; 'I' for Inactive)
REMARK    1  A    between atoms: C_1  and  N_2
REMARK    2  A    between atoms: N_5  and  O_6
REMARK    3  A    between atoms: N_5  and  C_7
REMARK    4  A    between atoms: N_8  and  N_9
REMARK    5  A    between atoms: C_10  and  C_11
REMARK    6  A    between atoms: C_14  and  N_15
REMARK    7  A    between atoms: N_15  and  C_16
REMARK    8  A    between atoms: N_15  and  C_17
REMARK    9  A    between atoms: C_23  and  C_24
REMARK   10  A    between atoms: C_23  and  C_25
REMARK                            x       y       z     vdW  Elec       q    Type
REMARK                         _______ _______ _______ _____ _____    ______ ____
ROOT
ATOM      1  C   UNL     1       5.664   5.811  17.365  0.00  0.00    +0.000 C 
ATOM      2  N   UNL     1       4.235   5.919  17.684  0.00  0.00    +0.000 N 
ATOM      3  C   UNL     1       3.576   4.675  17.643  0.00  0.00    +0.000 C 
ATOM      4  S   UNL     1       2.186   4.189  18.438  0.00  0.00    +0.000 S 
ATOM      5  S   UNL     1       4.446   3.560  16.601  0.00  0.00    +0.000 S 
ATOM      6  C   UNL     1       5.828   4.714  16.273  0.00  0.00    +0.000 C 
ATOM      7  C   UNL     1       5.699   5.204  14.828  0.00  0.00    +0.000 C 
ATOM      8  C   UNL     1       7.117   3.900  16.442  0.00  0.00    +0.000 C 
ENDROOT
BRANCH   1  13
ATOM      9  C   UNL     1       8.616   9.576  18.541  0.00  0.00    +0.000 C 
ATOM     10  N   UNL     1       7.595   8.892  17.791  0.00  0.00    +0.000 N 
ATOM     11  C   UNL     1       7.489   7.513  17.806  0.00  0.00    +0.000 C 
ATOM     12  O   UNL     1       8.267   6.793  18.409  0.00  0.00    +0.000 OA
ATOM     13  N   UNL     1       6.390   7.062  17.077  0.00  0.00    +0.000 N 
ATOM     14  H   UNL     1       6.707   9.358  17.643  0.00  0.00    +0.000 HD
BRANCH  13  15
ATOM     15  O   UNL     1       5.510   8.095  16.634  0.00  0.00    +0.000 OA
ATOM     16  H   UNL     1       4.942   8.187  17.426  0.00  0.00    +0.000 HD
ENDBRANCH  13  15
ENDBRANCH   1  13
BRANCH   2  17
ATOM     17  N   UNL     1       3.793   6.907  18.562  0.00  0.00    +0.000 NA
ATOM     18  C   UNL     1       2.643   7.401  18.203  0.00  0.00    +0.000 C 
BRANCH  18  19
ATOM     19  C   UNL     1       1.847   8.348  19.003  0.00  0.00    +0.000 A 
ATOM     20  C   UNL     1       1.635   8.049  20.345  0.00  0.00    +0.000 A 
ATOM     21  C   UNL     1       0.890   8.921  21.152  0.00  0.00    +0.000 A 
ATOM     22  C   UNL     1       0.361  10.131  20.669  0.00  0.00    +0.000 A 
ATOM     23  C   UNL     1       0.632  10.417  19.314  0.00  0.00    +0.000 A 
ATOM     24  C   UNL     1       1.355   9.540  18.485  0.00  0.00    +0.000 A 
BRANCH  22  25
ATOM     25  N   UNL     1      -0.431  10.945  21.470  0.00  0.00    +0.000 N 
ATOM     26  C   UNL     1      -1.350  11.926  20.892  0.00  0.00    +0.000 C 
ATOM     27  C   UNL     1      -0.715  10.614  22.864  0.00  0.00    +0.000 C 
ENDBRANCH  22  25
ENDBRANCH  18  19
ENDBRANCH   2  17
TORSDOF 5
ENDMDL
MODEL 6
REMARK VINA RESULT:      -5.8      4.219      8.879
REMARK  Name = 
REMARK  10 active torsions:
REMARK  status: ('A' for Active; 'I' for Inactive)
REMARK    1  A    between atoms: C_1  and  N_2
REMARK    2  A    between atoms: N_5  and  O_6
REMARK    3  A    between atoms: N_5  and  C_7
REMARK    4  A    between atoms: N_8  and  N_9
REMARK    5  A    between atoms: C_10  and  C_11
REMARK    6  A    between atoms: C_14  and  N_15
REMARK    7  A    between atoms: N_15  and  C_16
REMARK    8  A    between atoms: N_15  and  C_17
REMARK    9  A    between atoms: C_23  and  C_24
REMARK   10  A    between atoms: C_23  and  C_25
REMARK                            x       y       z     vdW  Elec       q    Type
REMARK                         _______ _______ _______ _____ _____    ______ ____
ROOT
ATOM      1  C   UNL     1       4.337   4.202  19.256  0.00  0.00    +0.000 C 
ATOM      2  N   UNL     1       3.082   4.961  19.314  0.00  0.00    +0.000 N 
ATOM      3  C   UNL     1       2.022   4.215  19.866  0.00  0.00    +0.000 C 
ATOM      4  S   UNL     1       0.642   4.753  20.644  0.00  0.00    +0.000 S 
ATOM      5  S   UNL     1       2.325   2.495  19.671  0.00  0.00    +0.000 S 
ATOM      6  C   UNL     1       3.986   2.722  18.934  0.00  0.00    +0.000 C 
ATOM      7  C   UNL     1       3.888   2.381  17.443  0.00  0.00    +0.000 C 
ATOM      8  C   UNL     1       4.911   1.726  19.644  0.00  0.00    +0.000 C 
ENDROOT
BRANCH   1  13
ATOM      9  C   UNL     1       8.156   7.201  18.419  0.00  0.00    +0.000 C 
ATOM     10  N   UNL     1       7.052   6.349  18.062  0.00  0.00    +0.000 N 
ATOM     11  C   UNL     1       6.538   5.420  18.949  0.00  0.00    +0.000 C 
ATOM     12  O   UNL     1       7.007   5.231  20.059  0.00  0.00    +0.000 OA
ATOM     13  N   UNL     1       5.426   4.758  18.432  0.00  0.00    +0.000 N 
ATOM     14  H   UNL     1       6.361   6.700  17.408  0.00  0.00    +0.000 HD
BRANCH  13  15
ATOM     15  O   UNL     1       4.939   5.292  17.201  0.00  0.00    +0.000 OA
ATOM     16  H   UNL     1       5.174   6.235  17.319  0.00  0.00    +0.000 HD
ENDBRANCH  13  15
ENDBRANCH   1  13
BRANCH   2  17
ATOM     17  N   UNL     1       3.114   6.344  19.486  0.00  0.00    +0.000 NA
ATOM     18  C   UNL     1       2.192   6.944  18.790  0.00  0.00    +0.000 C 
BRANCH  18  19
ATOM     19  C   UNL     1       1.873   8.381  18.876  0.00  0.00    +0.000 A 
ATOM     20  C   UNL     1       2.270   9.199  17.823  0.00  0.00    +0.000 A 
ATOM     21  C   UNL     1       1.985  10.571  17.852  0.00  0.00    +0.000 A 
ATOM     22  C   UNL     1       1.268  11.173  18.902  0.00  0.00    +0.000 A 
ATOM     23  C   UNL     1       0.848  10.302  19.929  0.00  0.00    +0.000 A 
ATOM     24  C   UNL     1       1.149   8.928  19.928  0.00  0.00    +0.000 A 
BRANCH  22  25
ATOM     25  N   UNL     1       1.057  12.546  18.940  0.00  0.00    +0.000 N 
ATOM     26  C   UNL     1      -0.214  13.136  18.516  0.00  0.00    +0.000 C 
ATOM     27  C   UNL     1       1.880  13.432  19.759  0.00  0.00    +0.000 C 
ENDBRANCH  22  25
ENDBRANCH  18  19
ENDBRANCH   2  17
TORSDOF 5
ENDMDL
MODEL 7
REMARK VINA RESULT:      -5.8      4.127      8.908
REMARK  Name = 
REMARK  10 active torsions:
REMARK  status: ('A' for Active; 'I' for Inactive)
REMARK    1  A    between atoms: C_1  and  N_2
REMARK    2  A    between atoms: N_5  and  O_6
REMARK    3  A    between atoms: N_5  and  C_7
REMARK    4  A    between atoms: N_8  and  N_9
REMARK    5  A    between atoms: C_10  and  C_11
REMARK    6  A    between atoms: C_14  and  N_15
REMARK    7  A    between atoms: N_15  and  C_16
REMARK    8  A    between atoms: N_15  and  C_17
REMARK    9  A    between atoms: C_23  and  C_24
REMARK   10  A    between atoms: C_23  and  C_25
REMARK                            x       y       z     vdW  Elec       q    Type
REMARK                         _______ _______ _______ _____ _____    ______ ____
ROOT
ATOM      1  C   UNL     1       4.338   4.245  19.270  0.00  0.00    +0.000 C 
ATOM      2  N   UNL     1       3.076   4.993  19.311  0.00  0.00    +0.000 N 
ATOM      3  C   UNL     1       2.022   4.249  19.876  0.00  0.00    +0.000 C 
ATOM      4  S   UNL     1       0.636   4.791  20.641  0.00  0.00    +0.000 S 
ATOM      5  S   UNL     1       2.341   2.529  19.716  0.00  0.00    +0.000 S 
ATOM      6  C   UNL     1       4.000   2.755  18.977  0.00  0.00    +0.000 C 
ATOM      7  C   UNL     1       3.908   2.383  17.494  0.00  0.00    +0.000 C 
ATOM      8  C   UNL     1       4.933   1.782  19.709  0.00  0.00    +0.000 C 
ENDROOT
BRANCH   1  13
ATOM      9  C   UNL     1       8.170   7.217  18.399  0.00  0.00    +0.000 C 
ATOM     10  N   UNL     1       7.056   6.373  18.052  0.00  0.00    +0.000 N 
ATOM     11  C   UNL     1       6.544   5.448  18.943  0.00  0.00    +0.000 C 
ATOM     12  O   UNL     1       7.022   5.254  20.048  0.00  0.00    +0.000 OA
ATOM     13  N   UNL     1       5.423   4.793  18.435  0.00  0.00    +0.000 N 
ATOM     14  H   UNL     1       6.362   6.729  17.404  0.00  0.00    +0.000 HD
BRANCH  13  15
ATOM     15  O   UNL     1       4.929   5.331  17.210  0.00  0.00    +0.000 OA
ATOM     16  H   UNL     1       5.642   5.969  17.003  0.00  0.00    +0.000 HD
ENDBRANCH  13  15
ENDBRANCH   1  13
BRANCH   2  17
ATOM     17  N   UNL     1       3.096   6.380  19.454  0.00  0.00    +0.000 NA
ATOM     18  C   UNL     1       2.207   6.962  18.701  0.00  0.00    +0.000 C 
BRANCH  18  19
ATOM     19  C   UNL     1       1.880   8.398  18.740  0.00  0.00    +0.000 A 
ATOM     20  C   UNL     1       1.163   8.873  19.833  0.00  0.00    +0.000 A 
ATOM     21  C   UNL     1       0.833  10.233  19.921  0.00  0.00    +0.000 A 
ATOM     22  C   UNL     1       1.230  11.172  18.953  0.00  0.00    +0.000 A 
ATOM     23  C   UNL     1       1.991  10.657  17.882  0.00  0.00    +0.000 A 
ATOM     24  C   UNL     1       2.307   9.291  17.765  0.00  0.00    +0.000 A 
BRANCH  22  25
ATOM     25  N   UNL     1       0.833  12.501  19.029  0.00  0.00    +0.000 N 
ATOM     26  C   UNL     1       1.686  13.584  18.537  0.00  0.00    +0.000 C 
ATOM     27  C   UNL     1      -0.567  12.880  19.203  0.00  0.00    +0.000 C 
ENDBRANCH  22  25
ENDBRANCH  18  19
ENDBRANCH   2  17
TORSDOF 5
ENDMDL
MODEL 8
REMARK VINA RESULT:      -5.8      4.156      8.999
REMARK  Name = 
REMARK  10 active torsions:
REMARK  status: ('A' for Active; 'I' for Inactive)
REMARK    1  A    between atoms: C_1  and  N_2
REMARK    2  A    between atoms: N_5  and  O_6
REMARK    3  A    between atoms: N_5  and  C_7
REMARK    4  A    between atoms: N_8  and  N_9
REMARK    5  A    between atoms: C_10  and  C_11
REMARK    6  A    between atoms: C_14  and  N_15
REMARK    7  A    between atoms: N_15  and  C_16
REMARK    8  A    between atoms: N_15  and  C_17
REMARK    9  A    between atoms: C_23  and  C_24
REMARK   10  A    between atoms: C_23  and  C_25
REMARK                            x       y       z     vdW  Elec       q    Type
REMARK                         _______ _______ _______ _____ _____    ______ ____
ROOT
ATOM      1  C   UNL     1       5.439   5.640  17.286  0.00  0.00    +0.000 C 
ATOM      2  N   UNL     1       4.031   5.844  17.645  0.00  0.00    +0.000 N 
ATOM      3  C   UNL     1       3.305   4.637  17.696  0.00  0.00    +0.000 C 
ATOM      4  S   UNL     1       1.921   4.272  18.563  0.00  0.00    +0.000 S 
ATOM      5  S   UNL     1       4.078   3.421  16.692  0.00  0.00    +0.000 S 
ATOM      6  C   UNL     1       5.507   4.478  16.254  0.00  0.00    +0.000 C 
ATOM      7  C   UNL     1       5.352   4.893  14.788  0.00  0.00    +0.000 C 
ATOM      8  C   UNL     1       6.756   3.605  16.427  0.00  0.00    +0.000 C 
ENDROOT
BRANCH   1  13
ATOM      9  C   UNL     1       8.444   9.435  18.206  0.00  0.00    +0.000 C 
ATOM     10  N   UNL     1       7.444   8.698  17.479  0.00  0.00    +0.000 N 
ATOM     11  C   UNL     1       7.292   7.332  17.640  0.00  0.00    +0.000 C 
ATOM     12  O   UNL     1       8.014   6.664  18.361  0.00  0.00    +0.000 OA
ATOM     13  N   UNL     1       6.219   6.832  16.904  0.00  0.00    +0.000 N 
ATOM     14  H   UNL     1       6.580   9.168  17.231  0.00  0.00    +0.000 HD
BRANCH  13  15
ATOM     15  O   UNL     1       5.398   7.832  16.301  0.00  0.00    +0.000 OA
ATOM     16  H   UNL     1       6.077   8.335  15.806  0.00  0.00    +0.000 HD
ENDBRANCH  13  15
ENDBRANCH   1  13
BRANCH   2  17
ATOM     17  N   UNL     1       3.673   6.901  18.480  0.00  0.00    +0.000 NA
ATOM     18  C   UNL     1       2.605   7.516  18.059  0.00  0.00    +0.000 C 
BRANCH  18  19
ATOM     19  C   UNL     1       1.893   8.572  18.801  0.00  0.00    +0.000 A 
ATOM     20  C   UNL     1       1.560   9.736  18.116  0.00  0.00    +0.000 A 
ATOM     21  C   UNL     1       0.876  10.768  18.774  0.00  0.00    +0.000 A 
ATOM     22  C   UNL     1       0.469  10.670  20.116  0.00  0.00    +0.000 A 
ATOM     23  C   UNL     1       0.791   9.459  20.763  0.00  0.00    +0.000 A 
ATOM     24  C   UNL     1       1.499   8.424  20.125  0.00  0.00    +0.000 A 
BRANCH  22  25
ATOM     25  N   UNL     1      -0.147  11.734  20.764  0.00  0.00    +0.000 N 
ATOM     26  C   UNL     1      -0.570  11.636  22.162  0.00  0.00    +0.000 C 
ATOM     27  C   UNL     1      -0.044  13.104  20.270  0.00  0.00    +0.000 C 
ENDBRANCH  22  25
ENDBRANCH  18  19
ENDBRANCH   2  17
TORSDOF 5
ENDMDL
MODEL 9
REMARK VINA RESULT:      -5.7      2.562      3.808
REMARK  Name = 
REMARK  10 active torsions:
REMARK  status: ('A' for Active; 'I' for Inactive)
REMARK    1  A    between atoms: C_1  and  N_2
REMARK    2  A    between atoms: N_5  and  O_6
REMARK    3  A    between atoms: N_5  and  C_7
REMARK    4  A    between atoms: N_8  and  N_9
REMARK    5  A    between atoms: C_10  and  C_11
REMARK    6  A    between atoms: C_14  and  N_15
REMARK    7  A    between atoms: N_15  and  C_16
REMARK    8  A    between atoms: N_15  and  C_17
REMARK    9  A    between atoms: C_23  and  C_24
REMARK   10  A    between atoms: C_23  and  C_25
REMARK                            x       y       z     vdW  Elec       q    Type
REMARK                         _______ _______ _______ _____ _____    ______ ____
ROOT
ATOM      1  C   UNL     1      -0.101  12.984  20.005  0.00  0.00    +0.000 C 
ATOM      2  N   UNL     1      -0.327  11.598  19.576  0.00  0.00    +0.000 N 
ATOM      3  C   UNL     1      -1.637  11.384  19.105  0.00  0.00    +0.000 C 
ATOM      4  S   UNL     1      -2.199  10.230  18.031  0.00  0.00    +0.000 S 
ATOM      5  S   UNL     1      -2.731  12.576  19.790  0.00  0.00    +0.000 S 
ATOM      6  C   UNL     1      -1.413  13.502  20.659  0.00  0.00    +0.000 C 
ATOM      7  C   UNL     1      -1.553  13.222  22.158  0.00  0.00    +0.000 C 
ATOM      8  C   UNL     1      -1.671  14.987  20.372  0.00  0.00    +0.000 C 
ENDROOT
BRANCH   1  13
ATOM      9  C   UNL     1       4.491  14.668  20.599  0.00  0.00    +0.000 C 
ATOM     10  N   UNL     1       3.334  13.870  20.910  0.00  0.00    +0.000 N 
ATOM     11  C   UNL     1       2.077  14.204  20.440  0.00  0.00    +0.000 C 
ATOM     12  O   UNL     1       1.859  15.207  19.781  0.00  0.00    +0.000 OA
ATOM     13  N   UNL     1       1.116  13.258  20.792  0.00  0.00    +0.000 N 
ATOM     14  H   UNL     1       3.457  12.872  21.046  0.00  0.00    +0.000 HD
BRANCH  13  15
ATOM     15  O   UNL     1       1.642  12.071  21.385  0.00  0.00    +0.000 OA
ATOM     16  H   UNL     1       2.593  12.302  21.412  0.00  0.00    +0.000 HD
ENDBRANCH  13  15
ENDBRANCH   1  13
BRANCH   2  17
ATOM     17  N   UNL     1       0.727  10.854  19.049  0.00  0.00    +0.000 NA
ATOM     18  C   UNL     1       0.787   9.659  19.565  0.00  0.00    +0.000 C 
BRANCH  18  19
ATOM     19  C   UNL     1       1.691   8.589  19.107  0.00  0.00    +0.000 A 
ATOM     20  C   UNL     1       2.290   8.732  17.860  0.00  0.00    +0.000 A 
ATOM     21  C   UNL     1       3.164   7.745  17.381  0.00  0.00    +0.000 A 
ATOM     22  C   UNL     1       3.501   6.605  18.133  0.00  0.00    +0.000 A 
ATOM     23  C   UNL     1       2.905   6.518  19.408  0.00  0.00    +0.000 A 
ATOM     24  C   UNL     1       2.006   7.486  19.892  0.00  0.00    +0.000 A 
BRANCH  22  25
ATOM     25  N   UNL     1       4.316   5.609  17.608  0.00  0.00    +0.000 N 
ATOM     26  C   UNL     1       3.803   4.266  17.337  0.00  0.00    +0.000 C 
ATOM     27  C   UNL     1       5.568   5.917  16.921  0.00  0.00    +0.000 C 
ENDBRANCH  22  25
ENDBRANCH  18  19
ENDBRANCH   2  17
TORSDOF 5
ENDMDL
