MODEL 1
REMARK VINA RESULT:      -7.3      0.000      0.000
REMARK  Name = 
REMARK  8 active torsions:
REMARK  status: ('A' for Active; 'I' for Inactive)
REMARK    1  A    between atoms: C_1  and  O_2
REMARK    2  A    between atoms: O_2  and  C_3
REMARK    3  A    between atoms: C_8  and  N_9
REMARK    4  A    between atoms: C_10  and  C_11
REMARK    5  A    between atoms: C_16  and  C_17
REMARK    6  A    between atoms: C_16  and  C_18
REMARK    7  A    between atoms: C_21  and  C_22
REMARK    8  A    between atoms: C_27  and  C_28
REMARK                            x       y       z     vdW  Elec       q    Type
REMARK                         _______ _______ _______ _____ _____    ______ ____
ROOT
ATOM      1  C   UNL     1       2.053   7.770  19.440  0.00  0.00    +0.000 A 
ATOM      2  C   UNL     1       1.396   8.939  19.077  0.00  0.00    +0.000 A 
ATOM      3  C   UNL     1       0.614   9.690  20.009  0.00  0.00    +0.000 A 
ATOM      4  C   UNL     1       0.426   9.180  21.287  0.00  0.00    +0.000 A 
ATOM      5  C   UNL     1       0.904   7.888  21.566  0.00  0.00    +0.000 A 
ATOM      6  C   UNL     1       1.732   7.181  20.665  0.00  0.00    +0.000 A 
ATOM      7  C   UNL     1      -0.238  10.028  22.342  0.00  0.00    +0.000 C 
ATOM      8  C   UNL     1      -0.636  11.508  21.966  0.00  0.00    +0.000 C 
ATOM      9  C   UNL     1       0.182  12.255  20.745  0.00  0.00    +0.000 C 
ATOM     10  C   UNL     1      -0.362  13.585  19.677  0.00  0.00    +0.000 C 
ATOM     11  C   UNL     1      -0.197  15.150  19.632  0.00  0.00    +0.000 C 
ATOM     12  C   UNL     1      -0.323  13.371  18.067  0.00  0.00    +0.000 C 
ATOM     13  C   UNL     1      -1.728  13.498  20.192  0.00  0.00    +0.000 A 
ATOM     14  N   UNL     1      -1.934  14.383  21.195  0.00  0.00    +0.000 NA
ATOM     15  C   UNL     1      -3.091  14.447  21.801  0.00  0.00    +0.000 A 
ATOM     16  C   UNL     1      -3.194  15.637  22.688  0.00  0.00    +0.000 C 
ATOM     17  N   UNL     1      -4.008  13.488  21.517  0.00  0.00    +0.000 NA
ATOM     18  C   UNL     1      -3.655  12.460  20.598  0.00  0.00    +0.000 A 
ATOM     19  C   UNL     1      -2.459  12.380  19.906  0.00  0.00    +0.000 A 
ATOM     20  C   UNL     1      -1.563  11.194  19.267  0.00  0.00    +0.000 C 
ATOM     21  C   UNL     1       0.180  11.131  19.692  0.00  0.00    +0.000 C 
ATOM     22  C   UNL     1       1.539  11.653  18.973  0.00  0.00    +0.000 C 
ENDROOT
BRANCH   6  23
ATOM     23  N   UNL     1       2.264   5.894  20.933  0.00  0.00    +0.000 N 
ATOM     24  C   UNL     1       1.617   4.687  20.752  0.00  0.00    +0.000 C 
ATOM     25  C   UNL     1       2.458   3.485  21.112  0.00  0.00    +0.000 C 
ATOM     26  O   UNL     1       0.480   4.520  20.310  0.00  0.00    +0.000 OA
ATOM     27  H   UNL     1       3.263   5.876  21.076  0.00  0.00    +0.000 HD
ENDBRANCH   6  23
BRANCH   1  29
ATOM     28  C   UNL     1       3.346   7.814  17.449  0.00  0.00    +0.000 C 
ATOM     29  O   UNL     1       3.014   7.156  18.673  0.00  0.00    +0.000 OA
ENDBRANCH   1  29
TORSDOF 2
ENDMDL
MODEL 2
REMARK VINA RESULT:      -7.3      1.949      3.832
REMARK  Name = 
REMARK  8 active torsions:
REMARK  status: ('A' for Active; 'I' for Inactive)
REMARK    1  A    between atoms: C_1  and  O_2
REMARK    2  A    between atoms: O_2  and  C_3
REMARK    3  A    between atoms: C_8  and  N_9
REMARK    4  A    between atoms: C_10  and  C_11
REMARK    5  A    between atoms: C_16  and  C_17
REMARK    6  A    between atoms: C_16  and  C_18
REMARK    7  A    between atoms: C_21  and  C_22
REMARK    8  A    between atoms: C_27  and  C_28
REMARK                            x       y       z     vdW  Elec       q    Type
REMARK                         _______ _______ _______ _____ _____    ______ ____
ROOT
ATOM      1  C   UNL     1       2.052   5.762  20.258  0.00  0.00    +0.000 A 
ATOM      2  C   UNL     1       1.592   6.943  20.825  0.00  0.00    +0.000 A 
ATOM      3  C   UNL     1       1.532   8.165  20.088  0.00  0.00    +0.000 A 
ATOM      4  C   UNL     1       2.044   8.193  18.797  0.00  0.00    +0.000 A 
ATOM      5  C   UNL     1       2.714   7.052  18.322  0.00  0.00    +0.000 A 
ATOM      6  C   UNL     1       2.710   5.828  19.027  0.00  0.00    +0.000 A 
ATOM      7  C   UNL     1       1.834   9.411  17.933  0.00  0.00    +0.000 C 
ATOM      8  C   UNL     1       0.969  10.596  18.514  0.00  0.00    +0.000 C 
ATOM      9  C   UNL     1      -0.133  10.259  19.694  0.00  0.00    +0.000 C 
ATOM     10  C   UNL     1      -0.790  11.340  20.959  0.00  0.00    +0.000 C 
ATOM     11  C   UNL     1      -2.086  12.214  21.152  0.00  0.00    +0.000 C 
ATOM     12  C   UNL     1      -0.656  10.904  22.519  0.00  0.00    +0.000 C 
ATOM     13  C   UNL     1       0.165  12.393  20.618  0.00  0.00    +0.000 A 
ATOM     14  N   UNL     1      -0.370  13.283  19.751  0.00  0.00    +0.000 NA
ATOM     15  C   UNL     1       0.334  14.291  19.308  0.00  0.00    +0.000 A 
ATOM     16  C   UNL     1      -0.501  15.280  18.575  0.00  0.00    +0.000 C 
ATOM     17  N   UNL     1       1.659  14.315  19.602  0.00  0.00    +0.000 NA
ATOM     18  C   UNL     1       2.209  13.237  20.352  0.00  0.00    +0.000 A 
ATOM     19  C   UNL     1       1.490  12.175  20.872  0.00  0.00    +0.000 A 
ATOM     20  C   UNL     1       1.806  10.636  21.260  0.00  0.00    +0.000 C 
ATOM     21  C   UNL     1       0.720   9.362  20.611  0.00  0.00    +0.000 C 
ATOM     22  C   UNL     1      -0.562   8.560  21.202  0.00  0.00    +0.000 C 
ENDROOT
BRANCH   6  23
ATOM     23  N   UNL     1       3.342   4.649  18.557  0.00  0.00    +0.000 N 
ATOM     24  C   UNL     1       2.822   3.749  17.647  0.00  0.00    +0.000 C 
ATOM     25  C   UNL     1       3.748   2.598  17.332  0.00  0.00    +0.000 C 
ATOM     26  O   UNL     1       1.734   3.826  17.075  0.00  0.00    +0.000 OA
ATOM     27  H   UNL     1       4.328   4.591  18.765  0.00  0.00    +0.000 HD
ENDBRANCH   6  23
BRANCH   1  29
ATOM     28  C   UNL     1       0.708   3.814  20.450  0.00  0.00    +0.000 C 
ATOM     29  O   UNL     1       1.892   4.520  20.825  0.00  0.00    +0.000 OA
ENDBRANCH   1  29
TORSDOF 2
ENDMDL
MODEL 3
REMARK VINA RESULT:      -7.0      1.801      3.804
REMARK  Name = 
REMARK  8 active torsions:
REMARK  status: ('A' for Active; 'I' for Inactive)
REMARK    1  A    between atoms: C_1  and  O_2
REMARK    2  A    between atoms: O_2  and  C_3
REMARK    3  A    between atoms: C_8  and  N_9
REMARK    4  A    between atoms: C_10  and  C_11
REMARK    5  A    between atoms: C_16  and  C_17
REMARK    6  A    between atoms: C_16  and  C_18
REMARK    7  A    between atoms: C_21  and  C_22
REMARK    8  A    between atoms: C_27  and  C_28
REMARK                            x       y       z     vdW  Elec       q    Type
REMARK                         _______ _______ _______ _____ _____    ______ ____
ROOT
ATOM      1  C   UNL     1       2.223   6.189  19.722  0.00  0.00    +0.000 A 
ATOM      2  C   UNL     1       1.744   7.232  20.504  0.00  0.00    +0.000 A 
ATOM      3  C   UNL     1       1.451   8.519  19.956  0.00  0.00    +0.000 A 
ATOM      4  C   UNL     1       1.751   8.761  18.621  0.00  0.00    +0.000 A 
ATOM      5  C   UNL     1       2.446   7.771  17.905  0.00  0.00    +0.000 A 
ATOM      6  C   UNL     1       2.672   6.479  18.431  0.00  0.00    +0.000 A 
ATOM      7  C   UNL     1       1.292  10.040  17.970  0.00  0.00    +0.000 C 
ATOM      8  C   UNL     1       0.416  11.038  18.823  0.00  0.00    +0.000 C 
ATOM      9  C   UNL     1      -0.451  10.436  20.091  0.00  0.00    +0.000 C 
ATOM     10  C   UNL     1      -1.005  11.273  21.572  0.00  0.00    +0.000 C 
ATOM     11  C   UNL     1      -2.335  11.960  22.063  0.00  0.00    +0.000 C 
ATOM     12  C   UNL     1      -0.588  10.672  23.022  0.00  0.00    +0.000 C 
ATOM     13  C   UNL     1      -0.222  12.463  21.245  0.00  0.00    +0.000 A 
ATOM     14  N   UNL     1      -0.970  13.382  20.592  0.00  0.00    +0.000 NA
ATOM     15  C   UNL     1      -0.444  14.512  20.195  0.00  0.00    +0.000 A 
ATOM     16  C   UNL     1      -1.476  15.478  19.729  0.00  0.00    +0.000 C 
ATOM     17  N   UNL     1       0.901  14.655  20.299  0.00  0.00    +0.000 NA
ATOM     18  C   UNL     1       1.663  13.566  20.810  0.00  0.00    +0.000 A 
ATOM     19  C   UNL     1       1.141  12.373  21.277  0.00  0.00    +0.000 A 
ATOM     20  C   UNL     1       1.662  10.846  21.403  0.00  0.00    +0.000 C 
ATOM     21  C   UNL     1       0.618   9.541  20.747  0.00  0.00    +0.000 C 
ATOM     22  C   UNL     1      -0.472   8.530  21.399  0.00  0.00    +0.000 C 
ENDROOT
BRANCH   6  23
ATOM     23  N   UNL     1       3.334   5.447  17.720  0.00  0.00    +0.000 N 
ATOM     24  C   UNL     1       4.696   5.335  17.519  0.00  0.00    +0.000 C 
ATOM     25  C   UNL     1       5.097   4.108  16.733  0.00  0.00    +0.000 C 
ATOM     26  O   UNL     1       5.568   6.097  17.939  0.00  0.00    +0.000 OA
ATOM     27  H   UNL     1       2.762   4.639  17.526  0.00  0.00    +0.000 HD
ENDBRANCH   6  23
BRANCH   1  29
ATOM     28  C   UNL     1       1.021   4.285  20.474  0.00  0.00    +0.000 C 
ATOM     29  O   UNL     1       2.275   4.878  20.132  0.00  0.00    +0.000 OA
ENDBRANCH   1  29
TORSDOF 2
ENDMDL
MODEL 4
REMARK VINA RESULT:      -6.5      1.702      1.812
REMARK  Name = 
REMARK  8 active torsions:
REMARK  status: ('A' for Active; 'I' for Inactive)
REMARK    1  A    between atoms: C_1  and  O_2
REMARK    2  A    between atoms: O_2  and  C_3
REMARK    3  A    between atoms: C_8  and  N_9
REMARK    4  A    between atoms: C_10  and  C_11
REMARK    5  A    between atoms: C_16  and  C_17
REMARK    6  A    between atoms: C_16  and  C_18
REMARK    7  A    between atoms: C_21  and  C_22
REMARK    8  A    between atoms: C_27  and  C_28
REMARK                            x       y       z     vdW  Elec       q    Type
REMARK                         _______ _______ _______ _____ _____    ______ ____
ROOT
ATOM      1  C   UNL     1       2.456   7.275  18.225  0.00  0.00    +0.000 A 
ATOM      2  C   UNL     1       1.828   8.514  18.216  0.00  0.00    +0.000 A 
ATOM      3  C   UNL     1       1.336   9.122  19.412  0.00  0.00    +0.000 A 
ATOM      4  C   UNL     1       1.398   8.406  20.601  0.00  0.00    +0.000 A 
ATOM      5  C   UNL     1       1.825   7.068  20.550  0.00  0.00    +0.000 A 
ATOM      6  C   UNL     1       2.373   6.496  19.381  0.00  0.00    +0.000 A 
ATOM      7  C   UNL     1       1.054   9.084  21.903  0.00  0.00    +0.000 C 
ATOM      8  C   UNL     1       0.699  10.622  21.871  0.00  0.00    +0.000 C 
ATOM      9  C   UNL     1       1.280  11.536  20.628  0.00  0.00    +0.000 C 
ATOM     10  C   UNL     1       0.617  13.051  19.943  0.00  0.00    +0.000 C 
ATOM     11  C   UNL     1       0.890  14.593  20.110  0.00  0.00    +0.000 C 
ATOM     12  C   UNL     1       0.279  13.117  18.355  0.00  0.00    +0.000 C 
ATOM     13  C   UNL     1      -0.602  12.930  20.741  0.00  0.00    +0.000 A 
ATOM     14  N   UNL     1      -0.509  13.635  21.892  0.00  0.00    +0.000 NA
ATOM     15  C   UNL     1      -1.493  13.639  22.754  0.00  0.00    +0.000 A 
ATOM     16  C   UNL     1      -1.302  14.660  23.818  0.00  0.00    +0.000 C 
ATOM     17  N   UNL     1      -2.523  12.780  22.543  0.00  0.00    +0.000 NA
ATOM     18  C   UNL     1      -2.465  11.914  21.415  0.00  0.00    +0.000 A 
ATOM     19  C   UNL     1      -1.464  11.908  20.460  0.00  0.00    +0.000 A 
ATOM     20  C   UNL     1      -0.829  10.816  19.448  0.00  0.00    +0.000 C 
ATOM     21  C   UNL     1       0.955  10.612  19.439  0.00  0.00    +0.000 C 
ATOM     22  C   UNL     1       2.156  11.197  18.516  0.00  0.00    +0.000 C 
ENDROOT
BRANCH   6  23
ATOM     23  N   UNL     1       2.849   5.162  19.308  0.00  0.00    +0.000 N 
ATOM     24  C   UNL     1       4.153   4.747  19.492  0.00  0.00    +0.000 C 
ATOM     25  C   UNL     1       4.341   3.253  19.369  0.00  0.00    +0.000 C 
ATOM     26  O   UNL     1       5.120   5.458  19.770  0.00  0.00    +0.000 OA
ATOM     27  H   UNL     1       2.125   4.459  19.320  0.00  0.00    +0.000 HD
ENDBRANCH   6  23
BRANCH   1  29
ATOM     28  C   UNL     1       4.473   7.320  16.973  0.00  0.00    +0.000 C 
ATOM     29  O   UNL     1       3.171   6.766  17.167  0.00  0.00    +0.000 OA
ENDBRANCH   1  29
TORSDOF 2
ENDMDL
MODEL 5
REMARK VINA RESULT:      -6.4      3.361      5.576
REMARK  Name = 
REMARK  8 active torsions:
REMARK  status: ('A' for Active; 'I' for Inactive)
REMARK    1  A    between atoms: C_1  and  O_2
REMARK    2  A    between atoms: O_2  and  C_3
REMARK    3  A    between atoms: C_8  and  N_9
REMARK    4  A    between atoms: C_10  and  C_11
REMARK    5  A    between atoms: C_16  and  C_17
REMARK    6  A    between atoms: C_16  and  C_18
REMARK    7  A    between atoms: C_21  and  C_22
REMARK    8  A    between atoms: C_27  and  C_28
REMARK                            x       y       z     vdW  Elec       q    Type
REMARK                         _______ _______ _______ _____ _____    ______ ____
ROOT
ATOM      1  C   UNL     1      -2.644  10.347  17.424  0.00  0.00    +0.000 A 
ATOM      2  C   UNL     1      -3.839  10.861  17.910  0.00  0.00    +0.000 A 
ATOM      3  C   UNL     1      -3.877  11.814  18.975  0.00  0.00    +0.000 A 
ATOM      4  C   UNL     1      -2.689  12.158  19.607  0.00  0.00    +0.000 A 
ATOM      5  C   UNL     1      -1.522  11.458  19.256  0.00  0.00    +0.000 A 
ATOM      6  C   UNL     1      -1.477  10.569  18.160  0.00  0.00    +0.000 A 
ATOM      7  C   UNL     1      -2.671  13.287  20.606  0.00  0.00    +0.000 C 
ATOM      8  C   UNL     1      -4.009  14.090  20.846  0.00  0.00    +0.000 C 
ATOM      9  C   UNL     1      -5.141  14.108  19.647  0.00  0.00    +0.000 C 
ATOM     10  C   UNL     1      -6.910  14.342  19.776  0.00  0.00    +0.000 C 
ATOM     11  C   UNL     1      -7.917  15.542  19.609  0.00  0.00    +0.000 C 
ATOM     12  C   UNL     1      -7.903  13.211  19.163  0.00  0.00    +0.000 C 
ATOM     13  C   UNL     1      -6.858  14.269  21.235  0.00  0.00    +0.000 A 
ATOM     14  N   UNL     1      -6.778  15.501  21.788  0.00  0.00    +0.000 NA
ATOM     15  C   UNL     1      -6.702  15.647  23.085  0.00  0.00    +0.000 A 
ATOM     16  C   UNL     1      -6.874  17.065  23.501  0.00  0.00    +0.000 C 
ATOM     17  N   UNL     1      -6.527  14.532  23.839  0.00  0.00    +0.000 NA
ATOM     18  C   UNL     1      -6.415  13.275  23.178  0.00  0.00    +0.000 A 
ATOM     19  C   UNL     1      -6.531  13.075  21.814  0.00  0.00    +0.000 A 
ATOM     20  C   UNL     1      -5.971  11.996  20.747  0.00  0.00    +0.000 C 
ATOM     21  C   UNL     1      -5.157  12.614  19.270  0.00  0.00    +0.000 C 
ATOM     22  C   UNL     1      -5.640  12.892  17.745  0.00  0.00    +0.000 C 
ENDROOT
BRANCH   6  23
ATOM     23  N   UNL     1      -0.306   9.878  17.756  0.00  0.00    +0.000 N 
ATOM     24  C   UNL     1       0.838   9.698  18.509  0.00  0.00    +0.000 C 
ATOM     25  C   UNL     1       1.910   8.899  17.805  0.00  0.00    +0.000 C 
ATOM     26  O   UNL     1       1.030  10.085  19.662  0.00  0.00    +0.000 OA
ATOM     27  H   UNL     1      -0.419   9.313  16.928  0.00  0.00    +0.000 HD
ENDBRANCH   6  23
BRANCH   1  29
ATOM     28  C   UNL     1      -3.050  10.281  15.086  0.00  0.00    +0.000 C 
ATOM     29  O   UNL     1      -2.529   9.640  16.251  0.00  0.00    +0.000 OA
ENDBRANCH   1  29
TORSDOF 2
ENDMDL
MODEL 6
REMARK VINA RESULT:      -5.9      2.728      4.898
REMARK  Name = 
REMARK  8 active torsions:
REMARK  status: ('A' for Active; 'I' for Inactive)
REMARK    1  A    between atoms: C_1  and  O_2
REMARK    2  A    between atoms: O_2  and  C_3
REMARK    3  A    between atoms: C_8  and  N_9
REMARK    4  A    between atoms: C_10  and  C_11
REMARK    5  A    between atoms: C_16  and  C_17
REMARK    6  A    between atoms: C_16  and  C_18
REMARK    7  A    between atoms: C_21  and  C_22
REMARK    8  A    between atoms: C_27  and  C_28
REMARK                            x       y       z     vdW  Elec       q    Type
REMARK                         _______ _______ _______ _____ _____    ______ ____
ROOT
ATOM      1  C   UNL     1       0.221  10.626  21.199  0.00  0.00    +0.000 A 
ATOM      2  C   UNL     1      -0.481  11.678  21.773  0.00  0.00    +0.000 A 
ATOM      3  C   UNL     1      -1.627  12.257  21.144  0.00  0.00    +0.000 A 
ATOM      4  C   UNL     1      -1.986  11.820  19.876  0.00  0.00    +0.000 A 
ATOM      5  C   UNL     1      -1.132  10.920  19.216  0.00  0.00    +0.000 A 
ATOM      6  C   UNL     1      -0.041  10.302  19.866  0.00  0.00    +0.000 A 
ATOM      7  C   UNL     1      -3.285  12.279  19.265  0.00  0.00    +0.000 C 
ATOM      8  C   UNL     1      -4.233  13.196  20.131  0.00  0.00    +0.000 C 
ATOM      9  C   UNL     1      -4.109  13.124  21.774  0.00  0.00    +0.000 C 
ATOM     10  C   UNL     1      -4.517  14.374  22.988  0.00  0.00    +0.000 C 
ATOM     11  C   UNL     1      -5.742  14.698  23.923  0.00  0.00    +0.000 C 
ATOM     12  C   UNL     1      -3.377  14.852  24.043  0.00  0.00    +0.000 C 
ATOM     13  C   UNL     1      -4.732  15.377  21.947  0.00  0.00    +0.000 A 
ATOM     14  N   UNL     1      -6.038  15.459  21.603  0.00  0.00    +0.000 NA
ATOM     15  C   UNL     1      -6.432  16.288  20.672  0.00  0.00    +0.000 A 
ATOM     16  C   UNL     1      -7.915  16.408  20.619  0.00  0.00    +0.000 C 
ATOM     17  N   UNL     1      -5.479  16.926  19.946  0.00  0.00    +0.000 NA
ATOM     18  C   UNL     1      -4.112  16.642  20.222  0.00  0.00    +0.000 A 
ATOM     19  C   UNL     1      -3.654  15.804  21.224  0.00  0.00    +0.000 A 
ATOM     20  C   UNL     1      -2.339  14.892  21.466  0.00  0.00    +0.000 C 
ATOM     21  C   UNL     1      -2.578  13.175  21.932  0.00  0.00    +0.000 C 
ATOM     22  C   UNL     1      -2.587  12.377  23.346  0.00  0.00    +0.000 C 
ENDROOT
BRANCH   6  23
ATOM     23  N   UNL     1       0.815   9.360  19.240  0.00  0.00    +0.000 N 
ATOM     24  C   UNL     1       1.813   9.641  18.327  0.00  0.00    +0.000 C 
ATOM     25  C   UNL     1       2.566   8.420  17.853  0.00  0.00    +0.000 C 
ATOM     26  O   UNL     1       2.143  10.754  17.916  0.00  0.00    +0.000 OA
ATOM     27  H   UNL     1       0.808   8.443  19.662  0.00  0.00    +0.000 HD
ENDBRANCH   6  23
BRANCH   1  29
ATOM     28  C   UNL     1       0.720   9.286  23.095  0.00  0.00    +0.000 C 
ATOM     29  O   UNL     1       1.155   9.869  21.865  0.00  0.00    +0.000 OA
ENDBRANCH   1  29
TORSDOF 2
ENDMDL
MODEL 7
REMARK VINA RESULT:      -5.9      4.968      6.577
REMARK  Name = 
REMARK  8 active torsions:
REMARK  status: ('A' for Active; 'I' for Inactive)
REMARK    1  A    between atoms: C_1  and  O_2
REMARK    2  A    between atoms: O_2  and  C_3
REMARK    3  A    between atoms: C_8  and  N_9
REMARK    4  A    between atoms: C_10  and  C_11
REMARK    5  A    between atoms: C_16  and  C_17
REMARK    6  A    between atoms: C_16  and  C_18
REMARK    7  A    between atoms: C_21  and  C_22
REMARK    8  A    between atoms: C_27  and  C_28
REMARK                            x       y       z     vdW  Elec       q    Type
REMARK                         _______ _______ _______ _____ _____    ______ ____
ROOT
ATOM      1  C   UNL     1       1.824  14.675  21.136  0.00  0.00    +0.000 A 
ATOM      2  C   UNL     1       0.553  14.777  21.687  0.00  0.00    +0.000 A 
ATOM      3  C   UNL     1      -0.562  14.052  21.163  0.00  0.00    +0.000 A 
ATOM      4  C   UNL     1      -0.387  13.303  20.006  0.00  0.00    +0.000 A 
ATOM      5  C   UNL     1       0.843  13.394  19.334  0.00  0.00    +0.000 A 
ATOM      6  C   UNL     1       1.960  14.056  19.892  0.00  0.00    +0.000 A 
ATOM      7  C   UNL     1      -1.488  12.389  19.532  0.00  0.00    +0.000 C 
ATOM      8  C   UNL     1      -2.788  12.266  20.419  0.00  0.00    +0.000 C 
ATOM      9  C   UNL     1      -2.676  12.606  22.028  0.00  0.00    +0.000 C 
ATOM     10  C   UNL     1      -3.953  13.167  23.150  0.00  0.00    +0.000 C 
ATOM     11  C   UNL     1      -4.917  12.502  24.203  0.00  0.00    +0.000 C 
ATOM     12  C   UNL     1      -3.722  14.541  23.986  0.00  0.00    +0.000 C 
ATOM     13  C   UNL     1      -4.894  13.367  22.049  0.00  0.00    +0.000 A 
ATOM     14  N   UNL     1      -5.689  12.286  21.878  0.00  0.00    +0.000 NA
ATOM     15  C   UNL     1      -6.587  12.261  20.928  0.00  0.00    +0.000 A 
ATOM     16  C   UNL     1      -7.516  11.107  21.063  0.00  0.00    +0.000 C 
ATOM     17  N   UNL     1      -6.574  13.268  20.018  0.00  0.00    +0.000 NA
ATOM     18  C   UNL     1      -5.576  14.277  20.135  0.00  0.00    +0.000 A 
ATOM     19  C   UNL     1      -4.636  14.360  21.147  0.00  0.00    +0.000 A 
ATOM     20  C   UNL     1      -3.147  14.974  21.303  0.00  0.00    +0.000 C 
ATOM     21  C   UNL     1      -1.863  13.913  21.972  0.00  0.00    +0.000 C 
ATOM     22  C   UNL     1      -1.221  13.706  23.449  0.00  0.00    +0.000 C 
ENDROOT
BRANCH   6  23
ATOM     23  N   UNL     1       3.226  14.132  19.257  0.00  0.00    +0.000 N 
ATOM     24  C   UNL     1       3.606  15.047  18.295  0.00  0.00    +0.000 C 
ATOM     25  C   UNL     1       5.032  14.880  17.825  0.00  0.00    +0.000 C 
ATOM     26  O   UNL     1       2.922  15.965  17.841  0.00  0.00    +0.000 OA
ATOM     27  H   UNL     1       3.950  13.590  19.704  0.00  0.00    +0.000 HD
ENDBRANCH   6  23
BRANCH   1  29
ATOM     28  C   UNL     1       2.824  16.330  22.514  0.00  0.00    +0.000 C 
ATOM     29  O   UNL     1       2.967  15.134  21.745  0.00  0.00    +0.000 OA
ENDBRANCH   1  29
TORSDOF 2
ENDMDL
MODEL 8
REMARK VINA RESULT:      -5.8      2.794      4.873
REMARK  Name = 
REMARK  8 active torsions:
REMARK  status: ('A' for Active; 'I' for Inactive)
REMARK    1  A    between atoms: C_1  and  O_2
REMARK    2  A    between atoms: O_2  and  C_3
REMARK    3  A    between atoms: C_8  and  N_9
REMARK    4  A    between atoms: C_10  and  C_11
REMARK    5  A    between atoms: C_16  and  C_17
REMARK    6  A    between atoms: C_16  and  C_18
REMARK    7  A    between atoms: C_21  and  C_22
REMARK    8  A    between atoms: C_27  and  C_28
REMARK                            x       y       z     vdW  Elec       q    Type
REMARK                         _______ _______ _______ _____ _____    ______ ____
ROOT
ATOM      1  C   UNL     1      -1.629  10.656  18.550  0.00  0.00    +0.000 A 
ATOM      2  C   UNL     1      -2.611  11.210  19.360  0.00  0.00    +0.000 A 
ATOM      3  C   UNL     1      -2.341  12.307  20.237  0.00  0.00    +0.000 A 
ATOM      4  C   UNL     1      -1.034  12.762  20.354  0.00  0.00    +0.000 A 
ATOM      5  C   UNL     1      -0.018  12.042  19.703  0.00  0.00    +0.000 A 
ATOM      6  C   UNL     1      -0.298  11.004  18.787  0.00  0.00    +0.000 A 
ATOM      7  C   UNL     1      -0.747  14.024  21.127  0.00  0.00    +0.000 C 
ATOM      8  C   UNL     1      -1.968  14.826  21.723  0.00  0.00    +0.000 C 
ATOM      9  C   UNL     1      -3.446  14.648  21.015  0.00  0.00    +0.000 C 
ATOM     10  C   UNL     1      -5.070  14.863  21.735  0.00  0.00    +0.000 C 
ATOM     11  C   UNL     1      -6.153  16.006  21.785  0.00  0.00    +0.000 C 
ATOM     12  C   UNL     1      -6.133  13.636  21.667  0.00  0.00    +0.000 C 
ATOM     13  C   UNL     1      -4.505  15.003  23.077  0.00  0.00    +0.000 A 
ATOM     14  N   UNL     1      -4.323  16.304  23.401  0.00  0.00    +0.000 NA
ATOM     15  C   UNL     1      -3.808  16.637  24.556  0.00  0.00    +0.000 A 
ATOM     16  C   UNL     1      -3.922  18.097  24.820  0.00  0.00    +0.000 C 
ATOM     17  N   UNL     1      -3.303  15.647  25.334  0.00  0.00    +0.000 NA
ATOM     18  C   UNL     1      -3.342  14.311  24.844  0.00  0.00    +0.000 A 
ATOM     19  C   UNL     1      -3.914  13.913  23.649  0.00  0.00    +0.000 A 
ATOM     20  C   UNL     1      -3.689  12.702  22.599  0.00  0.00    +0.000 C 
ATOM     21  C   UNL     1      -3.489  13.116  20.864  0.00  0.00    +0.000 C 
ATOM     22  C   UNL     1      -4.494  13.161  19.589  0.00  0.00    +0.000 C 
ENDROOT
BRANCH   6  23
ATOM     23  N   UNL     1       0.703  10.286  18.084  0.00  0.00    +0.000 N 
ATOM     24  C   UNL     1       1.475   9.255  18.584  0.00  0.00    +0.000 C 
ATOM     25  C   UNL     1       2.445   8.678  17.581  0.00  0.00    +0.000 C 
ATOM     26  O   UNL     1       1.413   8.771  19.715  0.00  0.00    +0.000 OA
ATOM     27  H   UNL     1       0.692  10.423  17.084  0.00  0.00    +0.000 HD
ENDBRANCH   6  23
BRANCH   1  29
ATOM     28  C   UNL     1      -2.509  10.361  16.364  0.00  0.00    +0.000 C 
ATOM     29  O   UNL     1      -1.884   9.788  17.514  0.00  0.00    +0.000 OA
ENDBRANCH   1  29
TORSDOF 2
ENDMDL
MODEL 9
REMARK VINA RESULT:      -5.7      8.568     10.164
REMARK  Name = 
REMARK  8 active torsions:
REMARK  status: ('A' for Active; 'I' for Inactive)
REMARK    1  A    between atoms: C_1  and  O_2
REMARK    2  A    between atoms: O_2  and  C_3
REMARK    3  A    between atoms: C_8  and  N_9
REMARK    4  A    between atoms: C_10  and  C_11
REMARK    5  A    between atoms: C_16  and  C_17
REMARK    6  A    between atoms: C_16  and  C_18
REMARK    7  A    between atoms: C_21  and  C_22
REMARK    8  A    between atoms: C_27  and  C_28
REMARK                            x       y       z     vdW  Elec       q    Type
REMARK                         _______ _______ _______ _____ _____    ______ ____
ROOT
ATOM      1  C   UNL     1       9.537  12.311  20.491  0.00  0.00    +0.000 A 
ATOM      2  C   UNL     1       9.173  12.352  21.831  0.00  0.00    +0.000 A 
ATOM      3  C   UNL     1       8.267  13.333  22.340  0.00  0.00    +0.000 A 
ATOM      4  C   UNL     1       7.818  14.334  21.489  0.00  0.00    +0.000 A 
ATOM      5  C   UNL     1       8.374  14.412  20.201  0.00  0.00    +0.000 A 
ATOM      6  C   UNL     1       9.216  13.402  19.681  0.00  0.00    +0.000 A 
ATOM      7  C   UNL     1       6.729  15.273  21.944  0.00  0.00    +0.000 C 
ATOM      8  C   UNL     1       6.085  15.033  23.364  0.00  0.00    +0.000 C 
ATOM      9  C   UNL     1       6.149  13.517  24.011  0.00  0.00    +0.000 C 
ATOM     10  C   UNL     1       6.114  13.027  25.731  0.00  0.00    +0.000 C 
ATOM     11  C   UNL     1       5.025  12.516  26.749  0.00  0.00    +0.000 C 
ATOM     12  C   UNL     1       7.324  12.115  26.318  0.00  0.00    +0.000 C 
ATOM     13  C   UNL     1       6.231  14.415  26.175  0.00  0.00    +0.000 A 
ATOM     14  N   UNL     1       5.017  14.955  26.430  0.00  0.00    +0.000 NA
ATOM     15  C   UNL     1       4.908  16.198  26.821  0.00  0.00    +0.000 A 
ATOM     16  C   UNL     1       3.532  16.522  27.286  0.00  0.00    +0.000 C 
ATOM     17  N   UNL     1       6.023  16.972  26.790  0.00  0.00    +0.000 NA
ATOM     18  C   UNL     1       7.236  16.397  26.315  0.00  0.00    +0.000 A 
ATOM     19  C   UNL     1       7.401  15.077  25.932  0.00  0.00    +0.000 A 
ATOM     20  C   UNL     1       8.375  14.274  24.921  0.00  0.00    +0.000 C 
ATOM     21  C   UNL     1       7.622  13.165  23.726  0.00  0.00    +0.000 C 
ATOM     22  C   UNL     1       7.345  11.566  23.685  0.00  0.00    +0.000 C 
ENDROOT
BRANCH   6  23
ATOM     23  N   UNL     1       9.760  13.431  18.373  0.00  0.00    +0.000 N 
ATOM     24  C   UNL     1      11.006  13.909  18.014  0.00  0.00    +0.000 C 
ATOM     25  C   UNL     1      11.304  13.785  16.538  0.00  0.00    +0.000 C 
ATOM     26  O   UNL     1      11.862  14.371  18.769  0.00  0.00    +0.000 OA
ATOM     27  H   UNL     1       9.259  12.870  17.699  0.00  0.00    +0.000 HD
ENDBRANCH   6  23
BRANCH   1  29
ATOM     28  C   UNL     1       9.349  10.204  19.411  0.00  0.00    +0.000 C 
ATOM     29  O   UNL     1      10.187  11.253  19.901  0.00  0.00    +0.000 OA
ENDBRANCH   1  29
TORSDOF 2
ENDMDL
