MODEL 1
REMARK VINA RESULT:      -7.6      0.000      0.000
REMARK  Name = 
REMARK  8 active torsions:
REMARK  status: ('A' for Active; 'I' for Inactive)
REMARK    1  A    between atoms: C_1  and  O_2
REMARK    2  A    between atoms: O_2  and  C_3
REMARK    3  A    between atoms: C_6  and  C_7
REMARK    4  A    between atoms: C_7  and  C_8
REMARK    5  A    between atoms: C_8  and  N_9
REMARK    6  A    between atoms: C_10  and  C_12
REMARK    7  A    between atoms: N_15  and  S_16
REMARK    8  A    between atoms: S_16  and  C_17
REMARK                            x       y       z     vdW  Elec       q    Type
REMARK                         _______ _______ _______ _____ _____    ______ ____
ROOT
ATOM      1  N   UNL     1       8.361   7.865  18.536  0.00  0.00    +0.000 N 
ATOM      2  C   UNL     1       7.611   7.008  17.756  0.00  0.00    +0.000 C 
ATOM      3  O   UNL     1       6.947   7.399  16.800  0.00  0.00    +0.000 OA
ATOM      4  H   UNL     1       8.686   7.547  19.441  0.00  0.00    +0.000 HD
ENDROOT
BRANCH   2   5
ATOM      5  C   UNL     1       7.707   5.531  18.154  0.00  0.00    +0.000 C 
ATOM      6  C   UNL     1       7.112   4.636  17.069  0.00  0.00    +0.000 C 
ATOM      7  C   UNL     1       5.604   4.848  16.939  0.00  0.00    +0.000 C 
ATOM      8  N   UNL     1       4.943   4.585  18.237  0.00  0.00    +0.000 NA
ATOM      9  C   UNL     1       5.474   5.381  19.375  0.00  0.00    +0.000 C 
ATOM     10  C   UNL     1       6.993   5.254  19.484  0.00  0.00    +0.000 C 
BRANCH   8  11
ATOM     11  S   UNL     1       3.241   4.439  18.189  0.00  0.00    +0.000 S 
ATOM     12  C   UNL     1       2.700   6.124  17.949  0.00  0.00    +0.000 C 
ATOM     13  O   UNL     1       2.889   3.681  17.006  0.00  0.00    +0.000 OA
ATOM     14  O   UNL     1       2.800   4.023  19.501  0.00  0.00    +0.000 OA
ENDBRANCH   8  11
ENDBRANCH   2   5
BRANCH   1  15
ATOM     15  C   UNL     1       8.370   9.286  18.231  0.00  0.00    +0.000 C 
BRANCH  15  16
ATOM     16  C   UNL     1       9.272  10.094  19.162  0.00  0.00    +0.000 C 
BRANCH  16  20
ATOM     17  C   UNL     1      10.780  13.685  17.282  0.00  0.00    +0.000 A 
ATOM     18  C   UNL     1      11.635  12.616  17.555  0.00  0.00    +0.000 A 
ATOM     19  C   UNL     1      11.148  11.446  18.142  0.00  0.00    +0.000 A 
ATOM     20  C   UNL     1       9.793  11.333  18.478  0.00  0.00    +0.000 A 
ATOM     21  C   UNL     1       8.943  12.416  18.221  0.00  0.00    +0.000 A 
ATOM     22  C   UNL     1       9.433  13.585  17.625  0.00  0.00    +0.000 A 
BRANCH  17  24
ATOM     23  C   UNL     1      12.163  15.578  17.606  0.00  0.00    +0.000 C 
ATOM     24  O   UNL     1      11.379  14.782  16.725  0.00  0.00    +0.000 OA
ENDBRANCH  17  24
ENDBRANCH  16  20
ENDBRANCH  15  16
ENDBRANCH   1  15
TORSDOF 6
ENDMDL
MODEL 2
REMARK VINA RESULT:      -7.4      0.578      1.156
REMARK  Name = 
REMARK  8 active torsions:
REMARK  status: ('A' for Active; 'I' for Inactive)
REMARK    1  A    between atoms: C_1  and  O_2
REMARK    2  A    between atoms: O_2  and  C_3
REMARK    3  A    between atoms: C_6  and  C_7
REMARK    4  A    between atoms: C_7  and  C_8
REMARK    5  A    between atoms: C_8  and  N_9
REMARK    6  A    between atoms: C_10  and  C_12
REMARK    7  A    between atoms: N_15  and  S_16
REMARK    8  A    between atoms: S_16  and  C_17
REMARK                            x       y       z     vdW  Elec       q    Type
REMARK                         _______ _______ _______ _____ _____    ______ ____
ROOT
ATOM      1  N   UNL     1       8.163   7.746  18.132  0.00  0.00    +0.000 N 
ATOM      2  C   UNL     1       7.286   6.995  17.374  0.00  0.00    +0.000 C 
ATOM      3  O   UNL     1       6.520   7.502  16.560  0.00  0.00    +0.000 OA
ATOM      4  H   UNL     1       8.589   7.326  18.948  0.00  0.00    +0.000 HD
ENDROOT
BRANCH   2   5
ATOM      5  C   UNL     1       7.376   5.483  17.603  0.00  0.00    +0.000 C 
ATOM      6  C   UNL     1       6.448   4.733  16.650  0.00  0.00    +0.000 C 
ATOM      7  C   UNL     1       4.980   5.028  16.957  0.00  0.00    +0.000 C 
ATOM      8  N   UNL     1       4.675   4.666  18.360  0.00  0.00    +0.000 NA
ATOM      9  C   UNL     1       5.548   5.315  19.372  0.00  0.00    +0.000 C 
ATOM     10  C   UNL     1       7.027   5.105  19.048  0.00  0.00    +0.000 C 
BRANCH   8  11
ATOM     11  S   UNL     1       3.016   4.607  18.768  0.00  0.00    +0.000 S 
ATOM     12  C   UNL     1       2.722   6.213  19.491  0.00  0.00    +0.000 C 
ATOM     13  O   UNL     1       2.254   4.520  17.539  0.00  0.00    +0.000 OA
ATOM     14  O   UNL     1       2.858   3.622  19.814  0.00  0.00    +0.000 OA
ENDBRANCH   8  11
ENDBRANCH   2   5
BRANCH   1  15
ATOM     15  C   UNL     1       8.186   9.191  17.976  0.00  0.00    +0.000 C 
BRANCH  15  16
ATOM     16  C   UNL     1       9.053   9.893  19.019  0.00  0.00    +0.000 C 
BRANCH  16  20
ATOM     17  C   UNL     1      10.843  13.447  17.326  0.00  0.00    +0.000 A 
ATOM     18  C   UNL     1       9.460  13.363  17.493  0.00  0.00    +0.000 A 
ATOM     19  C   UNL     1       8.880  12.225  18.060  0.00  0.00    +0.000 A 
ATOM     20  C   UNL     1       9.678  11.146  18.457  0.00  0.00    +0.000 A 
ATOM     21  C   UNL     1      11.064  11.228  18.269  0.00  0.00    +0.000 A 
ATOM     22  C   UNL     1      11.643  12.372  17.708  0.00  0.00    +0.000 A 
BRANCH  17  24
ATOM     23  C   UNL     1      12.234  15.355  17.493  0.00  0.00    +0.000 C 
ATOM     24  O   UNL     1      11.289  14.602  16.743  0.00  0.00    +0.000 OA
ENDBRANCH  17  24
ENDBRANCH  16  20
ENDBRANCH  15  16
ENDBRANCH   1  15
TORSDOF 6
ENDMDL
MODEL 3
REMARK VINA RESULT:      -7.3      5.020      8.391
REMARK  Name = 
REMARK  8 active torsions:
REMARK  status: ('A' for Active; 'I' for Inactive)
REMARK    1  A    between atoms: C_1  and  O_2
REMARK    2  A    between atoms: O_2  and  C_3
REMARK    3  A    between atoms: C_6  and  C_7
REMARK    4  A    between atoms: C_7  and  C_8
REMARK    5  A    between atoms: C_8  and  N_9
REMARK    6  A    between atoms: C_10  and  C_12
REMARK    7  A    between atoms: N_15  and  S_16
REMARK    8  A    between atoms: S_16  and  C_17
REMARK                            x       y       z     vdW  Elec       q    Type
REMARK                         _______ _______ _______ _____ _____    ______ ____
ROOT
ATOM      1  N   UNL     1       2.238   6.383  20.221  0.00  0.00    +0.000 N 
ATOM      2  C   UNL     1       2.522   6.056  18.910  0.00  0.00    +0.000 C 
ATOM      3  O   UNL     1       2.449   6.873  17.997  0.00  0.00    +0.000 OA
ATOM      4  H   UNL     1       2.072   5.640  20.887  0.00  0.00    +0.000 HD
ENDROOT
BRANCH   2   5
ATOM      5  C   UNL     1       2.971   4.607  18.696  0.00  0.00    +0.000 C 
ATOM      6  C   UNL     1       4.125   4.252  19.631  0.00  0.00    +0.000 C 
ATOM      7  C   UNL     1       5.385   5.044  19.285  0.00  0.00    +0.000 C 
ATOM      8  N   UNL     1       5.770   4.791  17.878  0.00  0.00    +0.000 NA
ATOM      9  C   UNL     1       4.702   5.070  16.883  0.00  0.00    +0.000 C 
ATOM     10  C   UNL     1       3.402   4.354  17.246  0.00  0.00    +0.000 C 
BRANCH   8  11
ATOM     11  S   UNL     1       7.333   5.319  17.429  0.00  0.00    +0.000 S 
ATOM     12  C   UNL     1       7.840   6.308  18.827  0.00  0.00    +0.000 C 
ATOM     13  O   UNL     1       8.196   4.158  17.362  0.00  0.00    +0.000 OA
ATOM     14  O   UNL     1       7.186   6.207  16.297  0.00  0.00    +0.000 OA
ENDBRANCH   8  11
ENDBRANCH   2   5
BRANCH   1  15
ATOM     15  C   UNL     1       1.831   7.740  20.547  0.00  0.00    +0.000 C 
BRANCH  15  16
ATOM     16  C   UNL     1       0.651   7.797  21.515  0.00  0.00    +0.000 C 
BRANCH  16  20
ATOM     17  C   UNL     1      -1.044  11.774  21.603  0.00  0.00    +0.000 A 
ATOM     18  C   UNL     1      -0.702  11.179  20.389  0.00  0.00    +0.000 A 
ATOM     19  C   UNL     1      -0.174   9.885  20.355  0.00  0.00    +0.000 A 
ATOM     20  C   UNL     1       0.032   9.172  21.542  0.00  0.00    +0.000 A 
ATOM     21  C   UNL     1      -0.296   9.783  22.759  0.00  0.00    +0.000 A 
ATOM     22  C   UNL     1      -0.831  11.076  22.790  0.00  0.00    +0.000 A 
BRANCH  17  24
ATOM     23  C   UNL     1      -1.554  13.612  20.201  0.00  0.00    +0.000 C 
ATOM     24  O   UNL     1      -1.532  13.050  21.508  0.00  0.00    +0.000 OA
ENDBRANCH  17  24
ENDBRANCH  16  20
ENDBRANCH  15  16
ENDBRANCH   1  15
TORSDOF 6
ENDMDL
MODEL 4
REMARK VINA RESULT:      -7.3      1.288      1.514
REMARK  Name = 
REMARK  8 active torsions:
REMARK  status: ('A' for Active; 'I' for Inactive)
REMARK    1  A    between atoms: C_1  and  O_2
REMARK    2  A    between atoms: O_2  and  C_3
REMARK    3  A    between atoms: C_6  and  C_7
REMARK    4  A    between atoms: C_7  and  C_8
REMARK    5  A    between atoms: C_8  and  N_9
REMARK    6  A    between atoms: C_10  and  C_12
REMARK    7  A    between atoms: N_15  and  S_16
REMARK    8  A    between atoms: S_16  and  C_17
REMARK                            x       y       z     vdW  Elec       q    Type
REMARK                         _______ _______ _______ _____ _____    ______ ____
ROOT
ATOM      1  N   UNL     1       7.876   7.803  17.309  0.00  0.00    +0.000 N 
ATOM      2  C   UNL     1       6.740   7.064  17.053  0.00  0.00    +0.000 C 
ATOM      3  O   UNL     1       5.610   7.527  17.181  0.00  0.00    +0.000 OA
ATOM      4  H   UNL     1       8.758   7.322  17.429  0.00  0.00    +0.000 HD
ENDROOT
BRANCH   2   5
ATOM      5  C   UNL     1       7.003   5.637  16.560  0.00  0.00    +0.000 C 
ATOM      6  C   UNL     1       5.770   5.067  15.863  0.00  0.00    +0.000 C 
ATOM      7  C   UNL     1       4.616   4.871  16.846  0.00  0.00    +0.000 C 
ATOM      8  N   UNL     1       5.038   3.978  17.949  0.00  0.00    +0.000 NA
ATOM      9  C   UNL     1       6.257   4.423  18.674  0.00  0.00    +0.000 C 
ATOM     10  C   UNL     1       7.408   4.705  17.709  0.00  0.00    +0.000 C 
BRANCH   8  11
ATOM     11  S   UNL     1       3.783   3.380  18.943  0.00  0.00    +0.000 S 
ATOM     12  C   UNL     1       2.844   2.348  17.828  0.00  0.00    +0.000 C 
ATOM     13  O   UNL     1       4.377   2.529  19.952  0.00  0.00    +0.000 OA
ATOM     14  O   UNL     1       2.945   4.500  19.310  0.00  0.00    +0.000 OA
ENDBRANCH   8  11
ENDBRANCH   2   5
BRANCH   1  15
ATOM     15  C   UNL     1       7.748   9.181  17.753  0.00  0.00    +0.000 C 
BRANCH  15  16
ATOM     16  C   UNL     1       8.882   9.623  18.675  0.00  0.00    +0.000 C 
BRANCH  16  20
ATOM     17  C   UNL     1      10.601  13.395  17.443  0.00  0.00    +0.000 A 
ATOM     18  C   UNL     1      11.424  12.325  17.797  0.00  0.00    +0.000 A 
ATOM     19  C   UNL     1      10.872  11.098  18.175  0.00  0.00    +0.000 A 
ATOM     20  C   UNL     1       9.483  10.929  18.216  0.00  0.00    +0.000 A 
ATOM     21  C   UNL     1       8.662  12.012  17.878  0.00  0.00    +0.000 A 
ATOM     22  C   UNL     1       9.217  13.238  17.493  0.00  0.00    +0.000 A 
BRANCH  17  24
ATOM     23  C   UNL     1      10.585  15.763  17.425  0.00  0.00    +0.000 C 
ATOM     24  O   UNL     1      11.259  14.549  17.111  0.00  0.00    +0.000 OA
ENDBRANCH  17  24
ENDBRANCH  16  20
ENDBRANCH  15  16
ENDBRANCH   1  15
TORSDOF 6
ENDMDL
MODEL 5
REMARK VINA RESULT:      -7.2      6.009      8.174
REMARK  Name = 
REMARK  8 active torsions:
REMARK  status: ('A' for Active; 'I' for Inactive)
REMARK    1  A    between atoms: C_1  and  O_2
REMARK    2  A    between atoms: O_2  and  C_3
REMARK    3  A    between atoms: C_6  and  C_7
REMARK    4  A    between atoms: C_7  and  C_8
REMARK    5  A    between atoms: C_8  and  N_9
REMARK    6  A    between atoms: C_10  and  C_12
REMARK    7  A    between atoms: N_15  and  S_16
REMARK    8  A    between atoms: S_16  and  C_17
REMARK                            x       y       z     vdW  Elec       q    Type
REMARK                         _______ _______ _______ _____ _____    ______ ____
ROOT
ATOM      1  N   UNL     1       2.851   5.587  20.382  0.00  0.00    +0.000 N 
ATOM      2  C   UNL     1       2.798   4.665  19.356  0.00  0.00    +0.000 C 
ATOM      3  O   UNL     1       1.863   4.616  18.563  0.00  0.00    +0.000 OA
ATOM      4  H   UNL     1       3.500   5.436  21.143  0.00  0.00    +0.000 HD
ENDROOT
BRANCH   2   5
ATOM      5  C   UNL     1       4.016   3.739  19.265  0.00  0.00    +0.000 C 
ATOM      6  C   UNL     1       5.314   4.536  19.377  0.00  0.00    +0.000 C 
ATOM      7  C   UNL     1       5.507   5.457  18.173  0.00  0.00    +0.000 C 
ATOM      8  N   UNL     1       5.501   4.663  16.923  0.00  0.00    +0.000 NA
ATOM      9  C   UNL     1       4.293   3.818  16.731  0.00  0.00    +0.000 C 
ATOM     10  C   UNL     1       4.026   2.941  17.954  0.00  0.00    +0.000 C 
BRANCH   8  11
ATOM     11  S   UNL     1       6.043   5.478  15.522  0.00  0.00    +0.000 S 
ATOM     12  C   UNL     1       5.797   4.267  14.233  0.00  0.00    +0.000 C 
ATOM     13  O   UNL     1       5.148   6.588  15.274  0.00  0.00    +0.000 OA
ATOM     14  O   UNL     1       7.468   5.684  15.660  0.00  0.00    +0.000 OA
ENDBRANCH   8  11
ENDBRANCH   2   5
BRANCH   1  15
ATOM     15  C   UNL     1       1.764   6.538  20.545  0.00  0.00    +0.000 C 
BRANCH  15  16
ATOM     16  C   UNL     1       1.972   7.829  19.758  0.00  0.00    +0.000 C 
BRANCH  16  20
ATOM     17  C   UNL     1      -0.624  10.962  21.224  0.00  0.00    +0.000 A 
ATOM     18  C   UNL     1      -0.289   9.881  22.040  0.00  0.00    +0.000 A 
ATOM     19  C   UNL     1       0.567   8.879  21.578  0.00  0.00    +0.000 A 
ATOM     20  C   UNL     1       1.091   8.937  20.281  0.00  0.00    +0.000 A 
ATOM     21  C   UNL     1       0.736  10.014  19.459  0.00  0.00    +0.000 A 
ATOM     22  C   UNL     1      -0.116  11.021  19.927  0.00  0.00    +0.000 A 
BRANCH  17  24
ATOM     23  C   UNL     1      -1.856  11.623  23.134  0.00  0.00    +0.000 C 
ATOM     24  O   UNL     1      -1.485  11.868  21.782  0.00  0.00    +0.000 OA
ENDBRANCH  17  24
ENDBRANCH  16  20
ENDBRANCH  15  16
ENDBRANCH   1  15
TORSDOF 6
ENDMDL
MODEL 6
REMARK VINA RESULT:      -7.2      5.801      8.397
REMARK  Name = 
REMARK  8 active torsions:
REMARK  status: ('A' for Active; 'I' for Inactive)
REMARK    1  A    between atoms: C_1  and  O_2
REMARK    2  A    between atoms: O_2  and  C_3
REMARK    3  A    between atoms: C_6  and  C_7
REMARK    4  A    between atoms: C_7  and  C_8
REMARK    5  A    between atoms: C_8  and  N_9
REMARK    6  A    between atoms: C_10  and  C_12
REMARK    7  A    between atoms: N_15  and  S_16
REMARK    8  A    between atoms: S_16  and  C_17
REMARK                            x       y       z     vdW  Elec       q    Type
REMARK                         _______ _______ _______ _____ _____    ______ ____
ROOT
ATOM      1  N   UNL     1       3.017   6.518  20.038  0.00  0.00    +0.000 N 
ATOM      2  C   UNL     1       2.861   5.402  19.242  0.00  0.00    +0.000 C 
ATOM      3  O   UNL     1       1.891   5.250  18.504  0.00  0.00    +0.000 OA
ATOM      4  H   UNL     1       3.685   6.490  20.797  0.00  0.00    +0.000 HD
ENDROOT
BRANCH   2   5
ATOM      5  C   UNL     1       4.010   4.392  19.324  0.00  0.00    +0.000 C 
ATOM      6  C   UNL     1       5.359   5.105  19.357  0.00  0.00    +0.000 C 
ATOM      7  C   UNL     1       5.642   5.822  18.037  0.00  0.00    +0.000 C 
ATOM      8  N   UNL     1       5.603   4.853  16.918  0.00  0.00    +0.000 NA
ATOM      9  C   UNL     1       4.341   4.074  16.816  0.00  0.00    +0.000 C 
ATOM     10  C   UNL     1       3.988   3.409  18.146  0.00  0.00    +0.000 C 
BRANCH   8  11
ATOM     11  S   UNL     1       6.230   5.411  15.429  0.00  0.00    +0.000 S 
ATOM     12  C   UNL     1       6.023   4.002  14.352  0.00  0.00    +0.000 C 
ATOM     13  O   UNL     1       5.370   6.474  14.951  0.00  0.00    +0.000 OA
ATOM     14  O   UNL     1       7.649   5.622  15.604  0.00  0.00    +0.000 OA
ENDBRANCH   8  11
ENDBRANCH   2   5
BRANCH   1  15
ATOM     15  C   UNL     1       2.001   7.558  20.018  0.00  0.00    +0.000 C 
BRANCH  15  16
ATOM     16  C   UNL     1       1.052   7.494  21.212  0.00  0.00    +0.000 C 
BRANCH  16  20
ATOM     17  C   UNL     1      -0.896  11.306  21.826  0.00  0.00    +0.000 A 
ATOM     18  C   UNL     1      -0.497  10.914  20.548  0.00  0.00    +0.000 A 
ATOM     19  C   UNL     1       0.113   9.673  20.342  0.00  0.00    +0.000 A 
ATOM     20  C   UNL     1       0.345   8.811  21.420  0.00  0.00    +0.000 A 
ATOM     21  C   UNL     1      -0.040   9.219  22.704  0.00  0.00    +0.000 A 
ATOM     22  C   UNL     1      -0.657  10.458  22.906  0.00  0.00    +0.000 A 
BRANCH  17  24
ATOM     23  C   UNL     1      -2.695  12.716  21.208  0.00  0.00    +0.000 C 
ATOM     24  O   UNL     1      -1.463  12.550  21.901  0.00  0.00    +0.000 OA
ENDBRANCH  17  24
ENDBRANCH  16  20
ENDBRANCH  15  16
ENDBRANCH   1  15
TORSDOF 6
ENDMDL
MODEL 7
REMARK VINA RESULT:      -7.2      6.325      8.194
REMARK  Name = 
REMARK  8 active torsions:
REMARK  status: ('A' for Active; 'I' for Inactive)
REMARK    1  A    between atoms: C_1  and  O_2
REMARK    2  A    between atoms: O_2  and  C_3
REMARK    3  A    between atoms: C_6  and  C_7
REMARK    4  A    between atoms: C_7  and  C_8
REMARK    5  A    between atoms: C_8  and  N_9
REMARK    6  A    between atoms: C_10  and  C_12
REMARK    7  A    between atoms: N_15  and  S_16
REMARK    8  A    between atoms: S_16  and  C_17
REMARK                            x       y       z     vdW  Elec       q    Type
REMARK                         _______ _______ _______ _____ _____    ______ ____
ROOT
ATOM      1  N   UNL     1       2.796   5.972  19.952  0.00  0.00    +0.000 N 
ATOM      2  C   UNL     1       2.510   5.179  18.859  0.00  0.00    +0.000 C 
ATOM      3  O   UNL     1       1.783   5.555  17.945  0.00  0.00    +0.000 OA
ATOM      4  H   UNL     1       3.187   5.543  20.781  0.00  0.00    +0.000 HD
ENDROOT
BRANCH   2   5
ATOM      5  C   UNL     1       3.204   3.812  18.862  0.00  0.00    +0.000 C 
ATOM      6  C   UNL     1       4.563   3.894  19.554  0.00  0.00    +0.000 C 
ATOM      7  C   UNL     1       5.540   4.761  18.761  0.00  0.00    +0.000 C 
ATOM      8  N   UNL     1       5.696   4.221  17.391  0.00  0.00    +0.000 NA
ATOM      9  C   UNL     1       4.424   4.065  16.638  0.00  0.00    +0.000 C 
ATOM     10  C   UNL     1       3.395   3.269  17.440  0.00  0.00    +0.000 C 
BRANCH   8  11
ATOM     11  S   UNL     1       6.999   4.857  16.485  0.00  0.00    +0.000 S 
ATOM     12  C   UNL     1       6.702   4.211  14.847  0.00  0.00    +0.000 C 
ATOM     13  O   UNL     1       6.851   6.296  16.436  0.00  0.00    +0.000 OA
ATOM     14  O   UNL     1       8.213   4.248  16.980  0.00  0.00    +0.000 OA
ENDBRANCH   8  11
ENDBRANCH   2   5
BRANCH   1  15
ATOM     15  C   UNL     1       2.216   7.302  20.041  0.00  0.00    +0.000 C 
BRANCH  15  16
ATOM     16  C   UNL     1       1.059   7.388  21.034  0.00  0.00    +0.000 C 
BRANCH  16  20
ATOM     17  C   UNL     1      -0.259  11.466  21.612  0.00  0.00    +0.000 A 
ATOM     18  C   UNL     1      -0.404  10.525  22.632  0.00  0.00    +0.000 A 
ATOM     19  C   UNL     1       0.041   9.212  22.457  0.00  0.00    +0.000 A 
ATOM     20  C   UNL     1       0.627   8.817  21.248  0.00  0.00    +0.000 A 
ATOM     21  C   UNL     1       0.751   9.761  20.220  0.00  0.00    +0.000 A 
ATOM     22  C   UNL     1       0.311  11.078  20.401  0.00  0.00    +0.000 A 
BRANCH  17  24
ATOM     23  C   UNL     1      -1.523  12.819  23.087  0.00  0.00    +0.000 C 
ATOM     24  O   UNL     1      -0.751  12.711  21.896  0.00  0.00    +0.000 OA
ENDBRANCH  17  24
ENDBRANCH  16  20
ENDBRANCH  15  16
ENDBRANCH   1  15
TORSDOF 6
ENDMDL
MODEL 8
REMARK VINA RESULT:      -7.2      6.225      8.273
REMARK  Name = 
REMARK  8 active torsions:
REMARK  status: ('A' for Active; 'I' for Inactive)
REMARK    1  A    between atoms: C_1  and  O_2
REMARK    2  A    between atoms: O_2  and  C_3
REMARK    3  A    between atoms: C_6  and  C_7
REMARK    4  A    between atoms: C_7  and  C_8
REMARK    5  A    between atoms: C_8  and  N_9
REMARK    6  A    between atoms: C_10  and  C_12
REMARK    7  A    between atoms: N_15  and  S_16
REMARK    8  A    between atoms: S_16  and  C_17
REMARK                            x       y       z     vdW  Elec       q    Type
REMARK                         _______ _______ _______ _____ _____    ______ ____
ROOT
ATOM      1  N   UNL     1       2.327   6.335  20.209  0.00  0.00    +0.000 N 
ATOM      2  C   UNL     1       2.543   5.862  18.930  0.00  0.00    +0.000 C 
ATOM      3  O   UNL     1       2.389   6.563  17.934  0.00  0.00    +0.000 OA
ATOM      4  H   UNL     1       2.226   5.673  20.966  0.00  0.00    +0.000 HD
ENDROOT
BRANCH   2   5
ATOM      5  C   UNL     1       3.026   4.409  18.859  0.00  0.00    +0.000 C 
ATOM      6  C   UNL     1       4.352   4.241  19.596  0.00  0.00    +0.000 C 
ATOM      7  C   UNL     1       5.478   4.999  18.894  0.00  0.00    +0.000 C 
ATOM      8  N   UNL     1       5.607   4.532  17.495  0.00  0.00    +0.000 NA
ATOM      9  C   UNL     1       4.358   4.618  16.695  0.00  0.00    +0.000 C 
ATOM     10  C   UNL     1       3.191   3.936  17.409  0.00  0.00    +0.000 C 
BRANCH   8  11
ATOM     11  S   UNL     1       7.026   5.020  16.676  0.00  0.00    +0.000 S 
ATOM     12  C   UNL     1       6.735   4.464  15.004  0.00  0.00    +0.000 C 
ATOM     13  O   UNL     1       7.064   6.468  16.669  0.00  0.00    +0.000 OA
ATOM     14  O   UNL     1       8.126   4.247  17.207  0.00  0.00    +0.000 OA
ENDBRANCH   8  11
ENDBRANCH   2   5
BRANCH   1  15
ATOM     15  C   UNL     1       1.896   7.711  20.398  0.00  0.00    +0.000 C 
BRANCH  15  16
ATOM     16  C   UNL     1       0.839   7.863  21.490  0.00  0.00    +0.000 C 
BRANCH  16  20
ATOM     17  C   UNL     1      -1.031  11.756  21.268  0.00  0.00    +0.000 A 
ATOM     18  C   UNL     1      -0.636  11.094  20.105  0.00  0.00    +0.000 A 
ATOM     19  C   UNL     1      -0.051   9.826  20.171  0.00  0.00    +0.000 A 
ATOM     20  C   UNL     1       0.159   9.207  21.409  0.00  0.00    +0.000 A 
ATOM     21  C   UNL     1      -0.221   9.885  22.574  0.00  0.00    +0.000 A 
ATOM     22  C   UNL     1      -0.813  11.152  22.505  0.00  0.00    +0.000 A 
BRANCH  17  24
ATOM     23  C   UNL     1      -1.087  13.720  19.947  0.00  0.00    +0.000 C 
ATOM     24  O   UNL     1      -1.572  12.998  21.074  0.00  0.00    +0.000 OA
ENDBRANCH  17  24
ENDBRANCH  16  20
ENDBRANCH  15  16
ENDBRANCH   1  15
TORSDOF 6
ENDMDL
MODEL 9
REMARK VINA RESULT:      -7.2      5.136      8.587
REMARK  Name = 
REMARK  8 active torsions:
REMARK  status: ('A' for Active; 'I' for Inactive)
REMARK    1  A    between atoms: C_1  and  O_2
REMARK    2  A    between atoms: O_2  and  C_3
REMARK    3  A    between atoms: C_6  and  C_7
REMARK    4  A    between atoms: C_7  and  C_8
REMARK    5  A    between atoms: C_8  and  N_9
REMARK    6  A    between atoms: C_10  and  C_12
REMARK    7  A    between atoms: N_15  and  S_16
REMARK    8  A    between atoms: S_16  and  C_17
REMARK                            x       y       z     vdW  Elec       q    Type
REMARK                         _______ _______ _______ _____ _____    ______ ____
ROOT
ATOM      1  N   UNL     1       2.125   7.045  19.768  0.00  0.00    +0.000 N 
ATOM      2  C   UNL     1       2.371   5.690  19.856  0.00  0.00    +0.000 C 
ATOM      3  O   UNL     1       2.301   5.076  20.916  0.00  0.00    +0.000 OA
ATOM      4  H   UNL     1       2.429   7.547  18.943  0.00  0.00    +0.000 HD
ENDROOT
BRANCH   2   5
ATOM      5  C   UNL     1       2.700   5.012  18.522  0.00  0.00    +0.000 C 
ATOM      6  C   UNL     1       3.572   3.778  18.740  0.00  0.00    +0.000 C 
ATOM      7  C   UNL     1       4.955   4.160  19.266  0.00  0.00    +0.000 C 
ATOM      8  N   UNL     1       5.614   5.093  18.324  0.00  0.00    +0.000 NA
ATOM      9  C   UNL     1       4.830   6.316  18.012  0.00  0.00    +0.000 C 
ATOM     10  C   UNL     1       3.413   5.969  17.558  0.00  0.00    +0.000 C 
BRANCH   8  11
ATOM     11  S   UNL     1       7.285   5.350  18.579  0.00  0.00    +0.000 S 
ATOM     12  C   UNL     1       7.558   6.960  17.858  0.00  0.00    +0.000 C 
ATOM     13  O   UNL     1       7.510   5.452  20.006  0.00  0.00    +0.000 OA
ATOM     14  O   UNL     1       8.003   4.385  17.777  0.00  0.00    +0.000 OA
ENDBRANCH   8  11
ENDBRANCH   2   5
BRANCH   1  15
ATOM     15  C   UNL     1       1.773   7.787  20.967  0.00  0.00    +0.000 C 
BRANCH  15  16
ATOM     16  C   UNL     1       0.271   7.803  21.245  0.00  0.00    +0.000 C 
BRANCH  16  20
ATOM     17  C   UNL     1      -1.064  11.849  21.986  0.00  0.00    +0.000 A 
ATOM     18  C   UNL     1      -0.716  11.444  20.697  0.00  0.00    +0.000 A 
ATOM     19  C   UNL     1      -0.306  10.132  20.450  0.00  0.00    +0.000 A 
ATOM     20  C   UNL     1      -0.224   9.206  21.497  0.00  0.00    +0.000 A 
ATOM     21  C   UNL     1      -0.555   9.623  22.792  0.00  0.00    +0.000 A 
ATOM     22  C   UNL     1      -0.973  10.936  23.036  0.00  0.00    +0.000 A 
BRANCH  17  24
ATOM     23  C   UNL     1      -1.315  13.728  23.405  0.00  0.00    +0.000 C 
ATOM     24  O   UNL     1      -1.431  13.162  22.104  0.00  0.00    +0.000 OA
ENDBRANCH  17  24
ENDBRANCH  16  20
ENDBRANCH  15  16
ENDBRANCH   1  15
TORSDOF 6
ENDMDL
