MODEL 1
REMARK VINA RESULT:      -8.1      0.000      0.000
REMARK  Name = 
REMARK  6 active torsions:
REMARK  status: ('A' for Active; 'I' for Inactive)
REMARK    1  A    between atoms: N_5  and  C_6
REMARK    2  A    between atoms: N_15  and  C_16
REMARK    3  A    between atoms: C_16  and  C_17
REMARK    4  A    between atoms: C_16  and  C_22
REMARK    5  A    between atoms: N_26  and  C_27
REMARK    6  A    between atoms: C_27  and  C_28
REMARK                            x       y       z     vdW  Elec       q    Type
REMARK                         _______ _______ _______ _____ _____    ______ ____
ROOT
ATOM      1  O   UNL     1       0.712   4.311  17.588  0.00  0.00    +0.000 OA
ATOM      2  C   UNL     1       1.923   4.297  17.735  0.00  0.00    +0.000 C 
ATOM      3  N   UNL     1       2.701   3.237  17.360  0.00  0.00    +0.000 N 
ATOM      4  C   UNL     1       4.051   3.363  17.742  0.00  0.00    +0.000 C 
ATOM      5  N   UNL     1       4.180   4.725  18.258  0.00  0.00    +0.000 N 
ATOM      6  C   UNL     1       2.828   5.422  18.311  0.00  0.00    +0.000 C 
ATOM      7  C   UNL     1       2.621   6.612  17.368  0.00  0.00    +0.000 C 
ATOM      8  C   UNL     1       2.787   8.029  17.946  0.00  0.00    +0.000 C 
ATOM      9  N   UNL     1       2.388   8.333  19.332  0.00  0.00    +0.000 NA
ATOM     10  C   UNL     1       2.495   7.160  20.235  0.00  0.00    +0.000 C 
ATOM     11  C   UNL     1       2.305   5.722  19.714  0.00  0.00    +0.000 C 
ATOM     12  H   UNL     1       2.299   2.416  16.931  0.00  0.00    +0.000 HD
ENDROOT
BRANCH   5  13
ATOM     13  C   UNL     1       5.426   5.321  18.211  0.00  0.00    +0.000 A 
ATOM     14  C   UNL     1       5.836   6.193  17.167  0.00  0.00    +0.000 A 
ATOM     15  C   UNL     1       7.019   6.944  17.234  0.00  0.00    +0.000 A 
ATOM     16  C   UNL     1       7.853   6.831  18.334  0.00  0.00    +0.000 A 
ATOM     17  C   UNL     1       7.554   5.890  19.301  0.00  0.00    +0.000 A 
ATOM     18  C   UNL     1       6.392   5.120  19.191  0.00  0.00    +0.000 A 
ENDBRANCH   5  13
BRANCH   9  19
ATOM     19  C   UNL     1       1.134   9.150  19.459  0.00  0.00    +0.000 C 
BRANCH  19  20
ATOM     20  C   UNL     1       0.497   9.123  20.850  0.00  0.00    +0.000 A 
ATOM     21  C   UNL     1      -0.403   8.246  21.430  0.00  0.00    +0.000 A 
ATOM     22  C   UNL     1      -0.803   8.649  22.742  0.00  0.00    +0.000 A 
ATOM     23  C   UNL     1      -0.198   9.821  23.132  0.00  0.00    +0.000 A 
ATOM     24  S   UNL     1       0.890  10.398  21.954  0.00  0.00    +0.000 S 
ENDBRANCH  19  20
BRANCH  19  25
ATOM     25  C   UNL     1       1.142  10.572  18.875  0.00  0.00    +0.000 A 
ATOM     26  N   UNL     1       2.300  11.168  18.614  0.00  0.00    +0.000 NA
ATOM     27  N   UNL     1       2.033  12.397  18.105  0.00  0.00    +0.000 NA
ATOM     28  N   UNL     1       0.735  12.601  18.046  0.00  0.00    +0.000 NA
ATOM     29  N   UNL     1       0.140  11.463  18.484  0.00  0.00    +0.000 N 
BRANCH  29  30
ATOM     30  C   UNL     1      -1.286  11.568  18.794  0.00  0.00    +0.000 C 
BRANCH  30  31
ATOM     31  C   UNL     1      -2.322  10.997  17.802  0.00  0.00    +0.000 A 
ATOM     32  C   UNL     1      -3.556  11.667  17.677  0.00  0.00    +0.000 A 
ATOM     33  C   UNL     1      -4.432  11.409  16.608  0.00  0.00    +0.000 A 
ATOM     34  C   UNL     1      -4.096  10.473  15.635  0.00  0.00    +0.000 A 
ATOM     35  C   UNL     1      -2.911   9.759  15.759  0.00  0.00    +0.000 A 
ATOM     36  C   UNL     1      -2.037  10.014  16.833  0.00  0.00    +0.000 A 
ENDBRANCH  30  31
ENDBRANCH  29  30
ENDBRANCH  19  25
ENDBRANCH   9  19
TORSDOF 6
ENDMDL
MODEL 2
REMARK VINA RESULT:      -7.6      1.132      1.418
REMARK  Name = 
REMARK  6 active torsions:
REMARK  status: ('A' for Active; 'I' for Inactive)
REMARK    1  A    between atoms: N_5  and  C_6
REMARK    2  A    between atoms: N_15  and  C_16
REMARK    3  A    between atoms: C_16  and  C_17
REMARK    4  A    between atoms: C_16  and  C_22
REMARK    5  A    between atoms: N_26  and  C_27
REMARK    6  A    between atoms: C_27  and  C_28
REMARK                            x       y       z     vdW  Elec       q    Type
REMARK                         _______ _______ _______ _____ _____    ______ ____
ROOT
ATOM      1  O   UNL     1       0.327   3.893  19.841  0.00  0.00    +0.000 OA
ATOM      2  C   UNL     1       1.486   3.782  19.475  0.00  0.00    +0.000 C 
ATOM      3  N   UNL     1       2.091   2.569  19.292  0.00  0.00    +0.000 N 
ATOM      4  C   UNL     1       3.466   2.661  19.004  0.00  0.00    +0.000 C 
ATOM      5  N   UNL     1       3.725   4.087  18.809  0.00  0.00    +0.000 N 
ATOM      6  C   UNL     1       2.485   4.916  19.112  0.00  0.00    +0.000 C 
ATOM      7  C   UNL     1       1.834   5.650  17.936  0.00  0.00    +0.000 C 
ATOM      8  C   UNL     1       2.149   7.146  17.755  0.00  0.00    +0.000 C 
ATOM      9  N   UNL     1       2.356   8.023  18.920  0.00  0.00    +0.000 NA
ATOM     10  C   UNL     1       2.899   7.301  20.098  0.00  0.00    +0.000 C 
ATOM     11  C   UNL     1       2.587   5.813  20.345  0.00  0.00    +0.000 C 
ATOM     12  H   UNL     1       1.591   1.705  19.445  0.00  0.00    +0.000 HD
ENDROOT
BRANCH   5  13
ATOM     13  C   UNL     1       4.799   4.450  18.020  0.00  0.00    +0.000 A 
ATOM     14  C   UNL     1       5.041   3.903  16.731  0.00  0.00    +0.000 A 
ATOM     15  C   UNL     1       6.014   4.421  15.864  0.00  0.00    +0.000 A 
ATOM     16  C   UNL     1       6.804   5.487  16.262  0.00  0.00    +0.000 A 
ATOM     17  C   UNL     1       6.689   5.951  17.558  0.00  0.00    +0.000 A 
ATOM     18  C   UNL     1       5.744   5.389  18.420  0.00  0.00    +0.000 A 
ENDBRANCH   5  13
BRANCH   9  19
ATOM     19  C   UNL     1       1.229   8.978  19.194  0.00  0.00    +0.000 C 
BRANCH  19  20
ATOM     20  C   UNL     1       0.674   8.913  20.618  0.00  0.00    +0.000 A 
ATOM     21  C   UNL     1      -0.394   8.214  21.156  0.00  0.00    +0.000 A 
ATOM     22  C   UNL     1      -0.612   8.512  22.537  0.00  0.00    +0.000 A 
ATOM     23  C   UNL     1       0.293   9.428  23.020  0.00  0.00    +0.000 A 
ATOM     24  S   UNL     1       1.436   9.877  21.839  0.00  0.00    +0.000 S 
ENDBRANCH  19  20
BRANCH  19  25
ATOM     25  C   UNL     1       1.391  10.432  18.723  0.00  0.00    +0.000 A 
ATOM     26  N   UNL     1       2.536  10.822  18.174  0.00  0.00    +0.000 NA
ATOM     27  N   UNL     1       2.417  12.132  17.843  0.00  0.00    +0.000 NA
ATOM     28  N   UNL     1       1.230  12.588  18.178  0.00  0.00    +0.000 NA
ATOM     29  N   UNL     1       0.541  11.542  18.698  0.00  0.00    +0.000 N 
BRANCH  29  30
ATOM     30  C   UNL     1      -0.687  11.881  19.417  0.00  0.00    +0.000 C 
BRANCH  30  31
ATOM     31  C   UNL     1      -2.031  11.290  18.940  0.00  0.00    +0.000 A 
ATOM     32  C   UNL     1      -3.202  12.041  19.174  0.00  0.00    +0.000 A 
ATOM     33  C   UNL     1      -4.414  11.740  18.529  0.00  0.00    +0.000 A 
ATOM     34  C   UNL     1      -4.487  10.679  17.631  0.00  0.00    +0.000 A 
ATOM     35  C   UNL     1      -3.365   9.889  17.420  0.00  0.00    +0.000 A 
ATOM     36  C   UNL     1      -2.152  10.188  18.071  0.00  0.00    +0.000 A 
ENDBRANCH  30  31
ENDBRANCH  29  30
ENDBRANCH  19  25
ENDBRANCH   9  19
TORSDOF 6
ENDMDL
MODEL 3
REMARK VINA RESULT:      -7.5      4.261      8.413
REMARK  Name = 
REMARK  6 active torsions:
REMARK  status: ('A' for Active; 'I' for Inactive)
REMARK    1  A    between atoms: N_5  and  C_6
REMARK    2  A    between atoms: N_15  and  C_16
REMARK    3  A    between atoms: C_16  and  C_17
REMARK    4  A    between atoms: C_16  and  C_22
REMARK    5  A    between atoms: N_26  and  C_27
REMARK    6  A    between atoms: C_27  and  C_28
REMARK                            x       y       z     vdW  Elec       q    Type
REMARK                         _______ _______ _______ _____ _____    ______ ____
ROOT
ATOM      1  O   UNL     1      -1.206  16.027  20.459  0.00  0.00    +0.000 OA
ATOM      2  C   UNL     1      -0.096  16.261  20.008  0.00  0.00    +0.000 C 
ATOM      3  N   UNL     1       0.403  17.528  19.891  0.00  0.00    +0.000 N 
ATOM      4  C   UNL     1       1.640  17.589  19.220  0.00  0.00    +0.000 C 
ATOM      5  N   UNL     1       2.054  16.197  19.048  0.00  0.00    +0.000 N 
ATOM      6  C   UNL     1       0.970  15.240  19.520  0.00  0.00    +0.000 C 
ATOM      7  C   UNL     1       1.285  14.385  20.752  0.00  0.00    +0.000 C 
ATOM      8  C   UNL     1       1.738  12.931  20.525  0.00  0.00    +0.000 C 
ATOM      9  N   UNL     1       1.196  12.134  19.411  0.00  0.00    +0.000 NA
ATOM     10  C   UNL     1       0.798  12.963  18.246  0.00  0.00    +0.000 C 
ATOM     11  C   UNL     1       0.306  14.413  18.420  0.00  0.00    +0.000 C 
ATOM     12  H   UNL     1      -0.130  18.332  20.188  0.00  0.00    +0.000 HD
ENDROOT
BRANCH   5  13
ATOM     13  C   UNL     1       3.404  15.933  18.921  0.00  0.00    +0.000 A 
ATOM     14  C   UNL     1       3.922  14.879  18.121  0.00  0.00    +0.000 A 
ATOM     15  C   UNL     1       5.290  14.747  17.842  0.00  0.00    +0.000 A 
ATOM     16  C   UNL     1       6.199  15.646  18.377  0.00  0.00    +0.000 A 
ATOM     17  C   UNL     1       5.744  16.597  19.271  0.00  0.00    +0.000 A 
ATOM     18  C   UNL     1       4.381  16.681  19.569  0.00  0.00    +0.000 A 
ENDBRANCH   5  13
BRANCH   9  19
ATOM     19  C   UNL     1       0.224  11.063  19.820  0.00  0.00    +0.000 C 
BRANCH  19  20
ATOM     20  C   UNL     1      -0.954  10.877  18.862  0.00  0.00    +0.000 A 
ATOM     21  C   UNL     1      -1.113  10.070  17.748  0.00  0.00    +0.000 A 
ATOM     22  C   UNL     1      -2.366  10.274  17.090  0.00  0.00    +0.000 A 
ATOM     23  C   UNL     1      -3.133  11.228  17.717  0.00  0.00    +0.000 A 
ATOM     24  S   UNL     1      -2.378  11.828  19.123  0.00  0.00    +0.000 S 
ENDBRANCH  19  20
BRANCH  19  25
ATOM     25  C   UNL     1       0.796   9.711  20.273  0.00  0.00    +0.000 A 
ATOM     26  N   UNL     1       0.647   9.324  21.536  0.00  0.00    +0.000 NA
ATOM     27  N   UNL     1       1.227   8.106  21.672  0.00  0.00    +0.000 NA
ATOM     28  N   UNL     1       1.753   7.714  20.532  0.00  0.00    +0.000 NA
ATOM     29  N   UNL     1       1.469   8.676  19.618  0.00  0.00    +0.000 N 
BRANCH  29  30
ATOM     30  C   UNL     1       2.213   8.601  18.361  0.00  0.00    +0.000 C 
BRANCH  30  31
ATOM     31  C   UNL     1       2.723   7.231  17.863  0.00  0.00    +0.000 A 
ATOM     32  C   UNL     1       4.058   7.146  17.419  0.00  0.00    +0.000 A 
ATOM     33  C   UNL     1       4.696   5.907  17.231  0.00  0.00    +0.000 A 
ATOM     34  C   UNL     1       4.014   4.720  17.481  0.00  0.00    +0.000 A 
ATOM     35  C   UNL     1       2.681   4.771  17.868  0.00  0.00    +0.000 A 
ATOM     36  C   UNL     1       2.042   6.012  18.052  0.00  0.00    +0.000 A 
ENDBRANCH  30  31
ENDBRANCH  29  30
ENDBRANCH  19  25
ENDBRANCH   9  19
TORSDOF 6
ENDMDL
MODEL 4
REMARK VINA RESULT:      -7.5      4.582      8.510
REMARK  Name = 
REMARK  6 active torsions:
REMARK  status: ('A' for Active; 'I' for Inactive)
REMARK    1  A    between atoms: N_5  and  C_6
REMARK    2  A    between atoms: N_15  and  C_16
REMARK    3  A    between atoms: C_16  and  C_17
REMARK    4  A    between atoms: C_16  and  C_22
REMARK    5  A    between atoms: N_26  and  C_27
REMARK    6  A    between atoms: C_27  and  C_28
REMARK                            x       y       z     vdW  Elec       q    Type
REMARK                         _______ _______ _______ _____ _____    ______ ____
ROOT
ATOM      1  O   UNL     1      -1.623  16.853  19.212  0.00  0.00    +0.000 OA
ATOM      2  C   UNL     1      -0.446  16.894  18.892  0.00  0.00    +0.000 C 
ATOM      3  N   UNL     1       0.165  18.039  18.463  0.00  0.00    +0.000 N 
ATOM      4  C   UNL     1       1.484  17.842  18.011  0.00  0.00    +0.000 C 
ATOM      5  N   UNL     1       1.806  16.456  18.354  0.00  0.00    +0.000 N 
ATOM      6  C   UNL     1       0.592  15.738  18.926  0.00  0.00    +0.000 C 
ATOM      7  C   UNL     1       0.663  15.317  20.398  0.00  0.00    +0.000 C 
ATOM      8  C   UNL     1       1.025  13.855  20.715  0.00  0.00    +0.000 C 
ATOM      9  N   UNL     1       0.582  12.758  19.837  0.00  0.00    +0.000 NA
ATOM     10  C   UNL     1       0.419  13.178  18.423  0.00  0.00    +0.000 C 
ATOM     11  C   UNL     1       0.025  14.620  18.052  0.00  0.00    +0.000 C 
ATOM     12  H   UNL     1      -0.339  18.912  18.404  0.00  0.00    +0.000 HD
ENDROOT
BRANCH   5  13
ATOM     13  C   UNL     1       3.134  16.124  18.531  0.00  0.00    +0.000 A 
ATOM     14  C   UNL     1       3.789  15.103  17.791  0.00  0.00    +0.000 A 
ATOM     15  C   UNL     1       5.178  14.912  17.838  0.00  0.00    +0.000 A 
ATOM     16  C   UNL     1       5.964  15.715  18.650  0.00  0.00    +0.000 A 
ATOM     17  C   UNL     1       5.343  16.622  19.486  0.00  0.00    +0.000 A 
ATOM     18  C   UNL     1       3.953  16.764  19.456  0.00  0.00    +0.000 A 
ENDBRANCH   5  13
BRANCH   9  19
ATOM     19  C   UNL     1      -0.519  11.908  20.403  0.00  0.00    +0.000 C 
BRANCH  19  20
ATOM     20  C   UNL     1      -1.388  11.212  19.353  0.00  0.00    +0.000 A 
ATOM     21  C   UNL     1      -1.138  10.130  18.526  0.00  0.00    +0.000 A 
ATOM     22  C   UNL     1      -2.215   9.861  17.624  0.00  0.00    +0.000 A 
ATOM     23  C   UNL     1      -3.259  10.740  17.786  0.00  0.00    +0.000 A 
ATOM     24  S   UNL     1      -2.974  11.842  19.055  0.00  0.00    +0.000 S 
ENDBRANCH  19  20
BRANCH  19  25
ATOM     25  C   UNL     1      -0.170  10.957  21.559  0.00  0.00    +0.000 A 
ATOM     26  N   UNL     1      -0.767  11.106  22.736  0.00  0.00    +0.000 NA
ATOM     27  N   UNL     1      -0.294  10.147  23.571  0.00  0.00    +0.000 NA
ATOM     28  N   UNL     1       0.598   9.399  22.958  0.00  0.00    +0.000 NA
ATOM     29  N   UNL     1       0.675   9.850  21.680  0.00  0.00    +0.000 N 
BRANCH  29  30
ATOM     30  C   UNL     1       1.818   9.371  20.903  0.00  0.00    +0.000 C 
BRANCH  30  31
ATOM     31  C   UNL     1       1.747   7.986  20.226  0.00  0.00    +0.000 A 
ATOM     32  C   UNL     1       2.199   7.878  18.895  0.00  0.00    +0.000 A 
ATOM     33  C   UNL     1       2.450   6.629  18.299  0.00  0.00    +0.000 A 
ATOM     34  C   UNL     1       2.255   5.455  19.019  0.00  0.00    +0.000 A 
ATOM     35  C   UNL     1       1.760   5.527  20.315  0.00  0.00    +0.000 A 
ATOM     36  C   UNL     1       1.504   6.778  20.909  0.00  0.00    +0.000 A 
ENDBRANCH  30  31
ENDBRANCH  29  30
ENDBRANCH  19  25
ENDBRANCH   9  19
TORSDOF 6
ENDMDL
MODEL 5
REMARK VINA RESULT:      -7.5      5.759      8.574
REMARK  Name = 
REMARK  6 active torsions:
REMARK  status: ('A' for Active; 'I' for Inactive)
REMARK    1  A    between atoms: N_5  and  C_6
REMARK    2  A    between atoms: N_15  and  C_16
REMARK    3  A    between atoms: C_16  and  C_17
REMARK    4  A    between atoms: C_16  and  C_22
REMARK    5  A    between atoms: N_26  and  C_27
REMARK    6  A    between atoms: C_27  and  C_28
REMARK                            x       y       z     vdW  Elec       q    Type
REMARK                         _______ _______ _______ _____ _____    ______ ____
ROOT
ATOM      1  O   UNL     1       3.014  13.715  21.644  0.00  0.00    +0.000 OA
ATOM      2  C   UNL     1       2.662  14.712  21.035  0.00  0.00    +0.000 C 
ATOM      3  N   UNL     1       3.351  15.893  21.086  0.00  0.00    +0.000 N 
ATOM      4  C   UNL     1       2.703  16.955  20.427  0.00  0.00    +0.000 C 
ATOM      5  N   UNL     1       1.570  16.343  19.732  0.00  0.00    +0.000 N 
ATOM      6  C   UNL     1       1.445  14.867  20.081  0.00  0.00    +0.000 C 
ATOM      7  C   UNL     1       1.700  13.861  18.954  0.00  0.00    +0.000 C 
ATOM      8  C   UNL     1       0.479  13.258  18.236  0.00  0.00    +0.000 C 
ATOM      9  N   UNL     1      -0.769  12.979  18.967  0.00  0.00    +0.000 NA
ATOM     10  C   UNL     1      -0.979  13.888  20.121  0.00  0.00    +0.000 C 
ATOM     11  C   UNL     1       0.207  14.494  20.896  0.00  0.00    +0.000 C 
ATOM     12  H   UNL     1       4.196  15.984  21.630  0.00  0.00    +0.000 HD
ENDROOT
BRANCH   5  13
ATOM     13  C   UNL     1       1.075  16.982  18.612  0.00  0.00    +0.000 A 
ATOM     14  C   UNL     1      -0.303  17.276  18.426  0.00  0.00    +0.000 A 
ATOM     15  C   UNL     1      -0.764  18.096  17.386  0.00  0.00    +0.000 A 
ATOM     16  C   UNL     1       0.131  18.631  16.472  0.00  0.00    +0.000 A 
ATOM     17  C   UNL     1       1.457  18.251  16.543  0.00  0.00    +0.000 A 
ATOM     18  C   UNL     1       1.887  17.396  17.561  0.00  0.00    +0.000 A 
ENDBRANCH   5  13
BRANCH   9  19
ATOM     19  C   UNL     1      -1.035  11.522  19.219  0.00  0.00    +0.000 C 
BRANCH  19  20
ATOM     20  C   UNL     1      -0.878  11.091  20.679  0.00  0.00    +0.000 A 
ATOM     21  C   UNL     1      -1.494  11.533  21.838  0.00  0.00    +0.000 A 
ATOM     22  C   UNL     1      -0.979  10.903  23.014  0.00  0.00    +0.000 A 
ATOM     23  C   UNL     1       0.013   9.996  22.725  0.00  0.00    +0.000 A 
ATOM     24  S   UNL     1       0.281   9.858  21.048  0.00  0.00    +0.000 S 
ENDBRANCH  19  20
BRANCH  19  25
ATOM     25  C   UNL     1      -2.291  10.902  18.586  0.00  0.00    +0.000 A 
ATOM     26  N   UNL     1      -2.171   9.852  17.781  0.00  0.00    +0.000 NA
ATOM     27  N   UNL     1      -3.413   9.497  17.367  0.00  0.00    +0.000 NA
ATOM     28  N   UNL     1      -4.319  10.303  17.878  0.00  0.00    +0.000 NA
ATOM     29  N   UNL     1      -3.659  11.174  18.682  0.00  0.00    +0.000 N 
BRANCH  29  30
ATOM     30  C   UNL     1      -4.420  12.346  19.112  0.00  0.00    +0.000 C 
BRANCH  30  31
ATOM     31  C   UNL     1      -5.274  12.265  20.396  0.00  0.00    +0.000 A 
ATOM     32  C   UNL     1      -4.762  12.857  21.568  0.00  0.00    +0.000 A 
ATOM     33  C   UNL     1      -5.574  13.096  22.691  0.00  0.00    +0.000 A 
ATOM     34  C   UNL     1      -6.921  12.748  22.671  0.00  0.00    +0.000 A 
ATOM     35  C   UNL     1      -7.442  12.114  21.550  0.00  0.00    +0.000 A 
ATOM     36  C   UNL     1      -6.627  11.872  20.427  0.00  0.00    +0.000 A 
ENDBRANCH  30  31
ENDBRANCH  29  30
ENDBRANCH  19  25
ENDBRANCH   9  19
TORSDOF 6
ENDMDL
MODEL 6
REMARK VINA RESULT:      -7.5      6.230      8.859
REMARK  Name = 
REMARK  6 active torsions:
REMARK  status: ('A' for Active; 'I' for Inactive)
REMARK    1  A    between atoms: N_5  and  C_6
REMARK    2  A    between atoms: N_15  and  C_16
REMARK    3  A    between atoms: C_16  and  C_17
REMARK    4  A    between atoms: C_16  and  C_22
REMARK    5  A    between atoms: N_26  and  C_27
REMARK    6  A    between atoms: C_27  and  C_28
REMARK                            x       y       z     vdW  Elec       q    Type
REMARK                         _______ _______ _______ _____ _____    ______ ____
ROOT
ATOM      1  O   UNL     1       2.961  13.395  21.242  0.00  0.00    +0.000 OA
ATOM      2  C   UNL     1       2.713  14.481  20.744  0.00  0.00    +0.000 C 
ATOM      3  N   UNL     1       3.615  15.508  20.721  0.00  0.00    +0.000 N 
ATOM      4  C   UNL     1       3.085  16.716  20.229  0.00  0.00    +0.000 C 
ATOM      5  N   UNL     1       1.756  16.376  19.721  0.00  0.00    +0.000 N 
ATOM      6  C   UNL     1       1.408  14.926  20.027  0.00  0.00    +0.000 C 
ATOM      7  C   UNL     1       1.273  13.975  18.833  0.00  0.00    +0.000 C 
ATOM      8  C   UNL     1      -0.142  13.660  18.317  0.00  0.00    +0.000 C 
ATOM      9  N   UNL     1      -1.283  13.562  19.245  0.00  0.00    +0.000 NA
ATOM     10  C   UNL     1      -1.119  14.409  20.453  0.00  0.00    +0.000 C 
ATOM     11  C   UNL     1       0.273  14.728  21.031  0.00  0.00    +0.000 C 
ATOM     12  H   UNL     1       4.541  15.403  21.111  0.00  0.00    +0.000 HD
ENDROOT
BRANCH   5  13
ATOM     13  C   UNL     1       1.216  17.174  18.731  0.00  0.00    +0.000 A 
ATOM     14  C   UNL     1       1.938  17.586  17.579  0.00  0.00    +0.000 A 
ATOM     15  C   UNL     1       1.321  18.224  16.493  0.00  0.00    +0.000 A 
ATOM     16  C   UNL     1      -0.036  18.502  16.528  0.00  0.00    +0.000 A 
ATOM     17  C   UNL     1      -0.737  18.241  17.689  0.00  0.00    +0.000 A 
ATOM     18  C   UNL     1      -0.092  17.646  18.777  0.00  0.00    +0.000 A 
ENDBRANCH   5  13
BRANCH   9  19
ATOM     19  C   UNL     1      -1.780  12.165  19.482  0.00  0.00    +0.000 C 
BRANCH  19  20
ATOM     20  C   UNL     1      -1.452  11.600  20.866  0.00  0.00    +0.000 A 
ATOM     21  C   UNL     1      -2.002  11.848  22.112  0.00  0.00    +0.000 A 
ATOM     22  C   UNL     1      -1.327  11.154  23.164  0.00  0.00    +0.000 A 
ATOM     23  C   UNL     1      -0.282  10.393  22.696  0.00  0.00    +0.000 A 
ATOM     24  S   UNL     1      -0.152  10.463  20.999  0.00  0.00    +0.000 S 
ENDBRANCH  19  20
BRANCH  19  25
ATOM     25  C   UNL     1      -3.225  11.839  19.073  0.00  0.00    +0.000 A 
ATOM     26  N   UNL     1      -3.453  10.932  18.129  0.00  0.00    +0.000 NA
ATOM     27  N   UNL     1      -4.795  10.827  17.964  0.00  0.00    +0.000 NA
ATOM     28  N   UNL     1      -5.427  11.652  18.770  0.00  0.00    +0.000 NA
ATOM     29  N   UNL     1      -4.478  12.277  19.512  0.00  0.00    +0.000 N 
BRANCH  29  30
ATOM     30  C   UNL     1      -4.924  13.454  20.256  0.00  0.00    +0.000 C 
BRANCH  30  31
ATOM     31  C   UNL     1      -5.842  13.271  21.484  0.00  0.00    +0.000 A 
ATOM     32  C   UNL     1      -7.129  12.735  21.272  0.00  0.00    +0.000 A 
ATOM     33  C   UNL     1      -7.915  12.260  22.337  0.00  0.00    +0.000 A 
ATOM     34  C   UNL     1      -7.435  12.309  23.641  0.00  0.00    +0.000 A 
ATOM     35  C   UNL     1      -6.193  12.879  23.888  0.00  0.00    +0.000 A 
ATOM     36  C   UNL     1      -5.408  13.359  22.822  0.00  0.00    +0.000 A 
ENDBRANCH  30  31
ENDBRANCH  29  30
ENDBRANCH  19  25
ENDBRANCH   9  19
TORSDOF 6
ENDMDL
MODEL 7
REMARK VINA RESULT:      -7.4      5.473      8.087
REMARK  Name = 
REMARK  6 active torsions:
REMARK  status: ('A' for Active; 'I' for Inactive)
REMARK    1  A    between atoms: N_5  and  C_6
REMARK    2  A    between atoms: N_15  and  C_16
REMARK    3  A    between atoms: C_16  and  C_17
REMARK    4  A    between atoms: C_16  and  C_22
REMARK    5  A    between atoms: N_26  and  C_27
REMARK    6  A    between atoms: C_27  and  C_28
REMARK                            x       y       z     vdW  Elec       q    Type
REMARK                         _______ _______ _______ _____ _____    ______ ____
ROOT
ATOM      1  O   UNL     1      -1.692  16.954  19.663  0.00  0.00    +0.000 OA
ATOM      2  C   UNL     1      -0.566  16.931  19.193  0.00  0.00    +0.000 C 
ATOM      3  N   UNL     1      -0.086  17.913  18.371  0.00  0.00    +0.000 N 
ATOM      4  C   UNL     1       1.181  17.627  17.827  0.00  0.00    +0.000 C 
ATOM      5  N   UNL     1       1.631  16.417  18.515  0.00  0.00    +0.000 N 
ATOM      6  C   UNL     1       0.543  15.868  19.426  0.00  0.00    +0.000 C 
ATOM      7  C   UNL     1       0.813  15.908  20.934  0.00  0.00    +0.000 C 
ATOM      8  C   UNL     1       1.306  14.618  21.614  0.00  0.00    +0.000 C 
ATOM      9  N   UNL     1       0.837  13.296  21.162  0.00  0.00    +0.000 NA
ATOM     10  C   UNL     1       0.482  13.270  19.722  0.00  0.00    +0.000 C 
ATOM     11  C   UNL     1      -0.047  14.525  19.000  0.00  0.00    +0.000 C 
ATOM     12  H   UNL     1      -0.650  18.714  18.126  0.00  0.00    +0.000 HD
ENDROOT
BRANCH   5  13
ATOM     13  C   UNL     1       2.991  16.190  18.606  0.00  0.00    +0.000 A 
ATOM     14  C   UNL     1       3.653  15.131  17.929  0.00  0.00    +0.000 A 
ATOM     15  C   UNL     1       5.051  15.032  17.870  0.00  0.00    +0.000 A 
ATOM     16  C   UNL     1       5.842  15.973  18.509  0.00  0.00    +0.000 A 
ATOM     17  C   UNL     1       5.231  16.934  19.290  0.00  0.00    +0.000 A 
ATOM     18  C   UNL     1       3.836  16.986  19.372  0.00  0.00    +0.000 A 
ENDBRANCH   5  13
BRANCH   9  19
ATOM     19  C   UNL     1      -0.132  12.623  22.092  0.00  0.00    +0.000 C 
BRANCH  19  20
ATOM     20  C   UNL     1      -1.490  13.320  22.207  0.00  0.00    +0.000 A 
ATOM     21  C   UNL     1      -2.577  13.359  21.350  0.00  0.00    +0.000 A 
ATOM     22  C   UNL     1      -3.624  14.211  21.821  0.00  0.00    +0.000 A 
ATOM     23  C   UNL     1      -3.312  14.800  23.024  0.00  0.00    +0.000 A 
ATOM     24  S   UNL     1      -1.799  14.282  23.614  0.00  0.00    +0.000 S 
ENDBRANCH  19  20
BRANCH  19  25
ATOM     25  C   UNL     1      -0.294  11.099  21.980  0.00  0.00    +0.000 A 
ATOM     26  N   UNL     1      -0.291  10.355  23.080  0.00  0.00    +0.000 NA
ATOM     27  N   UNL     1      -0.456   9.060  22.711  0.00  0.00    +0.000 NA
ATOM     28  N   UNL     1      -0.551   8.961  21.403  0.00  0.00    +0.000 NA
ATOM     29  N   UNL     1      -0.494  10.223  20.909  0.00  0.00    +0.000 N 
BRANCH  29  30
ATOM     30  C   UNL     1      -0.273  10.335  19.468  0.00  0.00    +0.000 C 
BRANCH  30  31
ATOM     31  C   UNL     1      -1.487  10.343  18.513  0.00  0.00    +0.000 A 
ATOM     32  C   UNL     1      -2.537  11.242  18.789  0.00  0.00    +0.000 A 
ATOM     33  C   UNL     1      -3.529  11.533  17.835  0.00  0.00    +0.000 A 
ATOM     34  C   UNL     1      -3.496  10.933  16.581  0.00  0.00    +0.000 A 
ATOM     35  C   UNL     1      -2.503  10.003  16.299  0.00  0.00    +0.000 A 
ATOM     36  C   UNL     1      -1.513   9.708  17.255  0.00  0.00    +0.000 A 
ENDBRANCH  30  31
ENDBRANCH  29  30
ENDBRANCH  19  25
ENDBRANCH   9  19
TORSDOF 6
ENDMDL
MODEL 8
REMARK VINA RESULT:      -7.4      5.623      8.577
REMARK  Name = 
REMARK  6 active torsions:
REMARK  status: ('A' for Active; 'I' for Inactive)
REMARK    1  A    between atoms: N_5  and  C_6
REMARK    2  A    between atoms: N_15  and  C_16
REMARK    3  A    between atoms: C_16  and  C_17
REMARK    4  A    between atoms: C_16  and  C_22
REMARK    5  A    between atoms: N_26  and  C_27
REMARK    6  A    between atoms: C_27  and  C_28
REMARK                            x       y       z     vdW  Elec       q    Type
REMARK                         _______ _______ _______ _____ _____    ______ ____
ROOT
ATOM      1  O   UNL     1      -1.593  17.032  19.468  0.00  0.00    +0.000 OA
ATOM      2  C   UNL     1      -0.429  17.069  19.105  0.00  0.00    +0.000 C 
ATOM      3  N   UNL     1       0.187  18.224  18.710  0.00  0.00    +0.000 N 
ATOM      4  C   UNL     1       1.484  18.027  18.198  0.00  0.00    +0.000 C 
ATOM      5  N   UNL     1       1.792  16.621  18.459  0.00  0.00    +0.000 N 
ATOM      6  C   UNL     1       0.587  15.895  19.040  0.00  0.00    +0.000 C 
ATOM      7  C   UNL     1       0.705  15.399  20.486  0.00  0.00    +0.000 C 
ATOM      8  C   UNL     1       1.051  13.917  20.714  0.00  0.00    +0.000 C 
ATOM      9  N   UNL     1       0.554  12.873  19.800  0.00  0.00    +0.000 NA
ATOM     10  C   UNL     1       0.346  13.368  18.417  0.00  0.00    +0.000 C 
ATOM     11  C   UNL     1      -0.034  14.834  18.134  0.00  0.00    +0.000 C 
ATOM     12  H   UNL     1      -0.301  19.108  18.715  0.00  0.00    +0.000 HD
ENDROOT
BRANCH   5  13
ATOM     13  C   UNL     1       3.120  16.257  18.568  0.00  0.00    +0.000 A 
ATOM     14  C   UNL     1       3.687  15.155  17.873  0.00  0.00    +0.000 A 
ATOM     15  C   UNL     1       5.069  14.919  17.836  0.00  0.00    +0.000 A 
ATOM     16  C   UNL     1       5.937  15.758  18.517  0.00  0.00    +0.000 A 
ATOM     17  C   UNL     1       5.408  16.754  19.315  0.00  0.00    +0.000 A 
ATOM     18  C   UNL     1       4.024  16.942  19.373  0.00  0.00    +0.000 A 
ENDBRANCH   5  13
BRANCH   9  19
ATOM     19  C   UNL     1      -0.541  12.015  20.366  0.00  0.00    +0.000 C 
BRANCH  19  20
ATOM     20  C   UNL     1      -1.373  11.275  19.315  0.00  0.00    +0.000 A 
ATOM     21  C   UNL     1      -1.074  10.196  18.501  0.00  0.00    +0.000 A 
ATOM     22  C   UNL     1      -2.132   9.875  17.594  0.00  0.00    +0.000 A 
ATOM     23  C   UNL     1      -3.211  10.715  17.739  0.00  0.00    +0.000 A 
ATOM     24  S   UNL     1      -2.980  11.839  18.998  0.00  0.00    +0.000 S 
ENDBRANCH  19  20
BRANCH  19  25
ATOM     25  C   UNL     1      -0.197  11.100  21.552  0.00  0.00    +0.000 A 
ATOM     26  N   UNL     1       0.826  10.258  21.457  0.00  0.00    +0.000 NA
ATOM     27  N   UNL     1       0.921   9.580  22.628  0.00  0.00    +0.000 NA
ATOM     28  N   UNL     1      -0.024   9.961  23.461  0.00  0.00    +0.000 NA
ATOM     29  N   UNL     1      -0.722  10.943  22.837  0.00  0.00    +0.000 N 
BRANCH  29  30
ATOM     30  C   UNL     1      -2.001  11.302  23.449  0.00  0.00    +0.000 C 
BRANCH  30  31
ATOM     31  C   UNL     1      -2.603  12.699  23.184  0.00  0.00    +0.000 A 
ATOM     32  C   UNL     1      -3.826  12.770  22.486  0.00  0.00    +0.000 A 
ATOM     33  C   UNL     1      -4.592  13.948  22.455  0.00  0.00    +0.000 A 
ATOM     34  C   UNL     1      -4.154  15.088  23.122  0.00  0.00    +0.000 A 
ATOM     35  C   UNL     1      -2.928  15.065  23.774  0.00  0.00    +0.000 A 
ATOM     36  C   UNL     1      -2.159  13.886  23.800  0.00  0.00    +0.000 A 
ENDBRANCH  30  31
ENDBRANCH  29  30
ENDBRANCH  19  25
ENDBRANCH   9  19
TORSDOF 6
ENDMDL
MODEL 9
REMARK VINA RESULT:      -7.4      1.342      2.296
REMARK  Name = 
REMARK  6 active torsions:
REMARK  status: ('A' for Active; 'I' for Inactive)
REMARK    1  A    between atoms: N_5  and  C_6
REMARK    2  A    between atoms: N_15  and  C_16
REMARK    3  A    between atoms: C_16  and  C_17
REMARK    4  A    between atoms: C_16  and  C_22
REMARK    5  A    between atoms: N_26  and  C_27
REMARK    6  A    between atoms: C_27  and  C_28
REMARK                            x       y       z     vdW  Elec       q    Type
REMARK                         _______ _______ _______ _____ _____    ______ ____
ROOT
ATOM      1  O   UNL     1       0.740   4.371  17.405  0.00  0.00    +0.000 OA
ATOM      2  C   UNL     1       1.946   4.382  17.588  0.00  0.00    +0.000 C 
ATOM      3  N   UNL     1       2.770   3.382  17.152  0.00  0.00    +0.000 N 
ATOM      4  C   UNL     1       4.103   3.517  17.586  0.00  0.00    +0.000 C 
ATOM      5  N   UNL     1       4.171   4.835  18.217  0.00  0.00    +0.000 N 
ATOM      6  C   UNL     1       2.795   5.482  18.284  0.00  0.00    +0.000 C 
ATOM      7  C   UNL     1       2.576   6.740  17.437  0.00  0.00    +0.000 C 
ATOM      8  C   UNL     1       2.677   8.108  18.137  0.00  0.00    +0.000 C 
ATOM      9  N   UNL     1       2.228   8.282  19.530  0.00  0.00    +0.000 NA
ATOM     10  C   UNL     1       2.348   7.041  20.335  0.00  0.00    +0.000 C 
ATOM     11  C   UNL     1       2.221   5.647  19.690  0.00  0.00    +0.000 C 
ATOM     12  H   UNL     1       2.409   2.588  16.644  0.00  0.00    +0.000 HD
ENDROOT
BRANCH   5  13
ATOM     13  C   UNL     1       5.397   5.472  18.260  0.00  0.00    +0.000 A 
ATOM     14  C   UNL     1       6.307   5.339  19.343  0.00  0.00    +0.000 A 
ATOM     15  C   UNL     1       7.622   5.826  19.285  0.00  0.00    +0.000 A 
ATOM     16  C   UNL     1       8.068   6.489  18.153  0.00  0.00    +0.000 A 
ATOM     17  C   UNL     1       7.167   6.757  17.141  0.00  0.00    +0.000 A 
ATOM     18  C   UNL     1       5.849   6.302  17.240  0.00  0.00    +0.000 A 
ENDBRANCH   5  13
BRANCH   9  19
ATOM     19  C   UNL     1       0.944   9.046  19.684  0.00  0.00    +0.000 C 
BRANCH  19  20
ATOM     20  C   UNL     1       0.371   9.045  21.103  0.00  0.00    +0.000 A 
ATOM     21  C   UNL     1      -0.810   8.537  21.616  0.00  0.00    +0.000 A 
ATOM     22  C   UNL     1      -0.985   8.835  23.003  0.00  0.00    +0.000 A 
ATOM     23  C   UNL     1       0.065   9.560  23.515  0.00  0.00    +0.000 A 
ATOM     24  S   UNL     1       1.282   9.826  22.352  0.00  0.00    +0.000 S 
ENDBRANCH  19  20
BRANCH  19  25
ATOM     25  C   UNL     1       0.859  10.442  19.047  0.00  0.00    +0.000 A 
ATOM     26  N   UNL     1       1.972  11.133  18.829  0.00  0.00    +0.000 NA
ATOM     27  N   UNL     1       1.626  12.315  18.258  0.00  0.00    +0.000 NA
ATOM     28  N   UNL     1       0.321  12.397  18.120  0.00  0.00    +0.000 NA
ATOM     29  N   UNL     1      -0.195  11.224  18.566  0.00  0.00    +0.000 N 
BRANCH  29  30
ATOM     30  C   UNL     1      -1.640  11.209  18.792  0.00  0.00    +0.000 C 
BRANCH  30  31
ATOM     31  C   UNL     1      -2.230  12.003  19.978  0.00  0.00    +0.000 A 
ATOM     32  C   UNL     1      -3.563  12.450  19.874  0.00  0.00    +0.000 A 
ATOM     33  C   UNL     1      -4.276  12.912  20.994  0.00  0.00    +0.000 A 
ATOM     34  C   UNL     1      -3.674  12.938  22.248  0.00  0.00    +0.000 A 
ATOM     35  C   UNL     1      -2.346  12.553  22.373  0.00  0.00    +0.000 A 
ATOM     36  C   UNL     1      -1.630  12.095  21.250  0.00  0.00    +0.000 A 
ENDBRANCH  30  31
ENDBRANCH  29  30
ENDBRANCH  19  25
ENDBRANCH   9  19
TORSDOF 6
ENDMDL
