MODEL 1
REMARK VINA RESULT:      -8.4      0.000      0.000
REMARK  Name = 
REMARK  5 active torsions:
REMARK  status: ('A' for Active; 'I' for Inactive)
REMARK    1  A    between atoms: C_1  and  C_2
REMARK    2  A    between atoms: C_5  and  C_6
REMARK    3  A    between atoms: C_7  and  S_8
REMARK    4  A    between atoms: S_8  and  C_11
REMARK    5  A    between atoms: C_15  and  C_16
REMARK                            x       y       z     vdW  Elec       q    Type
REMARK                         _______ _______ _______ _____ _____    ______ ____
ROOT
ATOM      1  C   UNL     1       2.870   5.534  18.051  0.00  0.00    +0.000 A 
ATOM      2  C   UNL     1       3.960   5.284  17.206  0.00  0.00    +0.000 A 
ATOM      3  S   UNL     1       4.269   3.597  17.064  0.00  0.00    +0.000 S 
ATOM      4  C   UNL     1       3.015   3.181  18.108  0.00  0.00    +0.000 A 
ATOM      5  N   UNL     1       2.798   1.884  18.414  0.00  0.00    +0.000 NA
ATOM      6  C   UNL     1       1.760   1.673  19.242  0.00  0.00    +0.000 A 
ATOM      7  C   UNL     1       0.943   2.658  19.756  0.00  0.00    +0.000 A 
ATOM      8  C   UNL     1       1.199   3.983  19.403  0.00  0.00    +0.000 A 
ATOM      9  C   UNL     1       2.299   4.282  18.558  0.00  0.00    +0.000 A 
ENDROOT
BRANCH   1  14
ATOM     10  C   UNL     1       1.059  10.839  19.612  0.00  0.00    +0.000 C 
ATOM     11  C   UNL     1       1.505   9.470  19.195  0.00  0.00    +0.000 A 
ATOM     12  C   UNL     1       1.695   9.152  17.851  0.00  0.00    +0.000 A 
ATOM     13  C   UNL     1       2.094   7.863  17.470  0.00  0.00    +0.000 A 
ATOM     14  C   UNL     1       2.395   6.884  18.420  0.00  0.00    +0.000 A 
ATOM     15  C   UNL     1       2.183   7.215  19.769  0.00  0.00    +0.000 A 
ATOM     16  C   UNL     1       1.704   8.473  20.149  0.00  0.00    +0.000 A 
ENDBRANCH   1  14
BRANCH   2  17
ATOM     17  S   UNL     1       5.134   6.274  16.256  0.00  0.00    +0.000 S 
ATOM     18  O   UNL     1       5.751   5.410  15.265  0.00  0.00    +0.000 OA
ATOM     19  O   UNL     1       4.411   7.461  15.840  0.00  0.00    +0.000 OA
BRANCH  17  20
ATOM     20  C   UNL     1       6.430   6.752  17.360  0.00  0.00    +0.000 A 
ATOM     21  C   UNL     1       6.948   5.786  18.230  0.00  0.00    +0.000 A 
ATOM     22  C   UNL     1       8.009   6.116  19.071  0.00  0.00    +0.000 A 
ATOM     23  C   UNL     1       8.552   7.403  19.037  0.00  0.00    +0.000 A 
ATOM     24  C   UNL     1       8.045   8.364  18.151  0.00  0.00    +0.000 A 
ATOM     25  C   UNL     1       6.989   8.034  17.297  0.00  0.00    +0.000 A 
BRANCH  24  26
ATOM     26  C   UNL     1       8.621   9.682  18.123  0.00  0.00    +0.000 C 
ATOM     27  N   UNL     1       9.093  10.740  18.107  0.00  0.00    +0.000 NA
ENDBRANCH  24  26
ENDBRANCH  17  20
ENDBRANCH   2  17
TORSDOF 4
ENDMDL
MODEL 2
REMARK VINA RESULT:      -8.1      3.154      6.157
REMARK  Name = 
REMARK  5 active torsions:
REMARK  status: ('A' for Active; 'I' for Inactive)
REMARK    1  A    between atoms: C_1  and  C_2
REMARK    2  A    between atoms: C_5  and  C_6
REMARK    3  A    between atoms: C_7  and  S_8
REMARK    4  A    between atoms: S_8  and  C_11
REMARK    5  A    between atoms: C_15  and  C_16
REMARK                            x       y       z     vdW  Elec       q    Type
REMARK                         _______ _______ _______ _____ _____    ______ ____
ROOT
ATOM      1  C   UNL     1       5.139   4.267  16.063  0.00  0.00    +0.000 A 
ATOM      2  C   UNL     1       6.061   5.110  16.698  0.00  0.00    +0.000 A 
ATOM      3  S   UNL     1       7.328   5.573  15.629  0.00  0.00    +0.000 S 
ATOM      4  C   UNL     1       6.708   4.672  14.349  0.00  0.00    +0.000 A 
ATOM      5  N   UNL     1       7.367   4.636  13.172  0.00  0.00    +0.000 NA
ATOM      6  C   UNL     1       6.769   3.899  12.220  0.00  0.00    +0.000 A 
ATOM      7  C   UNL     1       5.574   3.227  12.373  0.00  0.00    +0.000 A 
ATOM      8  C   UNL     1       4.922   3.303  13.603  0.00  0.00    +0.000 A 
ATOM      9  C   UNL     1       5.514   4.036  14.665  0.00  0.00    +0.000 A 
ENDROOT
BRANCH   1  14
ATOM     10  C   UNL     1       0.622   1.802  18.779  0.00  0.00    +0.000 C 
ATOM     11  C   UNL     1       1.773   2.437  18.058  0.00  0.00    +0.000 A 
ATOM     12  C   UNL     1       1.615   3.635  17.363  0.00  0.00    +0.000 A 
ATOM     13  C   UNL     1       2.692   4.211  16.675  0.00  0.00    +0.000 A 
ATOM     14  C   UNL     1       3.972   3.654  16.731  0.00  0.00    +0.000 A 
ATOM     15  C   UNL     1       4.112   2.439  17.422  0.00  0.00    +0.000 A 
ATOM     16  C   UNL     1       3.021   1.816  18.039  0.00  0.00    +0.000 A 
ENDBRANCH   1  14
BRANCH   2  17
ATOM     17  S   UNL     1       6.274   5.808  18.351  0.00  0.00    +0.000 S 
ATOM     18  O   UNL     1       7.037   4.859  19.143  0.00  0.00    +0.000 OA
ATOM     19  O   UNL     1       6.769   7.158  18.153  0.00  0.00    +0.000 OA
BRANCH  17  20
ATOM     20  C   UNL     1       4.673   5.889  19.096  0.00  0.00    +0.000 A 
ATOM     21  C   UNL     1       3.828   6.945  18.736  0.00  0.00    +0.000 A 
ATOM     22  C   UNL     1       2.538   7.004  19.261  0.00  0.00    +0.000 A 
ATOM     23  C   UNL     1       2.095   6.009  20.136  0.00  0.00    +0.000 A 
ATOM     24  C   UNL     1       2.936   4.941  20.482  0.00  0.00    +0.000 A 
ATOM     25  C   UNL     1       4.226   4.872  19.948  0.00  0.00    +0.000 A 
BRANCH  24  26
ATOM     26  C   UNL     1       2.461   3.922  21.379  0.00  0.00    +0.000 C 
ATOM     27  N   UNL     1       2.078   3.095  22.093  0.00  0.00    +0.000 NA
ENDBRANCH  24  26
ENDBRANCH  17  20
ENDBRANCH   2  17
TORSDOF 4
ENDMDL
MODEL 3
REMARK VINA RESULT:      -8.0      6.812      9.627
REMARK  Name = 
REMARK  5 active torsions:
REMARK  status: ('A' for Active; 'I' for Inactive)
REMARK    1  A    between atoms: C_1  and  C_2
REMARK    2  A    between atoms: C_5  and  C_6
REMARK    3  A    between atoms: C_7  and  S_8
REMARK    4  A    between atoms: S_8  and  C_11
REMARK    5  A    between atoms: C_15  and  C_16
REMARK                            x       y       z     vdW  Elec       q    Type
REMARK                         _______ _______ _______ _____ _____    ______ ____
ROOT
ATOM      1  C   UNL     1      -3.907  11.946  19.440  0.00  0.00    +0.000 A 
ATOM      2  C   UNL     1      -2.942  12.588  20.228  0.00  0.00    +0.000 A 
ATOM      3  S   UNL     1      -3.627  13.207  21.680  0.00  0.00    +0.000 S 
ATOM      4  C   UNL     1      -5.176  12.672  21.291  0.00  0.00    +0.000 A 
ATOM      5  N   UNL     1      -6.205  12.933  22.124  0.00  0.00    +0.000 NA
ATOM      6  C   UNL     1      -7.389  12.442  21.718  0.00  0.00    +0.000 A 
ATOM      7  C   UNL     1      -7.592  11.715  20.564  0.00  0.00    +0.000 A 
ATOM      8  C   UNL     1      -6.496  11.460  19.740  0.00  0.00    +0.000 A 
ATOM      9  C   UNL     1      -5.221  11.977  20.090  0.00  0.00    +0.000 A 
ENDROOT
BRANCH   1  14
ATOM     10  C   UNL     1      -2.901   9.760  14.143  0.00  0.00    +0.000 C 
ATOM     11  C   UNL     1      -3.165  10.299  15.516  0.00  0.00    +0.000 A 
ATOM     12  C   UNL     1      -2.431   9.859  16.618  0.00  0.00    +0.000 A 
ATOM     13  C   UNL     1      -2.698  10.356  17.900  0.00  0.00    +0.000 A 
ATOM     14  C   UNL     1      -3.643  11.364  18.108  0.00  0.00    +0.000 A 
ATOM     15  C   UNL     1      -4.384  11.786  16.992  0.00  0.00    +0.000 A 
ATOM     16  C   UNL     1      -4.180  11.232  15.724  0.00  0.00    +0.000 A 
ENDBRANCH   1  14
BRANCH   2  17
ATOM     17  S   UNL     1      -1.177  12.954  20.097  0.00  0.00    +0.000 S 
ATOM     18  O   UNL     1      -0.914  13.413  18.744  0.00  0.00    +0.000 OA
ATOM     19  O   UNL     1      -0.861  13.803  21.231  0.00  0.00    +0.000 OA
BRANCH  17  20
ATOM     20  C   UNL     1      -0.310  11.423  20.270  0.00  0.00    +0.000 A 
ATOM     21  C   UNL     1      -0.449  10.715  21.469  0.00  0.00    +0.000 A 
ATOM     22  C   UNL     1       0.174   9.476  21.613  0.00  0.00    +0.000 A 
ATOM     23  C   UNL     1       0.927   8.948  20.562  0.00  0.00    +0.000 A 
ATOM     24  C   UNL     1       1.049   9.649  19.353  0.00  0.00    +0.000 A 
ATOM     25  C   UNL     1       0.416  10.886  19.200  0.00  0.00    +0.000 A 
BRANCH  24  26
ATOM     26  C   UNL     1       1.822   9.087  18.278  0.00  0.00    +0.000 C 
ATOM     27  N   UNL     1       2.447   8.643  17.411  0.00  0.00    +0.000 NA
ENDBRANCH  24  26
ENDBRANCH  17  20
ENDBRANCH   2  17
TORSDOF 4
ENDMDL
MODEL 4
REMARK VINA RESULT:      -7.9      2.920      5.957
REMARK  Name = 
REMARK  5 active torsions:
REMARK  status: ('A' for Active; 'I' for Inactive)
REMARK    1  A    between atoms: C_1  and  C_2
REMARK    2  A    between atoms: C_5  and  C_6
REMARK    3  A    between atoms: C_7  and  S_8
REMARK    4  A    between atoms: S_8  and  C_11
REMARK    5  A    between atoms: C_15  and  C_16
REMARK                            x       y       z     vdW  Elec       q    Type
REMARK                         _______ _______ _______ _____ _____    ______ ____
ROOT
ATOM      1  C   UNL     1       2.623   6.725  18.947  0.00  0.00    +0.000 A 
ATOM      2  C   UNL     1       3.646   6.711  17.989  0.00  0.00    +0.000 A 
ATOM      3  S   UNL     1       3.762   8.222  17.172  0.00  0.00    +0.000 S 
ATOM      4  C   UNL     1       2.480   8.895  18.033  0.00  0.00    +0.000 A 
ATOM      5  N   UNL     1       2.076  10.154  17.762  0.00  0.00    +0.000 NA
ATOM      6  C   UNL     1       1.057  10.589  18.524  0.00  0.00    +0.000 A 
ATOM      7  C   UNL     1       0.447   9.859  19.522  0.00  0.00    +0.000 A 
ATOM      8  C   UNL     1       0.905   8.567  19.775  0.00  0.00    +0.000 A 
ATOM      9  C   UNL     1       1.957   8.030  18.986  0.00  0.00    +0.000 A 
ENDROOT
BRANCH   1  14
ATOM     10  C   UNL     1       1.077   2.075  22.084  0.00  0.00    +0.000 C 
ATOM     11  C   UNL     1       1.469   3.288  21.295  0.00  0.00    +0.000 A 
ATOM     12  C   UNL     1       2.419   4.187  21.779  0.00  0.00    +0.000 A 
ATOM     13  C   UNL     1       2.764   5.328  21.043  0.00  0.00    +0.000 A 
ATOM     14  C   UNL     1       2.236   5.560  19.770  0.00  0.00    +0.000 A 
ATOM     15  C   UNL     1       1.269   4.654  19.303  0.00  0.00    +0.000 A 
ATOM     16  C   UNL     1       0.859   3.559  20.071  0.00  0.00    +0.000 A 
ENDBRANCH   1  14
BRANCH   2  17
ATOM     17  S   UNL     1       4.848   5.510  17.374  0.00  0.00    +0.000 S 
ATOM     18  O   UNL     1       4.725   5.454  15.928  0.00  0.00    +0.000 OA
ATOM     19  O   UNL     1       6.115   5.865  17.986  0.00  0.00    +0.000 OA
BRANCH  17  20
ATOM     20  C   UNL     1       4.351   3.921  17.968  0.00  0.00    +0.000 A 
ATOM     21  C   UNL     1       3.463   3.171  17.188  0.00  0.00    +0.000 A 
ATOM     22  C   UNL     1       3.099   1.890  17.600  0.00  0.00    +0.000 A 
ATOM     23  C   UNL     1       3.624   1.362  18.782  0.00  0.00    +0.000 A 
ATOM     24  C   UNL     1       4.529   2.107  19.552  0.00  0.00    +0.000 A 
ATOM     25  C   UNL     1       4.906   3.387  19.137  0.00  0.00    +0.000 A 
BRANCH  24  26
ATOM     26  C   UNL     1       5.066   1.544  20.762  0.00  0.00    +0.000 C 
ATOM     27  N   UNL     1       5.505   1.087  21.731  0.00  0.00    +0.000 NA
ENDBRANCH  24  26
ENDBRANCH  17  20
ENDBRANCH   2  17
TORSDOF 4
ENDMDL
MODEL 5
REMARK VINA RESULT:      -7.8      3.063      6.139
REMARK  Name = 
REMARK  5 active torsions:
REMARK  status: ('A' for Active; 'I' for Inactive)
REMARK    1  A    between atoms: C_1  and  C_2
REMARK    2  A    between atoms: C_5  and  C_6
REMARK    3  A    between atoms: C_7  and  S_8
REMARK    4  A    between atoms: S_8  and  C_11
REMARK    5  A    between atoms: C_15  and  C_16
REMARK                            x       y       z     vdW  Elec       q    Type
REMARK                         _______ _______ _______ _____ _____    ______ ____
ROOT
ATOM      1  C   UNL     1       6.220   5.589  16.764  0.00  0.00    +0.000 A 
ATOM      2  C   UNL     1       5.114   4.953  17.345  0.00  0.00    +0.000 A 
ATOM      3  S   UNL     1       4.413   3.807  16.269  0.00  0.00    +0.000 S 
ATOM      4  C   UNL     1       5.517   4.139  15.041  0.00  0.00    +0.000 A 
ATOM      5  N   UNL     1       5.415   3.503  13.856  0.00  0.00    +0.000 NA
ATOM      6  C   UNL     1       6.360   3.837  12.960  0.00  0.00    +0.000 A 
ATOM      7  C   UNL     1       7.381   4.737  13.184  0.00  0.00    +0.000 A 
ATOM      8  C   UNL     1       7.454   5.361  14.429  0.00  0.00    +0.000 A 
ATOM      9  C   UNL     1       6.468   5.081  15.411  0.00  0.00    +0.000 A 
ENDROOT
BRANCH   1  14
ATOM     10  C   UNL     1       9.195   9.905  19.290  0.00  0.00    +0.000 C 
ATOM     11  C   UNL     1       8.451   8.781  18.635  0.00  0.00    +0.000 A 
ATOM     12  C   UNL     1       8.573   7.470  19.095  0.00  0.00    +0.000 A 
ATOM     13  C   UNL     1       7.888   6.423  18.463  0.00  0.00    +0.000 A 
ATOM     14  C   UNL     1       6.998   6.665  17.413  0.00  0.00    +0.000 A 
ATOM     15  C   UNL     1       6.898   7.988  16.951  0.00  0.00    +0.000 A 
ATOM     16  C   UNL     1       7.645   9.023  17.523  0.00  0.00    +0.000 A 
ENDBRANCH   1  14
BRANCH   2  17
ATOM     17  S   UNL     1       4.223   5.049  18.913  0.00  0.00    +0.000 S 
ATOM     18  O   UNL     1       3.252   3.970  18.944  0.00  0.00    +0.000 OA
ATOM     19  O   UNL     1       5.240   5.147  19.944  0.00  0.00    +0.000 OA
BRANCH  17  20
ATOM     20  C   UNL     1       3.285   6.548  18.892  0.00  0.00    +0.000 A 
ATOM     21  C   UNL     1       3.298   7.320  17.725  0.00  0.00    +0.000 A 
ATOM     22  C   UNL     1       2.522   8.476  17.656  0.00  0.00    +0.000 A 
ATOM     23  C   UNL     1       1.734   8.853  18.746  0.00  0.00    +0.000 A 
ATOM     24  C   UNL     1       1.706   8.067  19.908  0.00  0.00    +0.000 A 
ATOM     25  C   UNL     1       2.474   6.901  19.977  0.00  0.00    +0.000 A 
BRANCH  24  26
ATOM     26  C   UNL     1       0.883   8.466  21.018  0.00  0.00    +0.000 C 
ATOM     27  N   UNL     1       0.215   8.793  21.906  0.00  0.00    +0.000 NA
ENDBRANCH  24  26
ENDBRANCH  17  20
ENDBRANCH   2  17
TORSDOF 4
ENDMDL
MODEL 6
REMARK VINA RESULT:      -7.8      6.100      9.587
REMARK  Name = 
REMARK  5 active torsions:
REMARK  status: ('A' for Active; 'I' for Inactive)
REMARK    1  A    between atoms: C_1  and  C_2
REMARK    2  A    between atoms: C_5  and  C_6
REMARK    3  A    between atoms: C_7  and  S_8
REMARK    4  A    between atoms: S_8  and  C_11
REMARK    5  A    between atoms: C_15  and  C_16
REMARK                            x       y       z     vdW  Elec       q    Type
REMARK                         _______ _______ _______ _____ _____    ______ ____
ROOT
ATOM      1  C   UNL     1      -0.557  10.300  19.054  0.00  0.00    +0.000 A 
ATOM      2  C   UNL     1      -0.697  11.253  20.072  0.00  0.00    +0.000 A 
ATOM      3  S   UNL     1      -2.092  12.232  19.827  0.00  0.00    +0.000 S 
ATOM      4  C   UNL     1      -2.511  11.447  18.397  0.00  0.00    +0.000 A 
ATOM      5  N   UNL     1      -3.591  11.855  17.699  0.00  0.00    +0.000 NA
ATOM      6  C   UNL     1      -3.837  11.144  16.585  0.00  0.00    +0.000 A 
ATOM      7  C   UNL     1      -3.089  10.069  16.151  0.00  0.00    +0.000 A 
ATOM      8  C   UNL     1      -1.988   9.676  16.911  0.00  0.00    +0.000 A 
ATOM      9  C   UNL     1      -1.651  10.403  18.082  0.00  0.00    +0.000 A 
ENDROOT
BRANCH   1  14
ATOM     10  C   UNL     1       3.826   6.488  18.718  0.00  0.00    +0.000 C 
ATOM     11  C   UNL     1       2.714   7.489  18.800  0.00  0.00    +0.000 A 
ATOM     12  C   UNL     1       2.449   8.362  17.745  0.00  0.00    +0.000 A 
ATOM     13  C   UNL     1       1.418   9.307  17.839  0.00  0.00    +0.000 A 
ATOM     14  C   UNL     1       0.571   9.352  18.950  0.00  0.00    +0.000 A 
ATOM     15  C   UNL     1       0.860   8.477  20.011  0.00  0.00    +0.000 A 
ATOM     16  C   UNL     1       1.941   7.590  19.957  0.00  0.00    +0.000 A 
ENDBRANCH   1  14
BRANCH   2  17
ATOM     17  S   UNL     1       0.222  11.735  21.550  0.00  0.00    +0.000 S 
ATOM     18  O   UNL     1       0.484  10.535  22.326  0.00  0.00    +0.000 OA
ATOM     19  O   UNL     1       1.323  12.557  21.085  0.00  0.00    +0.000 OA
BRANCH  17  20
ATOM     20  C   UNL     1      -0.856  12.728  22.538  0.00  0.00    +0.000 A 
ATOM     21  C   UNL     1      -0.537  14.080  22.712  0.00  0.00    +0.000 A 
ATOM     22  C   UNL     1      -1.399  14.902  23.436  0.00  0.00    +0.000 A 
ATOM     23  C   UNL     1      -2.575  14.377  23.976  0.00  0.00    +0.000 A 
ATOM     24  C   UNL     1      -2.904  13.027  23.784  0.00  0.00    +0.000 A 
ATOM     25  C   UNL     1      -2.049  12.201  23.049  0.00  0.00    +0.000 A 
BRANCH  24  26
ATOM     26  C   UNL     1      -4.123  12.505  24.341  0.00  0.00    +0.000 C 
ATOM     27  N   UNL     1      -5.099  12.078  24.795  0.00  0.00    +0.000 NA
ENDBRANCH  24  26
ENDBRANCH  17  20
ENDBRANCH   2  17
TORSDOF 4
ENDMDL
MODEL 7
REMARK VINA RESULT:      -7.7      2.712      3.281
REMARK  Name = 
REMARK  5 active torsions:
REMARK  status: ('A' for Active; 'I' for Inactive)
REMARK    1  A    between atoms: C_1  and  C_2
REMARK    2  A    between atoms: C_5  and  C_6
REMARK    3  A    between atoms: C_7  and  S_8
REMARK    4  A    between atoms: S_8  and  C_11
REMARK    5  A    between atoms: C_15  and  C_16
REMARK                            x       y       z     vdW  Elec       q    Type
REMARK                         _______ _______ _______ _____ _____    ______ ____
ROOT
ATOM      1  C   UNL     1       3.186   5.559  19.381  0.00  0.00    +0.000 A 
ATOM      2  C   UNL     1       4.483   5.233  18.962  0.00  0.00    +0.000 A 
ATOM      3  S   UNL     1       4.924   3.646  19.464  0.00  0.00    +0.000 S 
ATOM      4  C   UNL     1       3.455   3.379  20.243  0.00  0.00    +0.000 A 
ATOM      5  N   UNL     1       3.242   2.217  20.893  0.00  0.00    +0.000 NA
ATOM      6  C   UNL     1       2.028   2.110  21.462  0.00  0.00    +0.000 A 
ATOM      7  C   UNL     1       1.040   3.070  21.404  0.00  0.00    +0.000 A 
ATOM      8  C   UNL     1       1.301   4.251  20.711  0.00  0.00    +0.000 A 
ATOM      9  C   UNL     1       2.575   4.445  20.114  0.00  0.00    +0.000 A 
ENDROOT
BRANCH   1  14
ATOM     10  C   UNL     1       0.687  10.756  18.612  0.00  0.00    +0.000 C 
ATOM     11  C   UNL     1       1.314   9.407  18.794  0.00  0.00    +0.000 A 
ATOM     12  C   UNL     1       1.844   8.707  17.710  0.00  0.00    +0.000 A 
ATOM     13  C   UNL     1       2.411   7.438  17.887  0.00  0.00    +0.000 A 
ATOM     14  C   UNL     1       2.543   6.870  19.157  0.00  0.00    +0.000 A 
ATOM     15  C   UNL     1       1.991   7.580  20.236  0.00  0.00    +0.000 A 
ATOM     16  C   UNL     1       1.347   8.809  20.053  0.00  0.00    +0.000 A 
ENDBRANCH   1  14
BRANCH   2  17
ATOM     17  S   UNL     1       5.814   6.058  18.061  0.00  0.00    +0.000 S 
ATOM     18  O   UNL     1       5.381   7.412  17.763  0.00  0.00    +0.000 OA
ATOM     19  O   UNL     1       7.020   5.829  18.834  0.00  0.00    +0.000 OA
BRANCH  17  20
ATOM     20  C   UNL     1       5.972   5.243  16.500  0.00  0.00    +0.000 A 
ATOM     21  C   UNL     1       5.104   4.183  16.215  0.00  0.00    +0.000 A 
ATOM     22  C   UNL     1       5.165   3.559  14.970  0.00  0.00    +0.000 A 
ATOM     23  C   UNL     1       6.086   3.997  14.015  0.00  0.00    +0.000 A 
ATOM     24  C   UNL     1       6.942   5.072  14.294  0.00  0.00    +0.000 A 
ATOM     25  C   UNL     1       6.876   5.708  15.537  0.00  0.00    +0.000 A 
BRANCH  24  26
ATOM     26  C   UNL     1       7.878   5.515  13.296  0.00  0.00    +0.000 C 
ATOM     27  N   UNL     1       8.626   5.879  12.490  0.00  0.00    +0.000 NA
ENDBRANCH  24  26
ENDBRANCH  17  20
ENDBRANCH   2  17
TORSDOF 4
ENDMDL
MODEL 8
REMARK VINA RESULT:      -7.6      8.152     10.861
REMARK  Name = 
REMARK  5 active torsions:
REMARK  status: ('A' for Active; 'I' for Inactive)
REMARK    1  A    between atoms: C_1  and  C_2
REMARK    2  A    between atoms: C_5  and  C_6
REMARK    3  A    between atoms: C_7  and  S_8
REMARK    4  A    between atoms: S_8  and  C_11
REMARK    5  A    between atoms: C_15  and  C_16
REMARK                            x       y       z     vdW  Elec       q    Type
REMARK                         _______ _______ _______ _____ _____    ______ ____
ROOT
ATOM      1  C   UNL     1      -2.347  12.259  19.834  0.00  0.00    +0.000 A 
ATOM      2  C   UNL     1      -1.221  11.765  20.506  0.00  0.00    +0.000 A 
ATOM      3  S   UNL     1      -0.472  10.490  19.623  0.00  0.00    +0.000 S 
ATOM      4  C   UNL     1      -1.608  10.554  18.381  0.00  0.00    +0.000 A 
ATOM      5  N   UNL     1      -1.527   9.685  17.352  0.00  0.00    +0.000 NA
ATOM      6  C   UNL     1      -2.476   9.842  16.413  0.00  0.00    +0.000 A 
ATOM      7  C   UNL     1      -3.467  10.801  16.441  0.00  0.00    +0.000 A 
ATOM      8  C   UNL     1      -3.505  11.685  17.519  0.00  0.00    +0.000 A 
ATOM      9  C   UNL     1      -2.552  11.555  18.564  0.00  0.00    +0.000 A 
ENDROOT
BRANCH   1  14
ATOM     10  C   UNL     1      -5.912  16.328  21.976  0.00  0.00    +0.000 C 
ATOM     11  C   UNL     1      -4.989  15.295  21.404  0.00  0.00    +0.000 A 
ATOM     12  C   UNL     1      -3.662  15.601  21.103  0.00  0.00    +0.000 A 
ATOM     13  C   UNL     1      -2.812  14.633  20.551  0.00  0.00    +0.000 A 
ATOM     14  C   UNL     1      -3.236  13.315  20.362  0.00  0.00    +0.000 A 
ATOM     15  C   UNL     1      -4.579  13.026  20.656  0.00  0.00    +0.000 A 
ATOM     16  C   UNL     1      -5.455  14.010  21.127  0.00  0.00    +0.000 A 
ENDBRANCH   1  14
BRANCH   2  17
ATOM     17  S   UNL     1      -0.375  12.101  22.066  0.00  0.00    +0.000 S 
ATOM     18  O   UNL     1      -0.056  10.827  22.687  0.00  0.00    +0.000 OA
ATOM     19  O   UNL     1       0.681  13.045  21.752  0.00  0.00    +0.000 OA
BRANCH  17  20
ATOM     20  C   UNL     1      -1.543  12.885  23.137  0.00  0.00    +0.000 A 
ATOM     21  C   UNL     1      -1.231  14.152  23.644  0.00  0.00    +0.000 A 
ATOM     22  C   UNL     1      -2.157  14.821  24.442  0.00  0.00    +0.000 A 
ATOM     23  C   UNL     1      -3.389  14.228  24.727  0.00  0.00    +0.000 A 
ATOM     24  C   UNL     1      -3.709  12.968  24.202  0.00  0.00    +0.000 A 
ATOM     25  C   UNL     1      -2.789  12.298  23.391  0.00  0.00    +0.000 A 
BRANCH  24  26
ATOM     26  C   UNL     1      -4.986  12.376  24.499  0.00  0.00    +0.000 C 
ATOM     27  N   UNL     1      -6.018  11.908  24.738  0.00  0.00    +0.000 NA
ENDBRANCH  24  26
ENDBRANCH  17  20
ENDBRANCH   2  17
TORSDOF 4
ENDMDL
MODEL 9
REMARK VINA RESULT:      -7.5      8.228     10.876
REMARK  Name = 
REMARK  5 active torsions:
REMARK  status: ('A' for Active; 'I' for Inactive)
REMARK    1  A    between atoms: C_1  and  C_2
REMARK    2  A    between atoms: C_5  and  C_6
REMARK    3  A    between atoms: C_7  and  S_8
REMARK    4  A    between atoms: S_8  and  C_11
REMARK    5  A    between atoms: C_15  and  C_16
REMARK                            x       y       z     vdW  Elec       q    Type
REMARK                         _______ _______ _______ _____ _____    ______ ____
ROOT
ATOM      1  C   UNL     1      -2.555  12.219  19.914  0.00  0.00    +0.000 A 
ATOM      2  C   UNL     1      -1.394  11.818  20.591  0.00  0.00    +0.000 A 
ATOM      3  S   UNL     1      -0.502  10.663  19.678  0.00  0.00    +0.000 S 
ATOM      4  C   UNL     1      -1.617  10.656  18.416  0.00  0.00    +0.000 A 
ATOM      5  N   UNL     1      -1.427   9.841  17.357  0.00  0.00    +0.000 NA
ATOM      6  C   UNL     1      -2.372   9.934  16.405  0.00  0.00    +0.000 A 
ATOM      7  C   UNL     1      -3.457  10.784  16.447  0.00  0.00    +0.000 A 
ATOM      8  C   UNL     1      -3.606  11.616  17.556  0.00  0.00    +0.000 A 
ATOM      9  C   UNL     1      -2.663  11.547  18.615  0.00  0.00    +0.000 A 
ENDROOT
BRANCH   1  14
ATOM     10  C   UNL     1      -6.556  15.811  22.136  0.00  0.00    +0.000 C 
ATOM     11  C   UNL     1      -5.523  14.900  21.543  0.00  0.00    +0.000 A 
ATOM     12  C   UNL     1      -4.260  15.375  21.192  0.00  0.00    +0.000 A 
ATOM     13  C   UNL     1      -3.308  14.520  20.620  0.00  0.00    +0.000 A 
ATOM     14  C   UNL     1      -3.558  13.155  20.462  0.00  0.00    +0.000 A 
ATOM     15  C   UNL     1      -4.840  12.695  20.805  0.00  0.00    +0.000 A 
ATOM     16  C   UNL     1      -5.823  13.561  21.297  0.00  0.00    +0.000 A 
ENDBRANCH   1  14
BRANCH   2  17
ATOM     17  S   UNL     1      -0.615  12.180  22.180  0.00  0.00    +0.000 S 
ATOM     18  O   UNL     1      -0.252  10.917  22.799  0.00  0.00    +0.000 OA
ATOM     19  O   UNL     1       0.401  13.179  21.908  0.00  0.00    +0.000 OA
BRANCH  17  20
ATOM     20  C   UNL     1      -1.854  12.894  23.220  0.00  0.00    +0.000 A 
ATOM     21  C   UNL     1      -2.938  12.095  23.603  0.00  0.00    +0.000 A 
ATOM     22  C   UNL     1      -3.900  12.610  24.470  0.00  0.00    +0.000 A 
ATOM     23  C   UNL     1      -3.775  13.914  24.955  0.00  0.00    +0.000 A 
ATOM     24  C   UNL     1      -2.679  14.707  24.586  0.00  0.00    +0.000 A 
ATOM     25  C   UNL     1      -1.705  14.191  23.727  0.00  0.00    +0.000 A 
BRANCH  24  26
ATOM     26  C   UNL     1      -2.562  16.045  25.101  0.00  0.00    +0.000 C 
ATOM     27  N   UNL     1      -2.475  17.120  25.522  0.00  0.00    +0.000 NA
ENDBRANCH  24  26
ENDBRANCH  17  20
ENDBRANCH   2  17
TORSDOF 4
ENDMDL
