MODEL 1
REMARK VINA RESULT:      -8.3      0.000      0.000
REMARK  Name = 
REMARK  4 active torsions:
REMARK  status: ('A' for Active; 'I' for Inactive)
REMARK    1  A    between atoms: C_8  and  C_9
REMARK    2  A    between atoms: C_9  and  N_10
REMARK    3  A    between atoms: N_10  and  N_11
REMARK    4  A    between atoms: N_10  and  C_13
REMARK                            x       y       z     vdW  Elec       q    Type
REMARK                         _______ _______ _______ _____ _____    ______ ____
ROOT
ATOM      1  N   UNL     1       5.210   2.831  19.323  0.00  0.00    +0.000 N 
ATOM      2  C   UNL     1       4.813   4.083  18.895  0.00  0.00    +0.000 A 
ATOM      3  N   UNL     1       5.280   4.520  17.723  0.00  0.00    +0.000 NA
ATOM      4  C   UNL     1       4.792   5.676  17.262  0.00  0.00    +0.000 A 
ATOM      5  N   UNL     1       5.199   6.000  15.963  0.00  0.00    +0.000 N 
ATOM      6  C   UNL     1       3.832   6.424  17.955  0.00  0.00    +0.000 A 
ATOM      7  C   UNL     1       3.296   7.668  17.537  0.00  0.00    +0.000 A 
ATOM      8  C   UNL     1       2.326   8.331  18.305  0.00  0.00    +0.000 A 
ATOM      9  C   UNL     1       1.849   7.704  19.457  0.00  0.00    +0.000 A 
ATOM     10  C   UNL     1       2.385   6.478  19.862  0.00  0.00    +0.000 A 
ATOM     11  C   UNL     1       3.390   5.843  19.143  0.00  0.00    +0.000 A 
ATOM     12  N   UNL     1       3.867   4.688  19.610  0.00  0.00    +0.000 NA
ATOM     13  H   UNL     1       5.393   2.257  18.498  0.00  0.00    +0.000 HD
ATOM     14  H   UNL     1       4.482   2.457  19.918  0.00  0.00    +0.000 HD
ATOM     15  H   UNL     1       5.937   5.344  15.711  0.00  0.00    +0.000 HD
ATOM     16  H   UNL     1       5.497   6.962  15.870  0.00  0.00    +0.000 HD
ENDROOT
BRANCH   8  17
ATOM     17  C   UNL     1       1.851   9.723  17.932  0.00  0.00    +0.000 C 
BRANCH  17  18
ATOM     18  N   UNL     1       0.451  10.006  18.315  0.00  0.00    +0.000 N 
BRANCH  18  19
ATOM     19  C   UNL     1       0.318  11.097  19.258  0.00  0.00    +0.000 A 
ATOM     20  C   UNL     1       0.443  12.433  18.819  0.00  0.00    +0.000 A 
ATOM     21  C   UNL     1       0.135  13.502  19.652  0.00  0.00    +0.000 A 
ATOM     22  C   UNL     1      -0.326  13.268  20.943  0.00  0.00    +0.000 A 
ATOM     23 CL   UNL     1      -0.754  14.673  21.868  0.00  0.00    +0.000 Cl
ATOM     24  C   UNL     1      -0.438  11.956  21.456  0.00  0.00    +0.000 A 
ATOM     25  C   UNL     1      -0.908  11.691  22.765  0.00  0.00    +0.000 A 
ATOM     26  C   UNL     1      -0.984  10.397  23.276  0.00  0.00    +0.000 A 
ATOM     27  C   UNL     1      -0.564   9.333  22.499  0.00  0.00    +0.000 A 
ATOM     28  C   UNL     1      -0.110   9.563  21.201  0.00  0.00    +0.000 A 
ATOM     29  C   UNL     1      -0.072  10.858  20.622  0.00  0.00    +0.000 A 
ENDBRANCH  18  19
BRANCH  18  30
ATOM     30  N   UNL     1      -0.602   9.812  17.465  0.00  0.00    +0.000 NA
ATOM     31  O   UNL     1      -1.697   9.847  18.040  0.00  0.00    +0.000 OA
ENDBRANCH  18  30
ENDBRANCH  17  18
ENDBRANCH   8  17
TORSDOF 4
ENDMDL
MODEL 2
REMARK VINA RESULT:      -8.2      2.174      2.967
REMARK  Name = 
REMARK  4 active torsions:
REMARK  status: ('A' for Active; 'I' for Inactive)
REMARK    1  A    between atoms: C_8  and  C_9
REMARK    2  A    between atoms: C_9  and  N_10
REMARK    3  A    between atoms: N_10  and  N_11
REMARK    4  A    between atoms: N_10  and  C_13
REMARK                            x       y       z     vdW  Elec       q    Type
REMARK                         _______ _______ _______ _____ _____    ______ ____
ROOT
ATOM      1  N   UNL     1       3.787   0.965  18.451  0.00  0.00    +0.000 N 
ATOM      2  C   UNL     1       3.678   2.340  18.541  0.00  0.00    +0.000 A 
ATOM      3  N   UNL     1       4.267   3.077  17.597  0.00  0.00    +0.000 NA
ATOM      4  C   UNL     1       4.051   4.396  17.626  0.00  0.00    +0.000 A 
ATOM      5  N   UNL     1       4.562   5.091  16.524  0.00  0.00    +0.000 N 
ATOM      6  C   UNL     1       3.247   5.012  18.593  0.00  0.00    +0.000 A 
ATOM      7  C   UNL     1       3.001   6.403  18.698  0.00  0.00    +0.000 A 
ATOM      8  C   UNL     1       2.167   6.916  19.704  0.00  0.00    +0.000 A 
ATOM      9  C   UNL     1       1.529   6.017  20.559  0.00  0.00    +0.000 A 
ATOM     10  C   UNL     1       1.779   4.646  20.449  0.00  0.00    +0.000 A 
ATOM     11  C   UNL     1       2.651   4.132  19.498  0.00  0.00    +0.000 A 
ATOM     12  N   UNL     1       2.857   2.815  19.475  0.00  0.00    +0.000 NA
ATOM     13  H   UNL     1       3.873   0.719  17.463  0.00  0.00    +0.000 HD
ATOM     14  H   UNL     1       2.977   0.556  18.897  0.00  0.00    +0.000 HD
ATOM     15  H   UNL     1       5.153   4.440  16.010  0.00  0.00    +0.000 HD
ATOM     16  H   UNL     1       5.060   5.933  16.783  0.00  0.00    +0.000 HD
ENDROOT
BRANCH   8  17
ATOM     17  C   UNL     1       2.010   8.413  19.901  0.00  0.00    +0.000 C 
BRANCH  17  18
ATOM     18  N   UNL     1       1.209   9.079  18.852  0.00  0.00    +0.000 N 
BRANCH  18  19
ATOM     19  C   UNL     1       0.171   9.942  19.376  0.00  0.00    +0.000 A 
ATOM     20  C   UNL     1       0.334  10.566  20.633  0.00  0.00    +0.000 A 
ATOM     21  C   UNL     1      -0.548  11.542  21.077  0.00  0.00    +0.000 A 
ATOM     22  C   UNL     1      -1.612  11.939  20.272  0.00  0.00    +0.000 A 
ATOM     23 CL   UNL     1      -2.604  13.219  20.894  0.00  0.00    +0.000 Cl
ATOM     24  C   UNL     1      -1.853  11.328  19.021  0.00  0.00    +0.000 A 
ATOM     25  C   UNL     1      -2.925  11.716  18.182  0.00  0.00    +0.000 A 
ATOM     26  C   UNL     1      -3.177  11.087  16.965  0.00  0.00    +0.000 A 
ATOM     27  C   UNL     1      -2.378  10.030  16.567  0.00  0.00    +0.000 A 
ATOM     28  C   UNL     1      -1.306   9.636  17.367  0.00  0.00    +0.000 A 
ATOM     29  C   UNL     1      -0.979  10.288  18.584  0.00  0.00    +0.000 A 
ENDBRANCH  18  19
BRANCH  18  30
ATOM     30  N   UNL     1       1.727   9.430  17.636  0.00  0.00    +0.000 NA
ATOM     31  O   UNL     1       2.374  10.483  17.675  0.00  0.00    +0.000 OA
ENDBRANCH  18  30
ENDBRANCH  17  18
ENDBRANCH   8  17
TORSDOF 4
ENDMDL
MODEL 3
REMARK VINA RESULT:      -8.2      2.412      3.590
REMARK  Name = 
REMARK  4 active torsions:
REMARK  status: ('A' for Active; 'I' for Inactive)
REMARK    1  A    between atoms: C_8  and  C_9
REMARK    2  A    between atoms: C_9  and  N_10
REMARK    3  A    between atoms: N_10  and  N_11
REMARK    4  A    between atoms: N_10  and  C_13
REMARK                            x       y       z     vdW  Elec       q    Type
REMARK                         _______ _______ _______ _____ _____    ______ ____
ROOT
ATOM      1  N   UNL     1       3.439   1.146  18.213  0.00  0.00    +0.000 N 
ATOM      2  C   UNL     1       3.000   2.344  18.744  0.00  0.00    +0.000 A 
ATOM      3  N   UNL     1       2.621   2.359  20.023  0.00  0.00    +0.000 NA
ATOM      4  C   UNL     1       2.317   3.546  20.559  0.00  0.00    +0.000 A 
ATOM      5  N   UNL     1       2.082   3.516  21.938  0.00  0.00    +0.000 N 
ATOM      6  C   UNL     1       2.383   4.743  19.835  0.00  0.00    +0.000 A 
ATOM      7  C   UNL     1       2.049   6.027  20.333  0.00  0.00    +0.000 A 
ATOM      8  C   UNL     1       2.161   7.168  19.522  0.00  0.00    +0.000 A 
ATOM      9  C   UNL     1       2.676   7.018  18.234  0.00  0.00    +0.000 A 
ATOM     10  C   UNL     1       3.002   5.747  17.751  0.00  0.00    +0.000 A 
ATOM     11  C   UNL     1       2.835   4.604  18.523  0.00  0.00    +0.000 A 
ATOM     12  N   UNL     1       3.144   3.425  17.981  0.00  0.00    +0.000 NA
ATOM     13  H   UNL     1       3.853   0.597  18.969  0.00  0.00    +0.000 HD
ATOM     14  H   UNL     1       4.088   1.353  17.465  0.00  0.00    +0.000 HD
ATOM     15  H   UNL     1       2.026   2.535  22.209  0.00  0.00    +0.000 HD
ATOM     16  H   UNL     1       1.257   4.034  22.210  0.00  0.00    +0.000 HD
ENDROOT
BRANCH   8  17
ATOM     17  C   UNL     1       1.676   8.522  20.007  0.00  0.00    +0.000 C 
BRANCH  17  18
ATOM     18  N   UNL     1       1.092   9.370  18.945  0.00  0.00    +0.000 N 
BRANCH  18  19
ATOM     19  C   UNL     1      -0.032  10.165  19.392  0.00  0.00    +0.000 A 
ATOM     20  C   UNL     1       0.023  10.838  20.631  0.00  0.00    +0.000 A 
ATOM     21  C   UNL     1      -0.952  11.756  21.002  0.00  0.00    +0.000 A 
ATOM     22  C   UNL     1      -2.003  12.044  20.137  0.00  0.00    +0.000 A 
ATOM     23 CL   UNL     1      -3.119  13.262  20.668  0.00  0.00    +0.000 Cl
ATOM     24  C   UNL     1      -2.136  11.377  18.898  0.00  0.00    +0.000 A 
ATOM     25  C   UNL     1      -3.194  11.654  17.998  0.00  0.00    +0.000 A 
ATOM     26  C   UNL     1      -3.339  10.969  16.794  0.00  0.00    +0.000 A 
ATOM     27  C   UNL     1      -2.444   9.966  16.469  0.00  0.00    +0.000 A 
ATOM     28  C   UNL     1      -1.384   9.682  17.330  0.00  0.00    +0.000 A 
ATOM     29  C   UNL     1      -1.166  10.396  18.537  0.00  0.00    +0.000 A 
ENDBRANCH  18  19
BRANCH  18  30
ATOM     30  N   UNL     1       1.836   9.896  17.926  0.00  0.00    +0.000 NA
ATOM     31  O   UNL     1       2.312  11.004  18.201  0.00  0.00    +0.000 OA
ENDBRANCH  18  30
ENDBRANCH  17  18
ENDBRANCH   8  17
TORSDOF 4
ENDMDL
MODEL 4
REMARK VINA RESULT:      -8.0      1.425      2.217
REMARK  Name = 
REMARK  4 active torsions:
REMARK  status: ('A' for Active; 'I' for Inactive)
REMARK    1  A    between atoms: C_8  and  C_9
REMARK    2  A    between atoms: C_9  and  N_10
REMARK    3  A    between atoms: N_10  and  N_11
REMARK    4  A    between atoms: N_10  and  C_13
REMARK                            x       y       z     vdW  Elec       q    Type
REMARK                         _______ _______ _______ _____ _____    ______ ____
ROOT
ATOM      1  N   UNL     1       3.402   1.340  18.342  0.00  0.00    +0.000 N 
ATOM      2  C   UNL     1       3.033   2.670  18.400  0.00  0.00    +0.000 A 
ATOM      3  N   UNL     1       2.083   3.018  19.270  0.00  0.00    +0.000 NA
ATOM      4  C   UNL     1       1.822   4.322  19.404  0.00  0.00    +0.000 A 
ATOM      5  N   UNL     1       0.934   4.633  20.440  0.00  0.00    +0.000 N 
ATOM      6  C   UNL     1       2.499   5.309  18.677  0.00  0.00    +0.000 A 
ATOM      7  C   UNL     1       2.253   6.703  18.750  0.00  0.00    +0.000 A 
ATOM      8  C   UNL     1       2.999   7.610  17.981  0.00  0.00    +0.000 A 
ATOM      9  C   UNL     1       4.038   7.114  17.193  0.00  0.00    +0.000 A 
ATOM     10  C   UNL     1       4.273   5.737  17.126  0.00  0.00    +0.000 A 
ATOM     11  C   UNL     1       3.500   4.825  17.833  0.00  0.00    +0.000 A 
ATOM     12  N   UNL     1       3.769   3.526  17.695  0.00  0.00    +0.000 NA
ATOM     13  H   UNL     1       3.255   0.930  19.266  0.00  0.00    +0.000 HD
ATOM     14  H   UNL     1       4.364   1.294  18.031  0.00  0.00    +0.000 HD
ATOM     15  H   UNL     1       0.537   3.752  20.765  0.00  0.00    +0.000 HD
ATOM     16  H   UNL     1       0.219   5.293  20.164  0.00  0.00    +0.000 HD
ENDROOT
BRANCH   8  17
ATOM     17  C   UNL     1       2.649   9.086  17.955  0.00  0.00    +0.000 C 
BRANCH  17  18
ATOM     18  N   UNL     1       1.241   9.379  18.301  0.00  0.00    +0.000 N 
BRANCH  18  19
ATOM     19  C   UNL     1       1.091  10.463  19.249  0.00  0.00    +0.000 A 
ATOM     20  C   UNL     1       1.388  11.789  18.863  0.00  0.00    +0.000 A 
ATOM     21  C   UNL     1       1.076  12.869  19.680  0.00  0.00    +0.000 A 
ATOM     22  C   UNL     1       0.441  12.659  20.900  0.00  0.00    +0.000 A 
ATOM     23 CL   UNL     1       0.030  14.083  21.802  0.00  0.00    +0.000 Cl
ATOM     24  C   UNL     1       0.151  11.355  21.361  0.00  0.00    +0.000 A 
ATOM     25  C   UNL     1      -0.498  11.115  22.597  0.00  0.00    +0.000 A 
ATOM     26  C   UNL     1      -0.751   9.827  23.062  0.00  0.00    +0.000 A 
ATOM     27  C   UNL     1      -0.335   8.740  22.314  0.00  0.00    +0.000 A 
ATOM     28  C   UNL     1       0.293   8.947  21.086  0.00  0.00    +0.000 A 
ATOM     29  C   UNL     1       0.517  10.241  20.549  0.00  0.00    +0.000 A 
ENDBRANCH  18  19
BRANCH  18  30
ATOM     30  N   UNL     1       0.210   9.201  17.421  0.00  0.00    +0.000 NA
ATOM     31  O   UNL     1      -0.819   9.798  17.758  0.00  0.00    +0.000 OA
ENDBRANCH  18  30
ENDBRANCH  17  18
ENDBRANCH   8  17
TORSDOF 4
ENDMDL
MODEL 5
REMARK VINA RESULT:      -7.9      3.165      4.293
REMARK  Name = 
REMARK  4 active torsions:
REMARK  status: ('A' for Active; 'I' for Inactive)
REMARK    1  A    between atoms: C_8  and  C_9
REMARK    2  A    between atoms: C_9  and  N_10
REMARK    3  A    between atoms: N_10  and  N_11
REMARK    4  A    between atoms: N_10  and  C_13
REMARK                            x       y       z     vdW  Elec       q    Type
REMARK                         _______ _______ _______ _____ _____    ______ ____
ROOT
ATOM      1  N   UNL     1       5.111   5.417  17.185  0.00  0.00    +0.000 N 
ATOM      2  C   UNL     1       4.091   6.040  17.879  0.00  0.00    +0.000 A 
ATOM      3  N   UNL     1       3.676   5.480  19.017  0.00  0.00    +0.000 NA
ATOM      4  C   UNL     1       2.778   6.155  19.741  0.00  0.00    +0.000 A 
ATOM      5  N   UNL     1       2.503   5.595  20.993  0.00  0.00    +0.000 N 
ATOM      6  C   UNL     1       2.271   7.400  19.350  0.00  0.00    +0.000 A 
ATOM      7  C   UNL     1       1.298   8.154  20.054  0.00  0.00    +0.000 A 
ATOM      8  C   UNL     1       0.866   9.401  19.576  0.00  0.00    +0.000 A 
ATOM      9  C   UNL     1       1.466   9.916  18.427  0.00  0.00    +0.000 A 
ATOM     10  C   UNL     1       2.423   9.165  17.738  0.00  0.00    +0.000 A 
ATOM     11  C   UNL     1       2.813   7.902  18.166  0.00  0.00    +0.000 A 
ATOM     12  N   UNL     1       3.713   7.238  17.439  0.00  0.00    +0.000 NA
ATOM     13  H   UNL     1       5.697   4.923  17.860  0.00  0.00    +0.000 HD
ATOM     14  H   UNL     1       5.610   6.123  16.660  0.00  0.00    +0.000 HD
ATOM     15  H   UNL     1       2.936   4.672  21.008  0.00  0.00    +0.000 HD
ATOM     16  H   UNL     1       1.513   5.553  21.200  0.00  0.00    +0.000 HD
ENDROOT
BRANCH   8  17
ATOM     17  C   UNL     1      -0.270  10.146  20.253  0.00  0.00    +0.000 C 
BRANCH  17  18
ATOM     18  N   UNL     1      -0.616  11.432  19.611  0.00  0.00    +0.000 N 
BRANCH  18  19
ATOM     19  C   UNL     1      -2.035  11.601  19.379  0.00  0.00    +0.000 A 
ATOM     20  C   UNL     1      -2.831  12.286  20.322  0.00  0.00    +0.000 A 
ATOM     21  C   UNL     1      -4.148  12.631  20.045  0.00  0.00    +0.000 A 
ATOM     22  C   UNL     1      -4.705  12.318  18.809  0.00  0.00    +0.000 A 
ATOM     23 CL   UNL     1      -6.330  12.864  18.543  0.00  0.00    +0.000 Cl
ATOM     24  C   UNL     1      -3.973  11.600  17.836  0.00  0.00    +0.000 A 
ATOM     25  C   UNL     1      -4.516  11.273  16.569  0.00  0.00    +0.000 A 
ATOM     26  C   UNL     1      -3.801  10.537  15.627  0.00  0.00    +0.000 A 
ATOM     27  C   UNL     1      -2.533  10.082  15.937  0.00  0.00    +0.000 A 
ATOM     28  C   UNL     1      -1.968  10.402  17.172  0.00  0.00    +0.000 A 
ATOM     29  C   UNL     1      -2.638  11.199  18.136  0.00  0.00    +0.000 A 
ENDBRANCH  18  19
BRANCH  18  30
ATOM     30  N   UNL     1       0.102  12.578  19.816  0.00  0.00    +0.000 NA
ATOM     31  O   UNL     1       0.179  13.285  18.805  0.00  0.00    +0.000 OA
ENDBRANCH  18  30
ENDBRANCH  17  18
ENDBRANCH   8  17
TORSDOF 4
ENDMDL
MODEL 6
REMARK VINA RESULT:      -7.8      2.157      2.987
REMARK  Name = 
REMARK  4 active torsions:
REMARK  status: ('A' for Active; 'I' for Inactive)
REMARK    1  A    between atoms: C_8  and  C_9
REMARK    2  A    between atoms: C_9  and  N_10
REMARK    3  A    between atoms: N_10  and  N_11
REMARK    4  A    between atoms: N_10  and  C_13
REMARK                            x       y       z     vdW  Elec       q    Type
REMARK                         _______ _______ _______ _____ _____    ______ ____
ROOT
ATOM      1  N   UNL     1       6.078   2.883  15.618  0.00  0.00    +0.000 N 
ATOM      2  C   UNL     1       5.578   3.969  16.309  0.00  0.00    +0.000 A 
ATOM      3  N   UNL     1       6.312   5.084  16.338  0.00  0.00    +0.000 NA
ATOM      4  C   UNL     1       5.763   6.165  16.902  0.00  0.00    +0.000 A 
ATOM      5  N   UNL     1       6.514   7.337  16.760  0.00  0.00    +0.000 N 
ATOM      6  C   UNL     1       4.475   6.162  17.452  0.00  0.00    +0.000 A 
ATOM      7  C   UNL     1       3.848   7.261  18.089  0.00  0.00    +0.000 A 
ATOM      8  C   UNL     1       2.544   7.153  18.598  0.00  0.00    +0.000 A 
ATOM      9  C   UNL     1       1.852   5.957  18.401  0.00  0.00    +0.000 A 
ATOM     10  C   UNL     1       2.480   4.878  17.773  0.00  0.00    +0.000 A 
ATOM     11  C   UNL     1       3.791   4.952  17.322  0.00  0.00    +0.000 A 
ATOM     12  N   UNL     1       4.329   3.870  16.757  0.00  0.00    +0.000 NA
ATOM     13  H   UNL     1       6.668   3.233  14.860  0.00  0.00    +0.000 HD
ATOM     14  H   UNL     1       5.296   2.329  15.294  0.00  0.00    +0.000 HD
ATOM     15  H   UNL     1       7.425   7.064  16.392  0.00  0.00    +0.000 HD
ATOM     16  H   UNL     1       6.594   7.862  17.621  0.00  0.00    +0.000 HD
ENDROOT
BRANCH   8  17
ATOM     17  C   UNL     1       1.921   8.282  19.398  0.00  0.00    +0.000 C 
BRANCH  17  18
ATOM     18  N   UNL     1       1.213   9.286  18.575  0.00  0.00    +0.000 N 
BRANCH  18  19
ATOM     19  C   UNL     1       0.214  10.036  19.309  0.00  0.00    +0.000 A 
ATOM     20  C   UNL     1       0.498  10.513  20.607  0.00  0.00    +0.000 A 
ATOM     21  C   UNL     1      -0.358  11.392  21.259  0.00  0.00    +0.000 A 
ATOM     22  C   UNL     1      -1.515  11.835  20.627  0.00  0.00    +0.000 A 
ATOM     23 CL   UNL     1      -2.470  12.990  21.502  0.00  0.00    +0.000 Cl
ATOM     24  C   UNL     1      -1.875  11.366  19.343  0.00  0.00    +0.000 A 
ATOM     25  C   UNL     1      -3.045  11.806  18.676  0.00  0.00    +0.000 A 
ATOM     26  C   UNL     1      -3.412  11.314  17.426  0.00  0.00    +0.000 A 
ATOM     27  C   UNL     1      -2.632  10.347  16.818  0.00  0.00    +0.000 A 
ATOM     28  C   UNL     1      -1.466   9.907  17.446  0.00  0.00    +0.000 A 
ATOM     29  C   UNL     1      -1.026  10.424  18.692  0.00  0.00    +0.000 A 
ENDBRANCH  18  19
BRANCH  18  30
ATOM     30  N   UNL     1       1.805   9.934  17.527  0.00  0.00    +0.000 NA
ATOM     31  O   UNL     1       2.584  10.823  17.890  0.00  0.00    +0.000 OA
ENDBRANCH  18  30
ENDBRANCH  17  18
ENDBRANCH   8  17
TORSDOF 4
ENDMDL
MODEL 7
REMARK VINA RESULT:      -7.7      0.932      1.161
REMARK  Name = 
REMARK  4 active torsions:
REMARK  status: ('A' for Active; 'I' for Inactive)
REMARK    1  A    between atoms: C_8  and  C_9
REMARK    2  A    between atoms: C_9  and  N_10
REMARK    3  A    between atoms: N_10  and  N_11
REMARK    4  A    between atoms: N_10  and  C_13
REMARK                            x       y       z     vdW  Elec       q    Type
REMARK                         _______ _______ _______ _____ _____    ______ ____
ROOT
ATOM      1  N   UNL     1       5.153   2.628  19.540  0.00  0.00    +0.000 N 
ATOM      2  C   UNL     1       4.775   3.872  19.074  0.00  0.00    +0.000 A 
ATOM      3  N   UNL     1       5.235   4.260  17.883  0.00  0.00    +0.000 NA
ATOM      4  C   UNL     1       4.764   5.409  17.388  0.00  0.00    +0.000 A 
ATOM      5  N   UNL     1       5.160   5.680  16.074  0.00  0.00    +0.000 N 
ATOM      6  C   UNL     1       3.827   6.198  18.066  0.00  0.00    +0.000 A 
ATOM      7  C   UNL     1       3.309   7.438  17.613  0.00  0.00    +0.000 A 
ATOM      8  C   UNL     1       2.362   8.145  18.369  0.00  0.00    +0.000 A 
ATOM      9  C   UNL     1       1.888   7.567  19.547  0.00  0.00    +0.000 A 
ATOM     10  C   UNL     1       2.405   6.345  19.987  0.00  0.00    +0.000 A 
ATOM     11  C   UNL     1       3.389   5.666  19.279  0.00  0.00    +0.000 A 
ATOM     12  N   UNL     1       3.850   4.519  19.779  0.00  0.00    +0.000 NA
ATOM     13  H   UNL     1       5.316   2.023  18.733  0.00  0.00    +0.000 HD
ATOM     14  H   UNL     1       4.427   2.288  20.156  0.00  0.00    +0.000 HD
ATOM     15  H   UNL     1       5.882   5.002  15.835  0.00  0.00    +0.000 HD
ATOM     16  H   UNL     1       5.476   6.633  15.944  0.00  0.00    +0.000 HD
ENDROOT
BRANCH   8  17
ATOM     17  C   UNL     1       1.908   9.532  17.954  0.00  0.00    +0.000 C 
BRANCH  17  18
ATOM     18  N   UNL     1       0.764  10.052  18.733  0.00  0.00    +0.000 N 
BRANCH  18  19
ATOM     19  C   UNL     1       1.017  11.340  19.345  0.00  0.00    +0.000 A 
ATOM     20  C   UNL     1       1.813  12.297  18.679  0.00  0.00    +0.000 A 
ATOM     21  C   UNL     1       1.918  13.602  19.145  0.00  0.00    +0.000 A 
ATOM     22  C   UNL     1       1.216  13.996  20.280  0.00  0.00    +0.000 A 
ATOM     23 CL   UNL     1       1.360  15.667  20.726  0.00  0.00    +0.000 Cl
ATOM     24  C   UNL     1       0.432  13.077  21.013  0.00  0.00    +0.000 A 
ATOM     25  C   UNL     1      -0.295  13.453  22.168  0.00  0.00    +0.000 A 
ATOM     26  C   UNL     1      -1.039  12.535  22.906  0.00  0.00    +0.000 A 
ATOM     27  C   UNL     1      -1.053  11.206  22.522  0.00  0.00    +0.000 A 
ATOM     28  C   UNL     1      -0.358  10.810  21.379  0.00  0.00    +0.000 A 
ATOM     29  C   UNL     1       0.363  11.724  20.568  0.00  0.00    +0.000 A 
ENDBRANCH  18  19
BRANCH  18  30
ATOM     30  N   UNL     1      -0.536   9.785  18.405  0.00  0.00    +0.000 NA
ATOM     31  O   UNL     1      -0.962  10.509  17.498  0.00  0.00    +0.000 OA
ENDBRANCH  18  30
ENDBRANCH  17  18
ENDBRANCH   8  17
TORSDOF 4
ENDMDL
MODEL 8
REMARK VINA RESULT:      -7.6      2.605      3.507
REMARK  Name = 
REMARK  4 active torsions:
REMARK  status: ('A' for Active; 'I' for Inactive)
REMARK    1  A    between atoms: C_8  and  C_9
REMARK    2  A    between atoms: C_9  and  N_10
REMARK    3  A    between atoms: N_10  and  N_11
REMARK    4  A    between atoms: N_10  and  C_13
REMARK                            x       y       z     vdW  Elec       q    Type
REMARK                         _______ _______ _______ _____ _____    ______ ____
ROOT
ATOM      1  N   UNL     1       4.934   3.593  17.522  0.00  0.00    +0.000 N 
ATOM      2  C   UNL     1       4.081   4.482  18.147  0.00  0.00    +0.000 A 
ATOM      3  N   UNL     1       3.634   4.169  19.365  0.00  0.00    +0.000 NA
ATOM      4  C   UNL     1       2.911   5.091  20.008  0.00  0.00    +0.000 A 
ATOM      5  N   UNL     1       2.607   4.768  21.335  0.00  0.00    +0.000 N 
ATOM      6  C   UNL     1       2.615   6.344  19.455  0.00  0.00    +0.000 A 
ATOM      7  C   UNL     1       1.832   7.353  20.070  0.00  0.00    +0.000 A 
ATOM      8  C   UNL     1       1.604   8.581  19.429  0.00  0.00    +0.000 A 
ATOM      9  C   UNL     1       2.225   8.814  18.201  0.00  0.00    +0.000 A 
ATOM     10  C   UNL     1       2.994   7.812  17.602  0.00  0.00    +0.000 A 
ATOM     11  C   UNL     1       3.174   6.570  18.197  0.00  0.00    +0.000 A 
ATOM     12  N   UNL     1       3.900   5.657  17.549  0.00  0.00    +0.000 NA
ATOM     13  H   UNL     1       5.458   3.096  18.245  0.00  0.00    +0.000 HD
ATOM     14  H   UNL     1       5.523   4.115  16.887  0.00  0.00    +0.000 HD
ATOM     15  H   UNL     1       2.870   3.793  21.471  0.00  0.00    +0.000 HD
ATOM     16  H   UNL     1       1.639   4.939  21.573  0.00  0.00    +0.000 HD
ENDROOT
BRANCH   8  17
ATOM     17  C   UNL     1       0.658   9.608  20.022  0.00  0.00    +0.000 C 
BRANCH  17  18
ATOM     18  N   UNL     1       0.514  10.836  19.211  0.00  0.00    +0.000 N 
BRANCH  18  19
ATOM     19  C   UNL     1      -0.830  11.049  18.716  0.00  0.00    +0.000 A 
ATOM     20  C   UNL     1      -1.287  10.347  17.580  0.00  0.00    +0.000 A 
ATOM     21  C   UNL     1      -2.621  10.383  17.194  0.00  0.00    +0.000 A 
ATOM     22  C   UNL     1      -3.543  11.107  17.942  0.00  0.00    +0.000 A 
ATOM     23 CL   UNL     1      -5.194  11.019  17.413  0.00  0.00    +0.000 Cl
ATOM     24  C   UNL     1      -3.144  11.862  19.068  0.00  0.00    +0.000 A 
ATOM     25  C   UNL     1      -4.064  12.604  19.848  0.00  0.00    +0.000 A 
ATOM     26  C   UNL     1      -3.659  13.373  20.937  0.00  0.00    +0.000 A 
ATOM     27  C   UNL     1      -2.315  13.443  21.258  0.00  0.00    +0.000 A 
ATOM     28  C   UNL     1      -1.389  12.711  20.515  0.00  0.00    +0.000 A 
ATOM     29  C   UNL     1      -1.766  11.870  19.437  0.00  0.00    +0.000 A 
ENDBRANCH  18  19
BRANCH  18  30
ATOM     30  N   UNL     1       1.261  11.960  19.432  0.00  0.00    +0.000 NA
ATOM     31  O   UNL     1       1.865  12.342  18.422  0.00  0.00    +0.000 OA
ENDBRANCH  18  30
ENDBRANCH  17  18
ENDBRANCH   8  17
TORSDOF 4
ENDMDL
MODEL 9
REMARK VINA RESULT:      -7.6      3.794      7.979
REMARK  Name = 
REMARK  4 active torsions:
REMARK  status: ('A' for Active; 'I' for Inactive)
REMARK    1  A    between atoms: C_8  and  C_9
REMARK    2  A    between atoms: C_9  and  N_10
REMARK    3  A    between atoms: N_10  and  N_11
REMARK    4  A    between atoms: N_10  and  C_13
REMARK                            x       y       z     vdW  Elec       q    Type
REMARK                         _______ _______ _______ _____ _____    ______ ____
ROOT
ATOM      1  N   UNL     1      -5.505  12.576  18.181  0.00  0.00    +0.000 N 
ATOM      2  C   UNL     1      -4.327  11.857  18.113  0.00  0.00    +0.000 A 
ATOM      3  N   UNL     1      -4.093  11.145  17.009  0.00  0.00    +0.000 NA
ATOM      4  C   UNL     1      -2.898  10.555  16.902  0.00  0.00    +0.000 A 
ATOM      5  N   UNL     1      -2.655   9.958  15.660  0.00  0.00    +0.000 N 
ATOM      6  C   UNL     1      -1.911  10.658  17.890  0.00  0.00    +0.000 A 
ATOM      7  C   UNL     1      -0.638  10.036  17.853  0.00  0.00    +0.000 A 
ATOM      8  C   UNL     1       0.285  10.215  18.896  0.00  0.00    +0.000 A 
ATOM      9  C   UNL     1      -0.054  11.077  19.940  0.00  0.00    +0.000 A 
ATOM     10  C   UNL     1      -1.312  11.685  19.969  0.00  0.00    +0.000 A 
ATOM     11  C   UNL     1      -2.257  11.465  18.975  0.00  0.00    +0.000 A 
ATOM     12  N   UNL     1      -3.445  12.061  19.088  0.00  0.00    +0.000 NA
ATOM     13  H   UNL     1      -5.773  12.837  17.230  0.00  0.00    +0.000 HD
ATOM     14  H   UNL     1      -5.353  13.372  18.787  0.00  0.00    +0.000 HD
ATOM     15  H   UNL     1      -3.538   9.959  15.152  0.00  0.00    +0.000 HD
ATOM     16  H   UNL     1      -2.261   9.030  15.737  0.00  0.00    +0.000 HD
ENDROOT
BRANCH   8  17
ATOM     17  C   UNL     1       1.592   9.445  18.925  0.00  0.00    +0.000 C 
BRANCH  17  18
ATOM     18  N   UNL     1       1.494   8.114  19.562  0.00  0.00    +0.000 N 
BRANCH  18  19
ATOM     19  C   UNL     1       2.372   7.124  18.972  0.00  0.00    +0.000 A 
ATOM     20  C   UNL     1       3.265   7.492  17.943  0.00  0.00    +0.000 A 
ATOM     21  C   UNL     1       4.247   6.619  17.490  0.00  0.00    +0.000 A 
ATOM     22  C   UNL     1       4.379   5.359  18.065  0.00  0.00    +0.000 A 
ATOM     23 CL   UNL     1       5.688   4.383  17.476  0.00  0.00    +0.000 Cl
ATOM     24  C   UNL     1       3.493   4.916  19.073  0.00  0.00    +0.000 A 
ATOM     25  C   UNL     1       3.608   3.641  19.677  0.00  0.00    +0.000 A 
ATOM     26  C   UNL     1       2.711   3.197  20.646  0.00  0.00    +0.000 A 
ATOM     27  C   UNL     1       1.655   4.009  21.018  0.00  0.00    +0.000 A 
ATOM     28  C   UNL     1       1.526   5.277  20.450  0.00  0.00    +0.000 A 
ATOM     29  C   UNL     1       2.451   5.789  19.504  0.00  0.00    +0.000 A 
ENDBRANCH  18  19
BRANCH  18  30
ATOM     30  N   UNL     1       1.201   7.947  20.887  0.00  0.00    +0.000 NA
ATOM     31  O   UNL     1       1.852   8.699  21.621  0.00  0.00    +0.000 OA
ENDBRANCH  18  30
ENDBRANCH  17  18
ENDBRANCH   8  17
TORSDOF 4
ENDMDL
