MODEL 1
REMARK VINA RESULT:      -8.9      0.000      0.000
REMARK  Name = 
REMARK  4 active torsions:
REMARK  status: ('A' for Active; 'I' for Inactive)
REMARK    1  A    between atoms: C_1  and  C_2
REMARK    2  A    between atoms: C_2  and  C_3
REMARK    3  A    between atoms: C_3  and  O_4
REMARK    4  A    between atoms: C_22  and  N_23
REMARK                            x       y       z     vdW  Elec       q    Type
REMARK                         _______ _______ _______ _____ _____    ______ ____
ROOT
ATOM      1  C   UNL     1       5.615   5.546  16.649  0.00  0.00    +0.000 C 
ATOM      2  C   UNL     1       5.185   4.342  15.757  0.00  0.00    +0.000 C 
ATOM      3  O   UNL     1       5.509   4.211  14.579  0.00  0.00    +0.000 OA
ATOM      4  O   UNL     1       4.611   3.314  16.449  0.00  0.00    +0.000 OA
ATOM      5  C   UNL     1       3.525   3.630  17.315  0.00  0.00    +0.000 C 
ATOM      6  C   UNL     1       3.621   4.964  17.970  0.00  0.00    +0.000 A 
ATOM      7  C   UNL     1       4.406   5.967  17.542  0.00  0.00    +0.000 A 
ATOM      8  C   UNL     1       3.713   7.339  17.638  0.00  0.00    +0.000 A 
ATOM      9  C   UNL     1       2.748   7.563  18.582  0.00  0.00    +0.000 A 
ATOM     10  N   UNL     1       2.562   6.513  19.452  0.00  0.00    +0.000 N 
ATOM     11  C   UNL     1       2.821   5.190  19.192  0.00  0.00    +0.000 A 
ATOM     12  O   UNL     1       2.515   4.249  19.918  0.00  0.00    +0.000 OA
ATOM     13  C   UNL     1       1.978   6.903  20.717  0.00  0.00    +0.000 C 
ATOM     14  C   UNL     1       1.448   8.239  20.389  0.00  0.00    +0.000 A 
ATOM     15  C   UNL     1       0.648   8.973  21.235  0.00  0.00    +0.000 A 
ATOM     16  C   UNL     1       0.004  10.079  20.729  0.00  0.00    +0.000 A 
ATOM     17  C   UNL     1      -0.790  10.803  21.635  0.00  0.00    +0.000 A 
ATOM     18  C   UNL     1      -1.594  11.839  21.204  0.00  0.00    +0.000 A 
ATOM     19  C   UNL     1      -1.675  12.104  19.845  0.00  0.00    +0.000 A 
ATOM     20  C   UNL     1      -0.790  11.415  18.953  0.00  0.00    +0.000 A 
ATOM     21  C   UNL     1       0.128  10.387  19.347  0.00  0.00    +0.000 A 
ATOM     22  N   UNL     1       1.062   9.675  18.531  0.00  0.00    +0.000 NA
ATOM     23  C   UNL     1       1.762   8.644  19.098  0.00  0.00    +0.000 A 
ENDROOT
BRANCH  19  24
ATOM     24  N   UNL     1      -2.471  13.198  19.440  0.00  0.00    +0.000 N 
ATOM     25  H   UNL     1      -2.198  14.080  19.882  0.00  0.00    +0.000 HD
ATOM     26  H   UNL     1      -3.465  13.034  19.524  0.00  0.00    +0.000 HD
ENDBRANCH  19  24
BRANCH   1  28
ATOM     27  C   UNL     1       7.650   5.625  18.539  0.00  0.00    +0.000 C 
ATOM     28  C   UNL     1       7.002   5.011  17.279  0.00  0.00    +0.000 C 
ENDBRANCH   1  28
BRANCH   1  29
ATOM     29  O   UNL     1       5.974   6.717  15.908  0.00  0.00    +0.000 OA
ATOM     30  H   UNL     1       6.699   7.167  16.377  0.00  0.00    +0.000 HD
ENDBRANCH   1  29
TORSDOF 3
ENDMDL
MODEL 2
REMARK VINA RESULT:      -8.7      2.047      3.672
REMARK  Name = 
REMARK  4 active torsions:
REMARK  status: ('A' for Active; 'I' for Inactive)
REMARK    1  A    between atoms: C_1  and  C_2
REMARK    2  A    between atoms: C_2  and  C_3
REMARK    3  A    between atoms: C_3  and  O_4
REMARK    4  A    between atoms: C_22  and  N_23
REMARK                            x       y       z     vdW  Elec       q    Type
REMARK                         _______ _______ _______ _____ _____    ______ ____
ROOT
ATOM      1  C   UNL     1       3.041   2.995  19.976  0.00  0.00    +0.000 C 
ATOM      2  C   UNL     1       4.516   2.681  20.370  0.00  0.00    +0.000 C 
ATOM      3  O   UNL     1       4.839   1.858  21.224  0.00  0.00    +0.000 OA
ATOM      4  O   UNL     1       5.444   3.221  19.526  0.00  0.00    +0.000 OA
ATOM      5  C   UNL     1       5.349   4.616  19.251  0.00  0.00    +0.000 C 
ATOM      6  C   UNL     1       3.959   5.149  19.217  0.00  0.00    +0.000 A 
ATOM      7  C   UNL     1       2.895   4.534  19.760  0.00  0.00    +0.000 A 
ATOM      8  C   UNL     1       1.941   5.517  20.463  0.00  0.00    +0.000 A 
ATOM      9  C   UNL     1       1.857   6.818  20.045  0.00  0.00    +0.000 A 
ATOM     10  N   UNL     1       2.600   7.094  18.921  0.00  0.00    +0.000 N 
ATOM     11  C   UNL     1       3.728   6.427  18.512  0.00  0.00    +0.000 A 
ATOM     12  O   UNL     1       4.465   6.772  17.593  0.00  0.00    +0.000 OA
ATOM     13  C   UNL     1       2.129   8.245  18.181  0.00  0.00    +0.000 C 
ATOM     14  C   UNL     1       1.263   8.895  19.181  0.00  0.00    +0.000 A 
ATOM     15  C   UNL     1       0.696  10.137  19.010  0.00  0.00    +0.000 A 
ATOM     16  C   UNL     1       0.127  10.752  20.102  0.00  0.00    +0.000 A 
ATOM     17  C   UNL     1      -0.452  12.012  19.873  0.00  0.00    +0.000 A 
ATOM     18  C   UNL     1      -0.917  12.780  20.921  0.00  0.00    +0.000 A 
ATOM     19  C   UNL     1      -0.730  12.328  22.218  0.00  0.00    +0.000 A 
ATOM     20  C   UNL     1      -0.224  11.004  22.422  0.00  0.00    +0.000 A 
ATOM     21  C   UNL     1       0.202  10.123  21.374  0.00  0.00    +0.000 A 
ATOM     22  N   UNL     1       0.689   8.782  21.488  0.00  0.00    +0.000 NA
ATOM     23  C   UNL     1       1.153   8.165  20.358  0.00  0.00    +0.000 A 
ENDROOT
BRANCH  19  24
ATOM     24  N   UNL     1      -1.258  13.115  23.266  0.00  0.00    +0.000 N 
ATOM     25  H   UNL     1      -2.231  13.393  23.110  0.00  0.00    +0.000 HD
ATOM     26  H   UNL     1      -0.682  13.909  23.511  0.00  0.00    +0.000 HD
ENDBRANCH  19  24
BRANCH   1  28
ATOM     27  C   UNL     1       2.629   2.343  17.307  0.00  0.00    +0.000 C 
ATOM     28  C   UNL     1       2.783   1.933  18.788  0.00  0.00    +0.000 C 
ENDBRANCH   1  28
BRANCH   1  29
ATOM     29  O   UNL     1       2.086   2.655  20.989  0.00  0.00    +0.000 OA
ATOM     30  H   UNL     1       1.352   2.172  20.569  0.00  0.00    +0.000 HD
ENDBRANCH   1  29
TORSDOF 3
ENDMDL
MODEL 3
REMARK VINA RESULT:      -8.4      3.919      8.445
REMARK  Name = 
REMARK  4 active torsions:
REMARK  status: ('A' for Active; 'I' for Inactive)
REMARK    1  A    between atoms: C_1  and  C_2
REMARK    2  A    between atoms: C_2  and  C_3
REMARK    3  A    between atoms: C_3  and  O_4
REMARK    4  A    between atoms: C_22  and  N_23
REMARK                            x       y       z     vdW  Elec       q    Type
REMARK                         _______ _______ _______ _____ _____    ______ ____
ROOT
ATOM      1  C   UNL     1      -1.218  12.219  18.856  0.00  0.00    +0.000 C 
ATOM      2  C   UNL     1      -0.788  13.557  19.530  0.00  0.00    +0.000 C 
ATOM      3  O   UNL     1      -0.851  14.654  18.981  0.00  0.00    +0.000 OA
ATOM      4  O   UNL     1      -0.554  13.453  20.872  0.00  0.00    +0.000 OA
ATOM      5  C   UNL     1       0.342  12.434  21.305  0.00  0.00    +0.000 C 
ATOM      6  C   UNL     1       0.307  11.188  20.490  0.00  0.00    +0.000 A 
ATOM      7  C   UNL     1      -0.194  11.107  19.246  0.00  0.00    +0.000 A 
ATOM      8  C   UNL     1       0.663  10.222  18.322  0.00  0.00    +0.000 A 
ATOM      9  C   UNL     1       1.410   9.199  18.841  0.00  0.00    +0.000 A 
ATOM     10  N   UNL     1       1.228   9.002  20.190  0.00  0.00    +0.000 N 
ATOM     11  C   UNL     1       0.832   9.950  21.102  0.00  0.00    +0.000 A 
ATOM     12  O   UNL     1       0.815   9.802  22.319  0.00  0.00    +0.000 OA
ATOM     13  C   UNL     1       1.561   7.665  20.632  0.00  0.00    +0.000 C 
ATOM     14  C   UNL     1       2.352   7.173  19.489  0.00  0.00    +0.000 A 
ATOM     15  C   UNL     1       3.042   5.983  19.492  0.00  0.00    +0.000 A 
ATOM     16  C   UNL     1       3.949   5.750  18.483  0.00  0.00    +0.000 A 
ATOM     17  C   UNL     1       4.617   4.514  18.523  0.00  0.00    +0.000 A 
ATOM     18  C   UNL     1       5.650   4.238  17.649  0.00  0.00    +0.000 A 
ATOM     19  C   UNL     1       6.078   5.232  16.782  0.00  0.00    +0.000 A 
ATOM     20  C   UNL     1       5.324   6.446  16.696  0.00  0.00    +0.000 A 
ATOM     21  C   UNL     1       4.192   6.763  17.517  0.00  0.00    +0.000 A 
ATOM     22  N   UNL     1       3.370   7.934  17.476  0.00  0.00    +0.000 NA
ATOM     23  C   UNL     1       2.408   8.082  18.439  0.00  0.00    +0.000 A 
ENDROOT
BRANCH  19  24
ATOM     24  N   UNL     1       7.106   4.903  15.870  0.00  0.00    +0.000 N 
ATOM     25  H   UNL     1       7.687   4.120  16.183  0.00  0.00    +0.000 HD
ATOM     26  H   UNL     1       7.670   5.693  15.587  0.00  0.00    +0.000 HD
ENDBRANCH  19  24
BRANCH   1  28
ATOM     27  C   UNL     1      -3.865  11.565  18.324  0.00  0.00    +0.000 C 
ATOM     28  C   UNL     1      -2.778  12.131  19.263  0.00  0.00    +0.000 C 
ENDBRANCH   1  28
BRANCH   1  29
ATOM     29  O   UNL     1      -1.212  12.264  17.424  0.00  0.00    +0.000 OA
ATOM     30  H   UNL     1      -1.510  11.400  17.089  0.00  0.00    +0.000 HD
ENDBRANCH   1  29
TORSDOF 3
ENDMDL
MODEL 4
REMARK VINA RESULT:      -8.4      1.152      1.282
REMARK  Name = 
REMARK  4 active torsions:
REMARK  status: ('A' for Active; 'I' for Inactive)
REMARK    1  A    between atoms: C_1  and  C_2
REMARK    2  A    between atoms: C_2  and  C_3
REMARK    3  A    between atoms: C_3  and  O_4
REMARK    4  A    between atoms: C_22  and  N_23
REMARK                            x       y       z     vdW  Elec       q    Type
REMARK                         _______ _______ _______ _____ _____    ______ ____
ROOT
ATOM      1  C   UNL     1       5.550   5.843  16.697  0.00  0.00    +0.000 C 
ATOM      2  C   UNL     1       5.366   4.330  16.373  0.00  0.00    +0.000 C 
ATOM      3  O   UNL     1       5.653   3.820  15.292  0.00  0.00    +0.000 OA
ATOM      4  O   UNL     1       5.079   3.558  17.463  0.00  0.00    +0.000 OA
ATOM      5  C   UNL     1       3.993   3.967  18.289  0.00  0.00    +0.000 C 
ATOM      6  C   UNL     1       3.811   5.441  18.393  0.00  0.00    +0.000 A 
ATOM      7  C   UNL     1       4.321   6.333  17.527  0.00  0.00    +0.000 A 
ATOM      8  C   UNL     1       3.336   7.472  17.206  0.00  0.00    +0.000 A 
ATOM      9  C   UNL     1       2.393   7.851  18.122  0.00  0.00    +0.000 A 
ATOM     10  N   UNL     1       2.497   7.203  19.332  0.00  0.00    +0.000 N 
ATOM     11  C   UNL     1       3.042   5.961  19.542  0.00  0.00    +0.000 A 
ATOM     12  O   UNL     1       2.996   5.333  20.595  0.00  0.00    +0.000 OA
ATOM     13  C   UNL     1       1.901   7.930  20.432  0.00  0.00    +0.000 C 
ATOM     14  C   UNL     1       1.062   8.905  19.713  0.00  0.00    +0.000 A 
ATOM     15  C   UNL     1       0.157   9.738  20.330  0.00  0.00    +0.000 A 
ATOM     16  C   UNL     1      -0.749  10.415  19.545  0.00  0.00    +0.000 A 
ATOM     17  C   UNL     1      -1.643  11.263  20.221  0.00  0.00    +0.000 A 
ATOM     18  C   UNL     1      -2.685  11.874  19.552  0.00  0.00    +0.000 A 
ATOM     19  C   UNL     1      -2.890  11.572  18.214  0.00  0.00    +0.000 A 
ATOM     20  C   UNL     1      -1.915  10.780  17.527  0.00  0.00    +0.000 A 
ATOM     21  C   UNL     1      -0.767  10.183  18.143  0.00  0.00    +0.000 A 
ATOM     22  N   UNL     1       0.265   9.407  17.527  0.00  0.00    +0.000 NA
ATOM     23  C   UNL     1       1.211   8.833  18.333  0.00  0.00    +0.000 A 
ENDROOT
BRANCH  19  24
ATOM     24  N   UNL     1      -3.937  12.248  17.547  0.00  0.00    +0.000 N 
ATOM     25  H   UNL     1      -4.745  11.649  17.356  0.00  0.00    +0.000 HD
ATOM     26  H   UNL     1      -3.640  12.744  16.717  0.00  0.00    +0.000 HD
ENDBRANCH  19  24
BRANCH   1  28
ATOM     27  C   UNL     1       7.684   7.131  17.924  0.00  0.00    +0.000 C 
ATOM     28  C   UNL     1       7.052   5.874  17.288  0.00  0.00    +0.000 C 
ENDBRANCH   1  28
BRANCH   1  29
ATOM     29  O   UNL     1       5.592   6.684  15.538  0.00  0.00    +0.000 OA
ATOM     30  H   UNL     1       6.405   6.482  15.042  0.00  0.00    +0.000 HD
ENDBRANCH   1  29
TORSDOF 3
ENDMDL
MODEL 5
REMARK VINA RESULT:      -8.0      3.790      8.725
REMARK  Name = 
REMARK  4 active torsions:
REMARK  status: ('A' for Active; 'I' for Inactive)
REMARK    1  A    between atoms: C_1  and  C_2
REMARK    2  A    between atoms: C_2  and  C_3
REMARK    3  A    between atoms: C_3  and  O_4
REMARK    4  A    between atoms: C_22  and  N_23
REMARK                            x       y       z     vdW  Elec       q    Type
REMARK                         _______ _______ _______ _____ _____    ______ ____
ROOT
ATOM      1  C   UNL     1      -0.849  11.912  22.242  0.00  0.00    +0.000 C 
ATOM      2  C   UNL     1      -2.391  12.038  22.060  0.00  0.00    +0.000 C 
ATOM      3  O   UNL     1      -3.196  12.014  22.989  0.00  0.00    +0.000 OA
ATOM      4  O   UNL     1      -2.775  12.415  20.805  0.00  0.00    +0.000 OA
ATOM      5  C   UNL     1      -2.263  11.665  19.708  0.00  0.00    +0.000 C 
ATOM      6  C   UNL     1      -0.882  11.142  19.903  0.00  0.00    +0.000 A 
ATOM      7  C   UNL     1      -0.280  11.015  21.097  0.00  0.00    +0.000 A 
ATOM      8  C   UNL     1       0.533   9.712  21.211  0.00  0.00    +0.000 A 
ATOM      9  C   UNL     1       1.069   9.130  20.093  0.00  0.00    +0.000 A 
ATOM     10  N   UNL     1       0.896   9.865  18.943  0.00  0.00    +0.000 N 
ATOM     11  C   UNL     1      -0.112  10.765  18.700  0.00  0.00    +0.000 A 
ATOM     12  O   UNL     1      -0.341  11.303  17.621  0.00  0.00    +0.000 OA
ATOM     13  C   UNL     1       1.866   9.566  17.912  0.00  0.00    +0.000 C 
ATOM     14  C   UNL     1       2.409   8.282  18.391  0.00  0.00    +0.000 A 
ATOM     15  C   UNL     1       3.269   7.495  17.661  0.00  0.00    +0.000 A 
ATOM     16  C   UNL     1       3.505   6.209  18.092  0.00  0.00    +0.000 A 
ATOM     17  C   UNL     1       4.401   5.451  17.320  0.00  0.00    +0.000 A 
ATOM     18  C   UNL     1       4.595   4.108  17.575  0.00  0.00    +0.000 A 
ATOM     19  C   UNL     1       3.829   3.493  18.553  0.00  0.00    +0.000 A 
ATOM     20  C   UNL     1       2.992   4.304  19.386  0.00  0.00    +0.000 A 
ATOM     21  C   UNL     1       2.807   5.717  19.228  0.00  0.00    +0.000 A 
ATOM     22  N   UNL     1       2.018   6.601  20.029  0.00  0.00    +0.000 NA
ATOM     23  C   UNL     1       1.890   7.901  19.623  0.00  0.00    +0.000 A 
ENDROOT
BRANCH  19  24
ATOM     24  N   UNL     1       4.084   2.129  18.820  0.00  0.00    +0.000 N 
ATOM     25  H   UNL     1       3.797   1.842  19.760  0.00  0.00    +0.000 HD
ATOM     26  H   UNL     1       5.033   1.844  18.620  0.00  0.00    +0.000 HD
ENDBRANCH  19  24
BRANCH   1  28
ATOM     27  C   UNL     1       0.734  14.107  21.615  0.00  0.00    +0.000 C 
ATOM     28  C   UNL     1      -0.410  13.455  22.421  0.00  0.00    +0.000 C 
ENDBRANCH   1  28
BRANCH   1  29
ATOM     29  O   UNL     1      -0.459  11.273  23.462  0.00  0.00    +0.000 OA
ATOM     30  H   UNL     1      -0.668  11.870  24.202  0.00  0.00    +0.000 HD
ENDBRANCH   1  29
TORSDOF 3
ENDMDL
MODEL 6
REMARK VINA RESULT:      -7.6      4.211      8.891
REMARK  Name = 
REMARK  4 active torsions:
REMARK  status: ('A' for Active; 'I' for Inactive)
REMARK    1  A    between atoms: C_1  and  C_2
REMARK    2  A    between atoms: C_2  and  C_3
REMARK    3  A    between atoms: C_3  and  O_4
REMARK    4  A    between atoms: C_22  and  N_23
REMARK                            x       y       z     vdW  Elec       q    Type
REMARK                         _______ _______ _______ _____ _____    ______ ____
ROOT
ATOM      1  C   UNL     1      -2.435  12.643  20.282  0.00  0.00    +0.000 C 
ATOM      2  C   UNL     1      -2.012  13.969  20.984  0.00  0.00    +0.000 C 
ATOM      3  O   UNL     1      -2.215  15.088  20.517  0.00  0.00    +0.000 OA
ATOM      4  O   UNL     1      -1.605  13.809  22.278  0.00  0.00    +0.000 OA
ATOM      5  C   UNL     1      -0.598  12.834  22.533  0.00  0.00    +0.000 C 
ATOM      6  C   UNL     1      -0.653  11.636  21.651  0.00  0.00    +0.000 A 
ATOM      7  C   UNL     1      -1.300  11.589  20.474  0.00  0.00    +0.000 A 
ATOM      8  C   UNL     1      -0.510  10.820  19.398  0.00  0.00    +0.000 A 
ATOM      9  C   UNL     1       0.362   9.827  19.757  0.00  0.00    +0.000 A 
ATOM     10  N   UNL     1       0.363   9.543  21.103  0.00  0.00    +0.000 N 
ATOM     11  C   UNL     1       0.024  10.408  22.114  0.00  0.00    +0.000 A 
ATOM     12  O   UNL     1       0.169  10.192  23.313  0.00  0.00    +0.000 OA
ATOM     13  C   UNL     1       0.835   8.211  21.415  0.00  0.00    +0.000 C 
ATOM     14  C   UNL     1       1.508   7.842  20.156  0.00  0.00    +0.000 A 
ATOM     15  C   UNL     1       2.269   6.707  19.999  0.00  0.00    +0.000 A 
ATOM     16  C   UNL     1       3.055   6.596  18.875  0.00  0.00    +0.000 A 
ATOM     17  C   UNL     1       3.802   5.412  18.755  0.00  0.00    +0.000 A 
ATOM     18  C   UNL     1       4.733   5.260  17.746  0.00  0.00    +0.000 A 
ATOM     19  C   UNL     1       4.983   6.328  16.899  0.00  0.00    +0.000 A 
ATOM     20  C   UNL     1       4.147   7.488  16.983  0.00  0.00    +0.000 A 
ATOM     21  C   UNL     1       3.108   7.676  17.953  0.00  0.00    +0.000 A 
ATOM     22  N   UNL     1       2.213   8.784  18.087  0.00  0.00    +0.000 NA
ATOM     23  C   UNL     1       1.372   8.809  19.167  0.00  0.00    +0.000 A 
ENDROOT
BRANCH  19  24
ATOM     24  N   UNL     1       5.908   6.126  15.850  0.00  0.00    +0.000 N 
ATOM     25  H   UNL     1       5.824   6.817  15.099  0.00  0.00    +0.000 HD
ATOM     26  H   UNL     1       5.913   5.183  15.485  0.00  0.00    +0.000 HD
ENDBRANCH  19  24
BRANCH   1  28
ATOM     27  C   UNL     1      -5.196  12.922  20.156  0.00  0.00    +0.000 C 
ATOM     28  C   UNL     1      -3.922  12.419  20.869  0.00  0.00    +0.000 C 
ENDBRANCH   1  28
BRANCH   1  29
ATOM     29  O   UNL     1      -2.611  12.767  18.866  0.00  0.00    +0.000 OA
ATOM     30  H   UNL     1      -2.494  11.888  18.464  0.00  0.00    +0.000 HD
ENDBRANCH   1  29
TORSDOF 3
ENDMDL
MODEL 7
REMARK VINA RESULT:      -7.6      4.214      9.112
REMARK  Name = 
REMARK  4 active torsions:
REMARK  status: ('A' for Active; 'I' for Inactive)
REMARK    1  A    between atoms: C_1  and  C_2
REMARK    2  A    between atoms: C_2  and  C_3
REMARK    3  A    between atoms: C_3  and  O_4
REMARK    4  A    between atoms: C_22  and  N_23
REMARK                            x       y       z     vdW  Elec       q    Type
REMARK                         _______ _______ _______ _____ _____    ______ ____
ROOT
ATOM      1  C   UNL     1      -1.670  12.978  22.205  0.00  0.00    +0.000 C 
ATOM      2  C   UNL     1      -3.227  12.927  22.169  0.00  0.00    +0.000 C 
ATOM      3  O   UNL     1      -3.938  12.960  23.172  0.00  0.00    +0.000 OA
ATOM      4  O   UNL     1      -3.761  13.080  20.921  0.00  0.00    +0.000 OA
ATOM      5  C   UNL     1      -3.269  12.232  19.888  0.00  0.00    +0.000 C 
ATOM      6  C   UNL     1      -1.827  11.878  20.008  0.00  0.00    +0.000 A 
ATOM      7  C   UNL     1      -1.110  11.984  21.139  0.00  0.00    +0.000 A 
ATOM      8  C   UNL     1      -0.151  10.796  21.342  0.00  0.00    +0.000 A 
ATOM      9  C   UNL     1       0.343  10.113  20.264  0.00  0.00    +0.000 A 
ATOM     10  N   UNL     1      -0.012  10.653  19.049  0.00  0.00    +0.000 N 
ATOM     11  C   UNL     1      -1.130  11.407  18.793  0.00  0.00    +0.000 A 
ATOM     12  O   UNL     1      -1.513  11.758  17.681  0.00  0.00    +0.000 OA
ATOM     13  C   UNL     1       0.890  10.303  17.972  0.00  0.00    +0.000 C 
ATOM     14  C   UNL     1       1.612   9.161  18.562  0.00  0.00    +0.000 A 
ATOM     15  C   UNL     1       2.485   8.364  17.859  0.00  0.00    +0.000 A 
ATOM     16  C   UNL     1       2.898   7.182  18.433  0.00  0.00    +0.000 A 
ATOM     17  C   UNL     1       3.800   6.410  17.681  0.00  0.00    +0.000 A 
ATOM     18  C   UNL     1       4.163   5.143  18.092  0.00  0.00    +0.000 A 
ATOM     19  C   UNL     1       3.560   4.606  19.219  0.00  0.00    +0.000 A 
ATOM     20  C   UNL     1       2.716   5.444  20.017  0.00  0.00    +0.000 A 
ATOM     21  C   UNL     1       2.363   6.795  19.691  0.00  0.00    +0.000 A 
ATOM     22  N   UNL     1       1.556   7.705  20.443  0.00  0.00    +0.000 NA
ATOM     23  C   UNL     1       1.250   8.914  19.880  0.00  0.00    +0.000 A 
ENDROOT
BRANCH  19  24
ATOM     24  N   UNL     1       3.986   3.326  19.640  0.00  0.00    +0.000 N 
ATOM     25  H   UNL     1       3.271   2.603  19.518  0.00  0.00    +0.000 HD
ATOM     26  H   UNL     1       4.373   3.310  20.574  0.00  0.00    +0.000 HD
ENDBRANCH  19  24
BRANCH   1  28
ATOM     27  C   UNL     1       0.027  15.170  22.020  0.00  0.00    +0.000 C 
ATOM     28  C   UNL     1      -1.390  14.566  22.128  0.00  0.00    +0.000 C 
ENDBRANCH   1  28
BRANCH   1  29
ATOM     29  O   UNL     1      -1.104  12.563  23.453  0.00  0.00    +0.000 OA
ATOM     30  H   UNL     1      -0.535  13.280  23.786  0.00  0.00    +0.000 HD
ENDBRANCH   1  29
TORSDOF 3
ENDMDL
MODEL 8
REMARK VINA RESULT:      -7.4      2.225      4.153
REMARK  Name = 
REMARK  4 active torsions:
REMARK  status: ('A' for Active; 'I' for Inactive)
REMARK    1  A    between atoms: C_1  and  C_2
REMARK    2  A    between atoms: C_2  and  C_3
REMARK    3  A    between atoms: C_3  and  O_4
REMARK    4  A    between atoms: C_22  and  N_23
REMARK                            x       y       z     vdW  Elec       q    Type
REMARK                         _______ _______ _______ _____ _____    ______ ____
ROOT
ATOM      1  C   UNL     1       2.818   5.487  19.795  0.00  0.00    +0.000 C 
ATOM      2  C   UNL     1       4.330   5.548  19.421  0.00  0.00    +0.000 C 
ATOM      3  O   UNL     1       5.213   4.950  20.032  0.00  0.00    +0.000 OA
ATOM      4  O   UNL     1       4.581   6.132  18.212  0.00  0.00    +0.000 OA
ATOM      5  C   UNL     1       4.016   7.418  17.974  0.00  0.00    +0.000 C 
ATOM      6  C   UNL     1       2.689   7.642  18.611  0.00  0.00    +0.000 A 
ATOM      7  C   UNL     1       2.201   6.911  19.627  0.00  0.00    +0.000 A 
ATOM      8  C   UNL     1       1.473   7.773  20.676  0.00  0.00    +0.000 A 
ATOM      9  C   UNL     1       0.875   8.949  20.311  0.00  0.00    +0.000 A 
ATOM     10  N   UNL     1       0.906   9.196  18.958  0.00  0.00    +0.000 N 
ATOM     11  C   UNL     1       1.838   8.721  18.069  0.00  0.00    +0.000 A 
ATOM     12  O   UNL     1       1.942   9.065  16.896  0.00  0.00    +0.000 OA
ATOM     13  C   UNL     1      -0.133  10.097  18.509  0.00  0.00    +0.000 C 
ATOM     14  C   UNL     1      -0.561  10.701  19.784  0.00  0.00    +0.000 A 
ATOM     15  C   UNL     1      -1.438  11.758  19.873  0.00  0.00    +0.000 A 
ATOM     16  C   UNL     1      -1.564  12.402  21.083  0.00  0.00    +0.000 A 
ATOM     17  C   UNL     1      -2.481  13.466  21.126  0.00  0.00    +0.000 A 
ATOM     18  C   UNL     1      -2.579  14.273  22.242  0.00  0.00    +0.000 A 
ATOM     19  C   UNL     1      -1.698  14.073  23.293  0.00  0.00    +0.000 A 
ATOM     20  C   UNL     1      -0.837  12.929  23.264  0.00  0.00    +0.000 A 
ATOM     21  C   UNL     1      -0.744  12.005  22.173  0.00  0.00    +0.000 A 
ATOM     22  N   UNL     1       0.063  10.827  22.077  0.00  0.00    +0.000 NA
ATOM     23  C   UNL     1       0.084  10.153  20.885  0.00  0.00    +0.000 A 
ENDROOT
BRANCH  19  24
ATOM     24  N   UNL     1      -1.853  14.886  24.438  0.00  0.00    +0.000 N 
ATOM     25  H   UNL     1      -1.010  14.932  25.018  0.00  0.00    +0.000 HD
ATOM     26  H   UNL     1      -2.670  14.662  24.991  0.00  0.00    +0.000 HD
ENDBRANCH  19  24
BRANCH   1  28
ATOM     27  C   UNL     1       1.487   4.370  17.626  0.00  0.00    +0.000 C 
ATOM     28  C   UNL     1       2.313   4.225  18.923  0.00  0.00    +0.000 C 
ENDBRANCH   1  28
BRANCH   1  29
ATOM     29  O   UNL     1       2.572   5.117  21.156  0.00  0.00    +0.000 OA
ATOM     30  H   UNL     1       2.709   5.902  21.717  0.00  0.00    +0.000 HD
ENDBRANCH   1  29
TORSDOF 3
ENDMDL
