MODEL 1
REMARK VINA RESULT:      -7.3      0.000      0.000
REMARK  Name = 
REMARK  2 active torsions:
REMARK  status: ('A' for Active; 'I' for Inactive)
REMARK    1  A    between atoms: C_2  and  C_4
REMARK    2  A    between atoms: C_9  and  C_11
REMARK                            x       y       z     vdW  Elec       q    Type
REMARK                         _______ _______ _______ _____ _____    ______ ____
ROOT
ATOM      1  C   UNL     1       1.099   3.631  19.907  0.00  0.00    +0.000 C 
ATOM      2  C   UNL     1       1.265   2.125  19.633  0.00  0.00    +0.000 C 
ATOM      3  C   UNL     1       2.586   1.822  18.924  0.00  0.00    +0.000 C 
ATOM      4  C   UNL     1       2.777   2.693  17.686  0.00  0.00    +0.000 C 
ATOM      5  N   UNL     1       2.574   4.116  17.976  0.00  0.00    +0.000 N 
ATOM      6  C   UNL     1       3.520   5.153  17.923  0.00  0.00    +0.000 C 
ATOM      7  O   UNL     1       3.247   6.288  18.324  0.00  0.00    +0.000 OA
ATOM      8  C   UNL     1       1.276   4.406  18.594  0.00  0.00    +0.000 C 
ENDROOT
BRANCH   6   9
ATOM      9  C   UNL     1       4.912   4.910  17.460  0.00  0.00    +0.000 A 
ATOM     10  C   UNL     1       5.995   4.709  18.322  0.00  0.00    +0.000 A 
ATOM     11  C   UNL     1       7.296   4.654  17.818  0.00  0.00    +0.000 A 
ATOM     12  C   UNL     1       7.513   4.691  16.444  0.00  0.00    +0.000 A 
ATOM     13  C   UNL     1       6.432   4.754  15.569  0.00  0.00    +0.000 A 
ATOM     14  C   UNL     1       5.136   4.871  16.077  0.00  0.00    +0.000 A 
ENDBRANCH   6   9
BRANCH   1  16
ATOM     15  N   UNL     1       2.337   5.428  21.056  0.00  0.00    +0.000 N 
ATOM     16  C   UNL     1       2.027   4.098  21.029  0.00  0.00    +0.000 C 
ATOM     17  O   UNL     1       2.423   3.365  21.935  0.00  0.00    +0.000 OA
ATOM     18  H   UNL     1       3.018   5.686  21.751  0.00  0.00    +0.000 HD
ATOM     19  H   UNL     1       2.369   5.970  20.200  0.00  0.00    +0.000 HD
ENDBRANCH   1  16
TORSDOF 2
ENDMDL
MODEL 2
REMARK VINA RESULT:      -7.2      0.242      1.190
REMARK  Name = 
REMARK  2 active torsions:
REMARK  status: ('A' for Active; 'I' for Inactive)
REMARK    1  A    between atoms: C_2  and  C_4
REMARK    2  A    between atoms: C_9  and  C_11
REMARK                            x       y       z     vdW  Elec       q    Type
REMARK                         _______ _______ _______ _____ _____    ______ ____
ROOT
ATOM      1  C   UNL     1       1.186   3.502  19.786  0.00  0.00    +0.000 C 
ATOM      2  C   UNL     1       1.497   2.023  19.494  0.00  0.00    +0.000 C 
ATOM      3  C   UNL     1       2.849   1.855  18.799  0.00  0.00    +0.000 C 
ATOM      4  C   UNL     1       2.972   2.758  17.575  0.00  0.00    +0.000 C 
ATOM      5  N   UNL     1       2.632   4.151  17.882  0.00  0.00    +0.000 N 
ATOM      6  C   UNL     1       3.477   5.273  17.855  0.00  0.00    +0.000 C 
ATOM      7  O   UNL     1       3.093   6.372  18.267  0.00  0.00    +0.000 OA
ATOM      8  C   UNL     1       1.305   4.309  18.486  0.00  0.00    +0.000 C 
ENDROOT
BRANCH   6   9
ATOM      9  C   UNL     1       4.892   5.169  17.408  0.00  0.00    +0.000 A 
ATOM     10  C   UNL     1       5.290   5.222  16.068  0.00  0.00    +0.000 A 
ATOM     11  C   UNL     1       6.614   4.951  15.715  0.00  0.00    +0.000 A 
ATOM     12  C   UNL     1       7.568   4.732  16.705  0.00  0.00    +0.000 A 
ATOM     13  C   UNL     1       7.209   4.812  18.048  0.00  0.00    +0.000 A 
ATOM     14  C   UNL     1       5.873   5.023  18.397  0.00  0.00    +0.000 A 
ENDBRANCH   6   9
BRANCH   1  16
ATOM     15  N   UNL     1       2.227   5.392  20.981  0.00  0.00    +0.000 N 
ATOM     16  C   UNL     1       2.052   4.037  20.926  0.00  0.00    +0.000 C 
ATOM     17  O   UNL     1       2.512   3.330  21.823  0.00  0.00    +0.000 OA
ATOM     18  H   UNL     1       2.872   5.703  21.688  0.00  0.00    +0.000 HD
ATOM     19  H   UNL     1       2.212   5.951  20.135  0.00  0.00    +0.000 HD
ENDBRANCH   1  16
TORSDOF 2
ENDMDL
MODEL 3
REMARK VINA RESULT:      -7.2      1.510      1.549
REMARK  Name = 
REMARK  2 active torsions:
REMARK  status: ('A' for Active; 'I' for Inactive)
REMARK    1  A    between atoms: C_2  and  C_4
REMARK    2  A    between atoms: C_9  and  C_11
REMARK                            x       y       z     vdW  Elec       q    Type
REMARK                         _______ _______ _______ _____ _____    ______ ____
ROOT
ATOM      1  C   UNL     1       1.111   3.241  19.095  0.00  0.00    +0.000 C 
ATOM      2  C   UNL     1       1.804   1.880  18.899  0.00  0.00    +0.000 C 
ATOM      3  C   UNL     1       3.314   2.037  18.711  0.00  0.00    +0.000 C 
ATOM      4  C   UNL     1       3.646   3.054  17.623  0.00  0.00    +0.000 C 
ATOM      5  N   UNL     1       2.939   4.323  17.821  0.00  0.00    +0.000 N 
ATOM      6  C   UNL     1       3.489   5.584  18.109  0.00  0.00    +0.000 C 
ATOM      7  O   UNL     1       2.768   6.547  18.386  0.00  0.00    +0.000 OA
ATOM      8  C   UNL     1       1.485   4.171  17.933  0.00  0.00    +0.000 C 
ENDROOT
BRANCH   6   9
ATOM      9  C   UNL     1       4.960   5.792  18.176  0.00  0.00    +0.000 A 
ATOM     10  C   UNL     1       5.777   5.256  19.177  0.00  0.00    +0.000 A 
ATOM     11  C   UNL     1       7.119   5.632  19.266  0.00  0.00    +0.000 A 
ATOM     12  C   UNL     1       7.678   6.457  18.295  0.00  0.00    +0.000 A 
ATOM     13  C   UNL     1       6.907   6.887  17.218  0.00  0.00    +0.000 A 
ATOM     14  C   UNL     1       5.550   6.560  17.163  0.00  0.00    +0.000 A 
ENDBRANCH   6   9
BRANCH   1  16
ATOM     15  N   UNL     1       1.829   2.948  21.437  0.00  0.00    +0.000 N 
ATOM     16  C   UNL     1       1.414   3.826  20.475  0.00  0.00    +0.000 C 
ATOM     17  O   UNL     1       1.387   5.031  20.725  0.00  0.00    +0.000 OA
ATOM     18  H   UNL     1       1.934   3.349  22.353  0.00  0.00    +0.000 HD
ATOM     19  H   UNL     1       1.524   1.982  21.422  0.00  0.00    +0.000 HD
ENDBRANCH   1  16
TORSDOF 2
ENDMDL
MODEL 4
REMARK VINA RESULT:      -7.1      1.412      1.811
REMARK  Name = 
REMARK  2 active torsions:
REMARK  status: ('A' for Active; 'I' for Inactive)
REMARK    1  A    between atoms: C_2  and  C_4
REMARK    2  A    between atoms: C_9  and  C_11
REMARK                            x       y       z     vdW  Elec       q    Type
REMARK                         _______ _______ _______ _____ _____    ______ ____
ROOT
ATOM      1  C   UNL     1       1.112   3.194  19.409  0.00  0.00    +0.000 C 
ATOM      2  C   UNL     1       1.846   1.850  19.246  0.00  0.00    +0.000 C 
ATOM      3  C   UNL     1       3.337   2.049  18.971  0.00  0.00    +0.000 C 
ATOM      4  C   UNL     1       3.574   3.018  17.816  0.00  0.00    +0.000 C 
ATOM      5  N   UNL     1       2.830   4.271  17.985  0.00  0.00    +0.000 N 
ATOM      6  C   UNL     1       3.346   5.563  18.180  0.00  0.00    +0.000 C 
ATOM      7  O   UNL     1       2.604   6.514  18.444  0.00  0.00    +0.000 OA
ATOM      8  C   UNL     1       1.391   4.073  18.182  0.00  0.00    +0.000 C 
ENDROOT
BRANCH   6   9
ATOM      9  C   UNL     1       4.809   5.826  18.157  0.00  0.00    +0.000 A 
ATOM     10  C   UNL     1       5.469   6.466  17.103  0.00  0.00    +0.000 A 
ATOM     11  C   UNL     1       6.864   6.528  17.078  0.00  0.00    +0.000 A 
ATOM     12  C   UNL     1       7.602   6.048  18.157  0.00  0.00    +0.000 A 
ATOM     13  C   UNL     1       6.949   5.532  19.273  0.00  0.00    +0.000 A 
ATOM     14  C   UNL     1       5.557   5.416  19.269  0.00  0.00    +0.000 A 
ENDBRANCH   6   9
BRANCH   1  16
ATOM     15  N   UNL     1       1.832   3.035  21.763  0.00  0.00    +0.000 N 
ATOM     16  C   UNL     1       1.463   3.862  20.739  0.00  0.00    +0.000 C 
ATOM     17  O   UNL     1       1.512   5.082  20.897  0.00  0.00    +0.000 OA
ATOM     18  H   UNL     1       1.970   3.497  22.646  0.00  0.00    +0.000 HD
ATOM     19  H   UNL     1       1.469   2.091  21.823  0.00  0.00    +0.000 HD
ENDBRANCH   1  16
TORSDOF 2
ENDMDL
MODEL 5
REMARK VINA RESULT:      -7.0      1.066      1.564
REMARK  Name = 
REMARK  2 active torsions:
REMARK  status: ('A' for Active; 'I' for Inactive)
REMARK    1  A    between atoms: C_2  and  C_4
REMARK    2  A    between atoms: C_9  and  C_11
REMARK                            x       y       z     vdW  Elec       q    Type
REMARK                         _______ _______ _______ _____ _____    ______ ____
ROOT
ATOM      1  C   UNL     1       1.344   3.218  19.907  0.00  0.00    +0.000 C 
ATOM      2  C   UNL     1       1.190   2.081  18.881  0.00  0.00    +0.000 C 
ATOM      3  C   UNL     1       2.324   2.088  17.854  0.00  0.00    +0.000 C 
ATOM      4  C   UNL     1       2.503   3.464  17.219  0.00  0.00    +0.000 C 
ATOM      5  N   UNL     1       2.609   4.526  18.226  0.00  0.00    +0.000 N 
ATOM      6  C   UNL     1       3.715   5.346  18.505  0.00  0.00    +0.000 C 
ATOM      7  O   UNL     1       3.713   6.112  19.473  0.00  0.00    +0.000 OA
ATOM      8  C   UNL     1       1.483   4.554  19.165  0.00  0.00    +0.000 C 
ENDROOT
BRANCH   6   9
ATOM      9  C   UNL     1       4.962   5.268  17.699  0.00  0.00    +0.000 A 
ATOM     10  C   UNL     1       5.050   5.664  16.361  0.00  0.00    +0.000 A 
ATOM     11  C   UNL     1       6.208   5.406  15.624  0.00  0.00    +0.000 A 
ATOM     12  C   UNL     1       7.322   4.849  16.248  0.00  0.00    +0.000 A 
ATOM     13  C   UNL     1       7.291   4.576  17.613  0.00  0.00    +0.000 A 
ATOM     14  C   UNL     1       6.112   4.778  18.334  0.00  0.00    +0.000 A 
ENDBRANCH   6   9
BRANCH   1  16
ATOM     15  N   UNL     1       2.207   3.081  22.214  0.00  0.00    +0.000 N 
ATOM     16  C   UNL     1       2.486   2.934  20.884  0.00  0.00    +0.000 C 
ATOM     17  O   UNL     1       3.587   2.505  20.540  0.00  0.00    +0.000 OA
ATOM     18  H   UNL     1       3.001   2.973  22.823  0.00  0.00    +0.000 HD
ATOM     19  H   UNL     1       1.512   3.749  22.527  0.00  0.00    +0.000 HD
ENDBRANCH   1  16
TORSDOF 2
ENDMDL
MODEL 6
REMARK VINA RESULT:      -6.9      2.237      5.471
REMARK  Name = 
REMARK  2 active torsions:
REMARK  status: ('A' for Active; 'I' for Inactive)
REMARK    1  A    between atoms: C_2  and  C_4
REMARK    2  A    between atoms: C_9  and  C_11
REMARK                            x       y       z     vdW  Elec       q    Type
REMARK                         _______ _______ _______ _____ _____    ______ ____
ROOT
ATOM      1  C   UNL     1       5.895   5.296  16.550  0.00  0.00    +0.000 C 
ATOM      2  C   UNL     1       5.383   6.693  16.945  0.00  0.00    +0.000 C 
ATOM      3  C   UNL     1       4.310   6.616  18.032  0.00  0.00    +0.000 C 
ATOM      4  C   UNL     1       3.197   5.640  17.661  0.00  0.00    +0.000 C 
ATOM      5  N   UNL     1       3.724   4.333  17.254  0.00  0.00    +0.000 N 
ATOM      6  C   UNL     1       3.560   3.096  17.899  0.00  0.00    +0.000 C 
ATOM      7  O   UNL     1       4.171   2.092  17.520  0.00  0.00    +0.000 OA
ATOM      8  C   UNL     1       4.702   4.411  16.164  0.00  0.00    +0.000 C 
ENDROOT
BRANCH   6   9
ATOM      9  C   UNL     1       2.710   2.959  19.112  0.00  0.00    +0.000 A 
ATOM     10  C   UNL     1       1.315   3.052  19.099  0.00  0.00    +0.000 A 
ATOM     11  C   UNL     1       0.600   3.080  20.298  0.00  0.00    +0.000 A 
ATOM     12  C   UNL     1       1.263   2.907  21.510  0.00  0.00    +0.000 A 
ATOM     13  C   UNL     1       2.636   2.677  21.525  0.00  0.00    +0.000 A 
ATOM     14  C   UNL     1       3.358   2.710  20.329  0.00  0.00    +0.000 A 
ENDBRANCH   6   9
BRANCH   1  16
ATOM     15  N   UNL     1       8.018   4.263  17.266  0.00  0.00    +0.000 N 
ATOM     16  C   UNL     1       6.779   4.698  17.645  0.00  0.00    +0.000 C 
ATOM     17  O   UNL     1       6.466   4.673  18.835  0.00  0.00    +0.000 OA
ATOM     18  H   UNL     1       8.537   3.795  17.989  0.00  0.00    +0.000 HD
ATOM     19  H   UNL     1       8.180   3.918  16.326  0.00  0.00    +0.000 HD
ENDBRANCH   1  16
TORSDOF 2
ENDMDL
MODEL 7
REMARK VINA RESULT:      -6.9      1.991      3.035
REMARK  Name = 
REMARK  2 active torsions:
REMARK  status: ('A' for Active; 'I' for Inactive)
REMARK    1  A    between atoms: C_2  and  C_4
REMARK    2  A    between atoms: C_9  and  C_11
REMARK                            x       y       z     vdW  Elec       q    Type
REMARK                         _______ _______ _______ _____ _____    ______ ____
ROOT
ATOM      1  C   UNL     1       1.487   2.889  20.352  0.00  0.00    +0.000 C 
ATOM      2  C   UNL     1       0.755   4.243  20.393  0.00  0.00    +0.000 C 
ATOM      3  C   UNL     1       1.560   5.342  19.696  0.00  0.00    +0.000 C 
ATOM      4  C   UNL     1       2.994   5.406  20.213  0.00  0.00    +0.000 C 
ATOM      5  N   UNL     1       3.646   4.092  20.195  0.00  0.00    +0.000 N 
ATOM      6  C   UNL     1       4.745   3.683  19.421  0.00  0.00    +0.000 C 
ATOM      7  O   UNL     1       5.110   2.504  19.405  0.00  0.00    +0.000 OA
ATOM      8  C   UNL     1       2.901   3.061  20.923  0.00  0.00    +0.000 C 
ENDROOT
BRANCH   6   9
ATOM      9  C   UNL     1       5.461   4.631  18.528  0.00  0.00    +0.000 A 
ATOM     10  C   UNL     1       5.129   4.837  17.185  0.00  0.00    +0.000 A 
ATOM     11  C   UNL     1       5.950   5.617  16.367  0.00  0.00    +0.000 A 
ATOM     12  C   UNL     1       7.045   6.282  16.911  0.00  0.00    +0.000 A 
ATOM     13  C   UNL     1       7.307   6.193  18.275  0.00  0.00    +0.000 A 
ATOM     14  C   UNL     1       6.521   5.364  19.079  0.00  0.00    +0.000 A 
ENDBRANCH   6   9
BRANCH   1  16
ATOM     15  N   UNL     1       2.406   1.342  18.666  0.00  0.00    +0.000 N 
ATOM     16  C   UNL     1       1.457   2.283  18.949  0.00  0.00    +0.000 C 
ATOM     17  O   UNL     1       0.586   2.535  18.116  0.00  0.00    +0.000 OA
ATOM     18  H   UNL     1       2.415   1.029  17.710  0.00  0.00    +0.000 HD
ATOM     19  H   UNL     1       3.313   1.368  19.119  0.00  0.00    +0.000 HD
ENDBRANCH   1  16
TORSDOF 2
ENDMDL
MODEL 8
REMARK VINA RESULT:      -6.9      1.985      2.792
REMARK  Name = 
REMARK  2 active torsions:
REMARK  status: ('A' for Active; 'I' for Inactive)
REMARK    1  A    between atoms: C_2  and  C_4
REMARK    2  A    between atoms: C_9  and  C_11
REMARK                            x       y       z     vdW  Elec       q    Type
REMARK                         _______ _______ _______ _____ _____    ______ ____
ROOT
ATOM      1  C   UNL     1       1.434   2.855  20.456  0.00  0.00    +0.000 C 
ATOM      2  C   UNL     1       0.763   4.241  20.459  0.00  0.00    +0.000 C 
ATOM      3  C   UNL     1       1.569   5.262  19.656  0.00  0.00    +0.000 C 
ATOM      4  C   UNL     1       3.033   5.291  20.087  0.00  0.00    +0.000 C 
ATOM      5  N   UNL     1       3.628   3.951  20.109  0.00  0.00    +0.000 N 
ATOM      6  C   UNL     1       4.662   3.451  19.299  0.00  0.00    +0.000 C 
ATOM      7  O   UNL     1       4.977   2.257  19.331  0.00  0.00    +0.000 OA
ATOM      8  C   UNL     1       2.885   2.995  20.935  0.00  0.00    +0.000 C 
ENDROOT
BRANCH   6   9
ATOM      9  C   UNL     1       5.364   4.315  18.314  0.00  0.00    +0.000 A 
ATOM     10  C   UNL     1       6.488   5.089  18.619  0.00  0.00    +0.000 A 
ATOM     11  C   UNL     1       6.990   6.000  17.687  0.00  0.00    +0.000 A 
ATOM     12  C   UNL     1       6.440   6.067  16.410  0.00  0.00    +0.000 A 
ATOM     13  C   UNL     1       5.407   5.205  16.052  0.00  0.00    +0.000 A 
ATOM     14  C   UNL     1       4.867   4.337  17.004  0.00  0.00    +0.000 A 
ENDBRANCH   6   9
BRANCH   1  16
ATOM     15  N   UNL     1       2.305   1.327  18.727  0.00  0.00    +0.000 N 
ATOM     16  C   UNL     1       1.298   2.174  19.093  0.00  0.00    +0.000 C 
ATOM     17  O   UNL     1       0.306   2.284  18.372  0.00  0.00    +0.000 OA
ATOM     18  H   UNL     1       2.229   0.966  17.791  0.00  0.00    +0.000 HD
ATOM     19  H   UNL     1       3.252   1.475  19.056  0.00  0.00    +0.000 HD
ENDBRANCH   1  16
TORSDOF 2
ENDMDL
MODEL 9
REMARK VINA RESULT:      -6.8      2.844      4.373
REMARK  Name = 
REMARK  2 active torsions:
REMARK  status: ('A' for Active; 'I' for Inactive)
REMARK    1  A    between atoms: C_2  and  C_4
REMARK    2  A    between atoms: C_9  and  C_11
REMARK                            x       y       z     vdW  Elec       q    Type
REMARK                         _______ _______ _______ _____ _____    ______ ____
ROOT
ATOM      1  C   UNL     1       5.071   5.179  19.098  0.00  0.00    +0.000 C 
ATOM      2  C   UNL     1       3.901   6.059  18.621  0.00  0.00    +0.000 C 
ATOM      3  C   UNL     1       3.846   6.149  17.096  0.00  0.00    +0.000 C 
ATOM      4  C   UNL     1       5.194   6.551  16.503  0.00  0.00    +0.000 C 
ATOM      5  N   UNL     1       6.288   5.715  17.008  0.00  0.00    +0.000 N 
ATOM      6  C   UNL     1       7.093   4.816  16.288  0.00  0.00    +0.000 C 
ATOM      7  O   UNL     1       7.893   4.073  16.864  0.00  0.00    +0.000 OA
ATOM      8  C   UNL     1       6.376   5.689  18.472  0.00  0.00    +0.000 C 
ENDROOT
BRANCH   6   9
ATOM      9  C   UNL     1       6.957   4.661  14.815  0.00  0.00    +0.000 A 
ATOM     10  C   UNL     1       6.021   3.820  14.205  0.00  0.00    +0.000 A 
ATOM     11  C   UNL     1       6.065   3.601  12.826  0.00  0.00    +0.000 A 
ATOM     12  C   UNL     1       6.972   4.303  12.037  0.00  0.00    +0.000 A 
ATOM     13  C   UNL     1       7.817   5.245  12.618  0.00  0.00    +0.000 A 
ATOM     14  C   UNL     1       7.813   5.418  14.004  0.00  0.00    +0.000 A 
ENDBRANCH   6   9
BRANCH   1  16
ATOM     15  N   UNL     1       5.167   2.819  19.809  0.00  0.00    +0.000 N 
ATOM     16  C   UNL     1       4.796   3.698  18.831  0.00  0.00    +0.000 C 
ATOM     17  O   UNL     1       4.192   3.284  17.842  0.00  0.00    +0.000 OA
ATOM     18  H   UNL     1       5.055   1.849  19.566  0.00  0.00    +0.000 HD
ATOM     19  H   UNL     1       5.952   3.022  20.417  0.00  0.00    +0.000 HD
ENDBRANCH   1  16
TORSDOF 2
ENDMDL
