MODEL 1
REMARK VINA RESULT:      -8.9      0.000      0.000
REMARK  Name = 
REMARK  5 active torsions:
REMARK  status: ('A' for Active; 'I' for Inactive)
REMARK    1  A    between atoms: C_1  and  C_2
REMARK    2  A    between atoms: C_4  and  N_5
REMARK    3  A    between atoms: C_12  and  N_13
REMARK    4  A    between atoms: C_22  and  O_23
REMARK    5  A    between atoms: O_23  and  C_24
REMARK                            x       y       z     vdW  Elec       q    Type
REMARK                         _______ _______ _______ _____ _____    ______ ____
ROOT
ATOM      1  N   UNL     1       1.573   8.896  19.552  0.00  0.00    +0.000 N 
ATOM      2  C   UNL     1       1.763   7.587  19.773  0.00  0.00    +0.000 A 
ATOM      3  N   UNL     1       2.708   6.987  18.983  0.00  0.00    +0.000 NA
ATOM      4  C   UNL     1       2.738   5.743  19.414  0.00  0.00    +0.000 A 
ATOM      5  N   UNL     1       1.837   5.614  20.428  0.00  0.00    +0.000 N 
ATOM      6  N   UNL     1       1.194   6.772  20.666  0.00  0.00    +0.000 NA
ATOM      7  C   UNL     1       1.586   4.403  21.179  0.00  0.00    +0.000 C 
ATOM      8  C   UNL     1       2.740   3.399  21.046  0.00  0.00    +0.000 C 
ATOM      9  C   UNL     1       3.189   3.277  19.589  0.00  0.00    +0.000 C 
ATOM     10  C   UNL     1       3.663   4.633  19.035  0.00  0.00    +0.000 C 
ATOM     11  H   UNL     1       1.958   9.224  18.676  0.00  0.00    +0.000 HD
ENDROOT
BRANCH   1  19
ATOM     12  N   UNL     1      -1.292  11.827  20.881  0.00  0.00    +0.000 N 
ATOM     13  C   UNL     1      -0.419  11.144  21.852  0.00  0.00    +0.000 C 
ATOM     14  C   UNL     1       0.863  10.647  21.162  0.00  0.00    +0.000 C 
ATOM     15  C   UNL     1       1.550  11.781  20.374  0.00  0.00    +0.000 C 
ATOM     16  C   UNL     1       0.897  11.765  18.987  0.00  0.00    +0.000 C 
ATOM     17  C   UNL     1      -0.134  10.623  19.049  0.00  0.00    +0.000 C 
ATOM     18  C   UNL     1      -1.480  11.166  19.578  0.00  0.00    +0.000 C 
ATOM     19  C   UNL     1       0.442   9.642  20.088  0.00  0.00    +0.000 C 
BRANCH  12  23
ATOM     20  C   UNL     1      -4.210  12.510  24.769  0.00  0.00    +0.000 C 
ATOM     21  C   UNL     1      -3.886  12.671  23.314  0.00  0.00    +0.000 A 
ATOM     22  C   UNL     1      -2.695  12.198  22.799  0.00  0.00    +0.000 A 
ATOM     23  C   UNL     1      -2.474  12.344  21.438  0.00  0.00    +0.000 A 
ATOM     24  N   UNL     1      -3.394  12.924  20.649  0.00  0.00    +0.000 NA
ATOM     25  C   UNL     1      -4.510  13.370  21.243  0.00  0.00    +0.000 A 
ATOM     26  N   UNL     1      -4.810  13.276  22.546  0.00  0.00    +0.000 NA
ENDBRANCH  12  23
ENDBRANCH   1  19
BRANCH  10  27
ATOM     27  O   UNL     1       3.677   4.563  17.607  0.00  0.00    +0.000 OA
BRANCH  27  28
ATOM     28  C   UNL     1       4.881   4.556  16.965  0.00  0.00    +0.000 A 
ATOM     29  C   UNL     1       5.988   4.773  17.790  0.00  0.00    +0.000 A 
ATOM     30  C   UNL     1       7.282   4.782  17.265  0.00  0.00    +0.000 A 
ATOM     31  C   UNL     1       7.475   4.564  15.903  0.00  0.00    +0.000 A 
ATOM     32  C   UNL     1       6.376   4.319  15.085  0.00  0.00    +0.000 A 
ATOM     33 CL   UNL     1       6.612   4.030  13.403  0.00  0.00    +0.000 Cl
ATOM     34  C   UNL     1       5.083   4.302  15.609  0.00  0.00    +0.000 A 
ENDBRANCH  27  28
ENDBRANCH  10  27
TORSDOF 4
ENDMDL
MODEL 2
REMARK VINA RESULT:      -8.8      1.038      1.269
REMARK  Name = 
REMARK  5 active torsions:
REMARK  status: ('A' for Active; 'I' for Inactive)
REMARK    1  A    between atoms: C_1  and  C_2
REMARK    2  A    between atoms: C_4  and  N_5
REMARK    3  A    between atoms: C_12  and  N_13
REMARK    4  A    between atoms: C_22  and  O_23
REMARK    5  A    between atoms: O_23  and  C_24
REMARK                            x       y       z     vdW  Elec       q    Type
REMARK                         _______ _______ _______ _____ _____    ______ ____
ROOT
ATOM      1  N   UNL     1       1.653   8.713  19.706  0.00  0.00    +0.000 N 
ATOM      2  C   UNL     1       1.794   7.394  19.906  0.00  0.00    +0.000 A 
ATOM      3  N   UNL     1       2.770   6.785  19.162  0.00  0.00    +0.000 NA
ATOM      4  C   UNL     1       2.739   5.531  19.563  0.00  0.00    +0.000 A 
ATOM      5  N   UNL     1       1.773   5.405  20.515  0.00  0.00    +0.000 N 
ATOM      6  N   UNL     1       1.147   6.575  20.741  0.00  0.00    +0.000 NA
ATOM      7  C   UNL     1       1.442   4.185  21.219  0.00  0.00    +0.000 C 
ATOM      8  C   UNL     1       2.574   3.152  21.134  0.00  0.00    +0.000 C 
ATOM      9  C   UNL     1       3.111   3.051  19.705  0.00  0.00    +0.000 C 
ATOM     10  C   UNL     1       3.656   4.404  19.216  0.00  0.00    +0.000 C 
ATOM     11  H   UNL     1       2.102   9.049  18.864  0.00  0.00    +0.000 HD
ENDROOT
BRANCH   1  19
ATOM     12  N   UNL     1      -1.246  11.690  20.842  0.00  0.00    +0.000 N 
ATOM     13  C   UNL     1      -0.380  11.067  21.858  0.00  0.00    +0.000 C 
ATOM     14  C   UNL     1       0.914  10.543  21.210  0.00  0.00    +0.000 C 
ATOM     15  C   UNL     1       1.602  11.638  20.370  0.00  0.00    +0.000 C 
ATOM     16  C   UNL     1       0.964  11.541  18.978  0.00  0.00    +0.000 C 
ATOM     17  C   UNL     1      -0.059  10.397  19.091  0.00  0.00    +0.000 C 
ATOM     18  C   UNL     1      -1.414  10.957  19.575  0.00  0.00    +0.000 C 
ATOM     19  C   UNL     1       0.512   9.478  20.188  0.00  0.00    +0.000 C 
BRANCH  12  23
ATOM     20  C   UNL     1      -4.203  12.579  24.658  0.00  0.00    +0.000 C 
ATOM     21  C   UNL     1      -3.869  12.654  23.199  0.00  0.00    +0.000 A 
ATOM     22  C   UNL     1      -2.669  12.163  22.723  0.00  0.00    +0.000 A 
ATOM     23  C   UNL     1      -2.437  12.228  21.358  0.00  0.00    +0.000 A 
ATOM     24  N   UNL     1      -3.357  12.749  20.527  0.00  0.00    +0.000 NA
ATOM     25  C   UNL     1      -4.482  13.218  21.085  0.00  0.00    +0.000 A 
ATOM     26  N   UNL     1      -4.792  13.201  22.388  0.00  0.00    +0.000 NA
ENDBRANCH  12  23
ENDBRANCH   1  19
BRANCH  10  27
ATOM     27  O   UNL     1       3.758   4.367  17.790  0.00  0.00    +0.000 OA
BRANCH  27  28
ATOM     28  C   UNL     1       4.926   4.764  17.208  0.00  0.00    +0.000 A 
ATOM     29  C   UNL     1       5.328   3.996  16.112  0.00  0.00    +0.000 A 
ATOM     30  C   UNL     1       6.500   4.299  15.416  0.00  0.00    +0.000 A 
ATOM     31  C   UNL     1       7.277   5.385  15.813  0.00  0.00    +0.000 A 
ATOM     32  C   UNL     1       6.863   6.168  16.886  0.00  0.00    +0.000 A 
ATOM     33 CL   UNL     1       7.811   7.524  17.368  0.00  0.00    +0.000 Cl
ATOM     34  C   UNL     1       5.688   5.872  17.578  0.00  0.00    +0.000 A 
ENDBRANCH  27  28
ENDBRANCH  10  27
TORSDOF 4
ENDMDL
MODEL 3
REMARK VINA RESULT:      -8.6      0.610      1.194
REMARK  Name = 
REMARK  5 active torsions:
REMARK  status: ('A' for Active; 'I' for Inactive)
REMARK    1  A    between atoms: C_1  and  C_2
REMARK    2  A    between atoms: C_4  and  N_5
REMARK    3  A    between atoms: C_12  and  N_13
REMARK    4  A    between atoms: C_22  and  O_23
REMARK    5  A    between atoms: O_23  and  C_24
REMARK                            x       y       z     vdW  Elec       q    Type
REMARK                         _______ _______ _______ _____ _____    ______ ____
ROOT
ATOM      1  N   UNL     1       1.736   8.557  19.656  0.00  0.00    +0.000 N 
ATOM      2  C   UNL     1       1.900   7.246  19.880  0.00  0.00    +0.000 A 
ATOM      3  N   UNL     1       2.828   6.623  19.085  0.00  0.00    +0.000 NA
ATOM      4  C   UNL     1       2.834   5.380  19.519  0.00  0.00    +0.000 A 
ATOM      5  N   UNL     1       1.938   5.272  20.539  0.00  0.00    +0.000 N 
ATOM      6  N   UNL     1       1.321   6.445  20.779  0.00  0.00    +0.000 NA
ATOM      7  C   UNL     1       1.668   4.069  21.296  0.00  0.00    +0.000 C 
ATOM      8  C   UNL     1       2.799   3.041  21.158  0.00  0.00    +0.000 C 
ATOM      9  C   UNL     1       3.235   2.906  19.698  0.00  0.00    +0.000 C 
ATOM     10  C   UNL     1       3.734   4.250  19.137  0.00  0.00    +0.000 C 
ATOM     11  H   UNL     1       2.122   8.875  18.777  0.00  0.00    +0.000 HD
ENDROOT
BRANCH   1  19
ATOM     12  N   UNL     1      -1.103  11.544  20.913  0.00  0.00    +0.000 N 
ATOM     13  C   UNL     1      -0.159  10.958  21.881  0.00  0.00    +0.000 C 
ATOM     14  C   UNL     1       1.090  10.425  21.157  0.00  0.00    +0.000 C 
ATOM     15  C   UNL     1       1.704  11.500  20.238  0.00  0.00    +0.000 C 
ATOM     16  C   UNL     1       0.969  11.358  18.899  0.00  0.00    +0.000 C 
ATOM     17  C   UNL     1      -0.033  10.210  19.119  0.00  0.00    +0.000 C 
ATOM     18  C   UNL     1      -1.355  10.774  19.684  0.00  0.00    +0.000 C 
ATOM     19  C   UNL     1       0.625   9.328  20.197  0.00  0.00    +0.000 C 
BRANCH  12  23
ATOM     20  C   UNL     1      -5.300  14.054  20.487  0.00  0.00    +0.000 C 
ATOM     21  C   UNL     1      -4.284  13.304  21.294  0.00  0.00    +0.000 A 
ATOM     22  C   UNL     1      -3.181  12.735  20.689  0.00  0.00    +0.000 A 
ATOM     23  C   UNL     1      -2.259  12.088  21.498  0.00  0.00    +0.000 A 
ATOM     24  N   UNL     1      -2.435  12.025  22.829  0.00  0.00    +0.000 NA
ATOM     25  C   UNL     1      -3.547  12.590  23.322  0.00  0.00    +0.000 A 
ATOM     26  N   UNL     1      -4.491  13.231  22.621  0.00  0.00    +0.000 NA
ENDBRANCH  12  23
ENDBRANCH   1  19
BRANCH  10  27
ATOM     27  O   UNL     1       3.736   4.176  17.709  0.00  0.00    +0.000 OA
BRANCH  27  28
ATOM     28  C   UNL     1       4.923   4.311  17.050  0.00  0.00    +0.000 A 
ATOM     29  C   UNL     1       6.030   4.536  17.874  0.00  0.00    +0.000 A 
ATOM     30  C   UNL     1       7.309   4.683  17.331  0.00  0.00    +0.000 A 
ATOM     31  C   UNL     1       7.486   4.598  15.952  0.00  0.00    +0.000 A 
ATOM     32  C   UNL     1       6.390   4.345  15.133  0.00  0.00    +0.000 A 
ATOM     33 CL   UNL     1       6.609   4.219  13.429  0.00  0.00    +0.000 Cl
ATOM     34  C   UNL     1       5.113   4.190  15.674  0.00  0.00    +0.000 A 
ENDBRANCH  27  28
ENDBRANCH  10  27
TORSDOF 4
ENDMDL
MODEL 4
REMARK VINA RESULT:      -8.5      1.164      1.729
REMARK  Name = 
REMARK  5 active torsions:
REMARK  status: ('A' for Active; 'I' for Inactive)
REMARK    1  A    between atoms: C_1  and  C_2
REMARK    2  A    between atoms: C_4  and  N_5
REMARK    3  A    between atoms: C_12  and  N_13
REMARK    4  A    between atoms: C_22  and  O_23
REMARK    5  A    between atoms: O_23  and  C_24
REMARK                            x       y       z     vdW  Elec       q    Type
REMARK                         _______ _______ _______ _____ _____    ______ ____
ROOT
ATOM      1  N   UNL     1       1.690   8.656  19.756  0.00  0.00    +0.000 N 
ATOM      2  C   UNL     1       1.826   7.336  19.944  0.00  0.00    +0.000 A 
ATOM      3  N   UNL     1       2.793   6.728  19.186  0.00  0.00    +0.000 NA
ATOM      4  C   UNL     1       2.760   5.471  19.577  0.00  0.00    +0.000 A 
ATOM      5  N   UNL     1       1.803   5.341  20.537  0.00  0.00    +0.000 N 
ATOM      6  N   UNL     1       1.184   6.513  20.778  0.00  0.00    +0.000 NA
ATOM      7  C   UNL     1       1.473   4.117  21.234  0.00  0.00    +0.000 C 
ATOM      8  C   UNL     1       2.600   3.080  21.130  0.00  0.00    +0.000 C 
ATOM      9  C   UNL     1       3.123   2.988  19.696  0.00  0.00    +0.000 C 
ATOM     10  C   UNL     1       3.669   4.343  19.212  0.00  0.00    +0.000 C 
ATOM     11  H   UNL     1       2.132   8.998  18.913  0.00  0.00    +0.000 HD
ENDROOT
BRANCH   1  19
ATOM     12  N   UNL     1      -1.219  11.629  20.879  0.00  0.00    +0.000 N 
ATOM     13  C   UNL     1      -0.288  11.081  21.881  0.00  0.00    +0.000 C 
ATOM     14  C   UNL     1       0.984  10.549  21.196  0.00  0.00    +0.000 C 
ATOM     15  C   UNL     1       1.601  11.611  20.264  0.00  0.00    +0.000 C 
ATOM     16  C   UNL     1       0.897  11.425  18.914  0.00  0.00    +0.000 C 
ATOM     17  C   UNL     1      -0.092  10.267  19.141  0.00  0.00    +0.000 C 
ATOM     18  C   UNL     1      -1.434  10.825  19.664  0.00  0.00    +0.000 C 
ATOM     19  C   UNL     1       0.556   9.422  20.254  0.00  0.00    +0.000 C 
BRANCH  12  23
ATOM     20  C   UNL     1      -5.449  14.052  20.302  0.00  0.00    +0.000 C 
ATOM     21  C   UNL     1      -4.437  13.343  21.149  0.00  0.00    +0.000 A 
ATOM     22  C   UNL     1      -3.312  12.776  20.582  0.00  0.00    +0.000 A 
ATOM     23  C   UNL     1      -2.395  12.169  21.426  0.00  0.00    +0.000 A 
ATOM     24  N   UNL     1      -2.597  12.139  22.754  0.00  0.00    +0.000 NA
ATOM     25  C   UNL     1      -3.727  12.699  23.210  0.00  0.00    +0.000 A 
ATOM     26  N   UNL     1      -4.668  13.304  22.473  0.00  0.00    +0.000 NA
ENDBRANCH  12  23
ENDBRANCH   1  19
BRANCH  10  27
ATOM     27  O   UNL     1       3.758   4.317  17.786  0.00  0.00    +0.000 OA
BRANCH  27  28
ATOM     28  C   UNL     1       4.920   4.720  17.196  0.00  0.00    +0.000 A 
ATOM     29  C   UNL     1       5.314   3.958  16.092  0.00  0.00    +0.000 A 
ATOM     30  C   UNL     1       6.480   4.267  15.388  0.00  0.00    +0.000 A 
ATOM     31  C   UNL     1       7.258   5.352  15.784  0.00  0.00    +0.000 A 
ATOM     32  C   UNL     1       6.852   6.129  16.865  0.00  0.00    +0.000 A 
ATOM     33 CL   UNL     1       7.802   7.484  17.347  0.00  0.00    +0.000 Cl
ATOM     34  C   UNL     1       5.683   5.827  17.565  0.00  0.00    +0.000 A 
ENDBRANCH  27  28
ENDBRANCH  10  27
TORSDOF 4
ENDMDL
MODEL 5
REMARK VINA RESULT:      -8.1      0.940      1.227
REMARK  Name = 
REMARK  5 active torsions:
REMARK  status: ('A' for Active; 'I' for Inactive)
REMARK    1  A    between atoms: C_1  and  C_2
REMARK    2  A    between atoms: C_4  and  N_5
REMARK    3  A    between atoms: C_12  and  N_13
REMARK    4  A    between atoms: C_22  and  O_23
REMARK    5  A    between atoms: O_23  and  C_24
REMARK                            x       y       z     vdW  Elec       q    Type
REMARK                         _______ _______ _______ _____ _____    ______ ____
ROOT
ATOM      1  N   UNL     1       1.499   9.508  19.281  0.00  0.00    +0.000 N 
ATOM      2  C   UNL     1       1.754   8.212  19.511  0.00  0.00    +0.000 A 
ATOM      3  N   UNL     1       2.660   7.630  18.662  0.00  0.00    +0.000 NA
ATOM      4  C   UNL     1       2.769   6.397  19.113  0.00  0.00    +0.000 A 
ATOM      5  N   UNL     1       1.952   6.256  20.193  0.00  0.00    +0.000 N 
ATOM      6  N   UNL     1       1.285   7.395  20.459  0.00  0.00    +0.000 NA
ATOM      7  C   UNL     1       1.804   5.053  20.984  0.00  0.00    +0.000 C 
ATOM      8  C   UNL     1       2.981   4.089  20.782  0.00  0.00    +0.000 C 
ATOM      9  C   UNL     1       3.324   3.954  19.298  0.00  0.00    +0.000 C 
ATOM     10  C   UNL     1       3.704   5.313  18.685  0.00  0.00    +0.000 C 
ATOM     11  H   UNL     1       1.805   9.831  18.373  0.00  0.00    +0.000 HD
ENDROOT
BRANCH   1  19
ATOM     12  N   UNL     1      -1.353  12.361  20.794  0.00  0.00    +0.000 N 
ATOM     13  C   UNL     1      -0.408  11.695  21.708  0.00  0.00    +0.000 C 
ATOM     14  C   UNL     1       0.844  11.232  20.940  0.00  0.00    +0.000 C 
ATOM     15  C   UNL     1       1.455  12.387  20.122  0.00  0.00    +0.000 C 
ATOM     16  C   UNL     1       0.722  12.362  18.774  0.00  0.00    +0.000 C 
ATOM     17  C   UNL     1      -0.275  11.195  18.890  0.00  0.00    +0.000 C 
ATOM     18  C   UNL     1      -1.600  11.702  19.500  0.00  0.00    +0.000 C 
ATOM     19  C   UNL     1       0.385  10.223  19.887  0.00  0.00    +0.000 C 
BRANCH  12  23
ATOM     20  C   UNL     1      -6.246  12.668  21.030  0.00  0.00    +0.000 C 
ATOM     21  C   UNL     1      -4.875  13.000  21.535  0.00  0.00    +0.000 A 
ATOM     22  C   UNL     1      -3.752  12.469  20.931  0.00  0.00    +0.000 A 
ATOM     23  C   UNL     1      -2.511  12.847  21.423  0.00  0.00    +0.000 A 
ATOM     24  N   UNL     1      -2.410  13.705  22.452  0.00  0.00    +0.000 NA
ATOM     25  C   UNL     1      -3.557  14.150  22.986  0.00  0.00    +0.000 A 
ATOM     26  N   UNL     1      -4.796  13.841  22.581  0.00  0.00    +0.000 NA
ENDBRANCH  12  23
ENDBRANCH   1  19
BRANCH  10  27
ATOM     27  O   UNL     1       3.614   5.214  17.262  0.00  0.00    +0.000 OA
BRANCH  27  28
ATOM     28  C   UNL     1       4.766   5.096  16.541  0.00  0.00    +0.000 A 
ATOM     29  C   UNL     1       5.904   5.622  17.160  0.00  0.00    +0.000 A 
ATOM     30  C   UNL     1       7.152   5.559  16.538  0.00  0.00    +0.000 A 
ATOM     31  C   UNL     1       7.270   4.958  15.287  0.00  0.00    +0.000 A 
ATOM     32  C   UNL     1       6.143   4.408  14.682  0.00  0.00    +0.000 A 
ATOM     33 CL   UNL     1       6.288   3.646  13.143  0.00  0.00    +0.000 Cl
ATOM     34  C   UNL     1       4.897   4.462  15.305  0.00  0.00    +0.000 A 
ENDBRANCH  27  28
ENDBRANCH  10  27
TORSDOF 4
ENDMDL
MODEL 6
REMARK VINA RESULT:      -8.0      1.847      2.501
REMARK  Name = 
REMARK  5 active torsions:
REMARK  status: ('A' for Active; 'I' for Inactive)
REMARK    1  A    between atoms: C_1  and  C_2
REMARK    2  A    between atoms: C_4  and  N_5
REMARK    3  A    between atoms: C_12  and  N_13
REMARK    4  A    between atoms: C_22  and  O_23
REMARK    5  A    between atoms: O_23  and  C_24
REMARK                            x       y       z     vdW  Elec       q    Type
REMARK                         _______ _______ _______ _____ _____    ______ ____
ROOT
ATOM      1  N   UNL     1       2.026   8.120  19.232  0.00  0.00    +0.000 N 
ATOM      2  C   UNL     1       2.122   6.842  19.625  0.00  0.00    +0.000 A 
ATOM      3  N   UNL     1       3.240   6.175  19.197  0.00  0.00    +0.000 NA
ATOM      4  C   UNL     1       3.123   4.980  19.738  0.00  0.00    +0.000 A 
ATOM      5  N   UNL     1       1.971   4.943  20.463  0.00  0.00    +0.000 N 
ATOM      6  N   UNL     1       1.308   6.113  20.395  0.00  0.00    +0.000 NA
ATOM      7  C   UNL     1       1.495   3.810  21.227  0.00  0.00    +0.000 C 
ATOM      8  C   UNL     1       2.620   2.809  21.524  0.00  0.00    +0.000 C 
ATOM      9  C   UNL     1       3.460   2.549  20.273  0.00  0.00    +0.000 C 
ATOM     10  C   UNL     1       4.097   3.847  19.747  0.00  0.00    +0.000 C 
ATOM     11  H   UNL     1       2.649   8.364  18.474  0.00  0.00    +0.000 HD
ENDROOT
BRANCH   1  19
ATOM     12  N   UNL     1      -1.044  11.138  19.391  0.00  0.00    +0.000 N 
ATOM     13  C   UNL     1      -0.485  10.578  20.633  0.00  0.00    +0.000 C 
ATOM     14  C   UNL     1       0.930  10.026  20.383  0.00  0.00    +0.000 C 
ATOM     15  C   UNL     1       1.826  11.077  19.697  0.00  0.00    +0.000 C 
ATOM     16  C   UNL     1       1.581  10.900  18.193  0.00  0.00    +0.000 C 
ATOM     17  C   UNL     1       0.554   9.757  18.093  0.00  0.00    +0.000 C 
ATOM     18  C   UNL     1      -0.876  10.336  18.167  0.00  0.00    +0.000 C 
ATOM     19  C   UNL     1       0.805   8.904  19.350  0.00  0.00    +0.000 C 
BRANCH  12  23
ATOM     20  C   UNL     1      -5.564  11.930  17.645  0.00  0.00    +0.000 C 
ATOM     21  C   UNL     1      -4.507  12.084  18.696  0.00  0.00    +0.000 A 
ATOM     22  C   UNL     1      -3.272  11.483  18.550  0.00  0.00    +0.000 A 
ATOM     23  C   UNL     1      -2.325  11.697  19.540  0.00  0.00    +0.000 A 
ATOM     24  N   UNL     1      -2.604  12.468  20.605  0.00  0.00    +0.000 NA
ATOM     25  C   UNL     1      -3.837  12.993  20.669  0.00  0.00    +0.000 A 
ATOM     26  N   UNL     1      -4.814  12.840  19.765  0.00  0.00    +0.000 NA
ENDBRANCH  12  23
ENDBRANCH   1  19
BRANCH  10  27
ATOM     27  O   UNL     1       4.513   3.637  18.395  0.00  0.00    +0.000 OA
BRANCH  27  28
ATOM     28  C   UNL     1       5.436   4.485  17.856  0.00  0.00    +0.000 A 
ATOM     29  C   UNL     1       5.408   4.574  16.461  0.00  0.00    +0.000 A 
ATOM     30  C   UNL     1       6.291   5.414  15.779  0.00  0.00    +0.000 A 
ATOM     31  C   UNL     1       7.208   6.179  16.496  0.00  0.00    +0.000 A 
ATOM     32  C   UNL     1       7.217   6.114  17.887  0.00  0.00    +0.000 A 
ATOM     33 CL   UNL     1       8.336   7.074  18.778  0.00  0.00    +0.000 Cl
ATOM     34  C   UNL     1       6.330   5.282  18.570  0.00  0.00    +0.000 A 
ENDBRANCH  27  28
ENDBRANCH  10  27
TORSDOF 4
ENDMDL
MODEL 7
REMARK VINA RESULT:      -7.9      1.586      1.908
REMARK  Name = 
REMARK  5 active torsions:
REMARK  status: ('A' for Active; 'I' for Inactive)
REMARK    1  A    between atoms: C_1  and  C_2
REMARK    2  A    between atoms: C_4  and  N_5
REMARK    3  A    between atoms: C_12  and  N_13
REMARK    4  A    between atoms: C_22  and  O_23
REMARK    5  A    between atoms: O_23  and  C_24
REMARK                            x       y       z     vdW  Elec       q    Type
REMARK                         _______ _______ _______ _____ _____    ______ ____
ROOT
ATOM      1  N   UNL     1       1.937   8.262  19.313  0.00  0.00    +0.000 N 
ATOM      2  C   UNL     1       2.028   6.974  19.675  0.00  0.00    +0.000 A 
ATOM      3  N   UNL     1       3.121   6.301  19.193  0.00  0.00    +0.000 NA
ATOM      4  C   UNL     1       3.006   5.096  19.714  0.00  0.00    +0.000 A 
ATOM      5  N   UNL     1       1.880   5.060  20.479  0.00  0.00    +0.000 N 
ATOM      6  N   UNL     1       1.232   6.240  20.459  0.00  0.00    +0.000 NA
ATOM      7  C   UNL     1       1.415   3.918  21.236  0.00  0.00    +0.000 C 
ATOM      8  C   UNL     1       2.536   2.896  21.472  0.00  0.00    +0.000 C 
ATOM      9  C   UNL     1       3.326   2.650  20.186  0.00  0.00    +0.000 C 
ATOM     10  C   UNL     1       3.963   3.950  19.664  0.00  0.00    +0.000 C 
ATOM     11  H   UNL     1       2.536   8.512  18.537  0.00  0.00    +0.000 HD
ENDROOT
BRANCH   1  19
ATOM     12  N   UNL     1      -1.076  11.320  19.669  0.00  0.00    +0.000 N 
ATOM     13  C   UNL     1      -0.501  10.696  20.873  0.00  0.00    +0.000 C 
ATOM     14  C   UNL     1       0.898  10.133  20.568  0.00  0.00    +0.000 C 
ATOM     15  C   UNL     1       1.798  11.198  19.910  0.00  0.00    +0.000 C 
ATOM     16  C   UNL     1       1.519  11.091  18.406  0.00  0.00    +0.000 C 
ATOM     17  C   UNL     1       0.470   9.971  18.278  0.00  0.00    +0.000 C 
ATOM     18  C   UNL     1      -0.948  10.569  18.408  0.00  0.00    +0.000 C 
ATOM     19  C   UNL     1       0.732   9.059  19.491  0.00  0.00    +0.000 C 
BRANCH  12  23
ATOM     20  C   UNL     1      -4.202  13.829  22.502  0.00  0.00    +0.000 C 
ATOM     21  C   UNL     1      -3.856  13.101  21.239  0.00  0.00    +0.000 A 
ATOM     22  C   UNL     1      -2.588  12.590  21.043  0.00  0.00    +0.000 A 
ATOM     23  C   UNL     1      -2.344  11.892  19.870  0.00  0.00    +0.000 A 
ATOM     24  N   UNL     1      -3.315  11.718  18.958  0.00  0.00    +0.000 NA
ATOM     25  C   UNL     1      -4.508  12.267  19.228  0.00  0.00    +0.000 A 
ATOM     26  N   UNL     1      -4.835  12.957  20.329  0.00  0.00    +0.000 NA
ENDBRANCH  12  23
ENDBRANCH   1  19
BRANCH  10  27
ATOM     27  O   UNL     1       4.326   3.762  18.294  0.00  0.00    +0.000 OA
BRANCH  27  28
ATOM     28  C   UNL     1       5.311   4.546  17.767  0.00  0.00    +0.000 A 
ATOM     29  C   UNL     1       5.344   4.588  16.370  0.00  0.00    +0.000 A 
ATOM     30  C   UNL     1       6.295   5.359  15.698  0.00  0.00    +0.000 A 
ATOM     31  C   UNL     1       7.219   6.103  16.428  0.00  0.00    +0.000 A 
ATOM     32  C   UNL     1       7.170   6.085  17.818  0.00  0.00    +0.000 A 
ATOM     33 CL   UNL     1       8.299   7.019  18.724  0.00  0.00    +0.000 Cl
ATOM     34  C   UNL     1       6.215   5.321  18.491  0.00  0.00    +0.000 A 
ENDBRANCH  27  28
ENDBRANCH  10  27
TORSDOF 4
ENDMDL
MODEL 8
REMARK VINA RESULT:      -7.9      3.361      5.159
REMARK  Name = 
REMARK  5 active torsions:
REMARK  status: ('A' for Active; 'I' for Inactive)
REMARK    1  A    between atoms: C_1  and  C_2
REMARK    2  A    between atoms: C_4  and  N_5
REMARK    3  A    between atoms: C_12  and  N_13
REMARK    4  A    between atoms: C_22  and  O_23
REMARK    5  A    between atoms: O_23  and  C_24
REMARK                            x       y       z     vdW  Elec       q    Type
REMARK                         _______ _______ _______ _____ _____    ______ ____
ROOT
ATOM      1  N   UNL     1       1.838   7.918  19.012  0.00  0.00    +0.000 N 
ATOM      2  C   UNL     1       2.798   7.324  18.289  0.00  0.00    +0.000 A 
ATOM      3  N   UNL     1       2.775   5.953  18.290  0.00  0.00    +0.000 NA
ATOM      4  C   UNL     1       3.767   5.619  17.491  0.00  0.00    +0.000 A 
ATOM      5  N   UNL     1       4.358   6.757  17.034  0.00  0.00    +0.000 N 
ATOM      6  N   UNL     1       3.767   7.857  17.539  0.00  0.00    +0.000 NA
ATOM      7  C   UNL     1       5.474   6.813  16.115  0.00  0.00    +0.000 C 
ATOM      8  C   UNL     1       5.645   5.497  15.343  0.00  0.00    +0.000 C 
ATOM      9  C   UNL     1       5.530   4.297  16.283  0.00  0.00    +0.000 C 
ATOM     10  C   UNL     1       4.162   4.268  16.988  0.00  0.00    +0.000 C 
ATOM     11  H   UNL     1       1.374   7.299  19.664  0.00  0.00    +0.000 HD
ENDROOT
BRANCH   1  19
ATOM     12  N   UNL     1       1.014  12.074  19.795  0.00  0.00    +0.000 N 
ATOM     13  C   UNL     1       1.725  11.673  18.568  0.00  0.00    +0.000 C 
ATOM     14  C   UNL     1       1.381  10.218  18.201  0.00  0.00    +0.000 C 
ATOM     15  C   UNL     1      -0.145   9.999  18.155  0.00  0.00    +0.000 C 
ATOM     16  C   UNL     1      -0.547   9.644  19.591  0.00  0.00    +0.000 C 
ATOM     17  C   UNL     1       0.769   9.680  20.390  0.00  0.00    +0.000 C 
ATOM     18  C   UNL     1       1.022  11.112  20.910  0.00  0.00    +0.000 C 
ATOM     19  C   UNL     1       1.855   9.333  19.355  0.00  0.00    +0.000 C 
BRANCH  12  23
ATOM     20  C   UNL     1       1.626  16.797  18.607  0.00  0.00    +0.000 C 
ATOM     21  C   UNL     1       1.546  15.686  19.609  0.00  0.00    +0.000 A 
ATOM     22  C   UNL     1       1.267  14.393  19.210  0.00  0.00    +0.000 A 
ATOM     23  C   UNL     1       1.246  13.404  20.182  0.00  0.00    +0.000 A 
ATOM     24  N   UNL     1       1.494  13.699  21.469  0.00  0.00    +0.000 NA
ATOM     25  C   UNL     1       1.736  14.985  21.763  0.00  0.00    +0.000 A 
ATOM     26  N   UNL     1       1.774  16.005  20.896  0.00  0.00    +0.000 NA
ENDBRANCH  12  23
ENDBRANCH   1  19
BRANCH  10  27
ATOM     27  O   UNL     1       4.251   3.404  18.124  0.00  0.00    +0.000 OA
BRANCH  27  28
ATOM     28  C   UNL     1       3.100   3.044  18.763  0.00  0.00    +0.000 A 
ATOM     29  C   UNL     1       2.063   2.637  17.919  0.00  0.00    +0.000 A 
ATOM     30  C   UNL     1       0.833   2.231  18.441  0.00  0.00    +0.000 A 
ATOM     31  C   UNL     1       0.637   2.225  19.820  0.00  0.00    +0.000 A 
ATOM     32  C   UNL     1       1.679   2.602  20.663  0.00  0.00    +0.000 A 
ATOM     33 CL   UNL     1       1.447   2.577  22.370  0.00  0.00    +0.000 Cl
ATOM     34  C   UNL     1       2.912   3.000  20.143  0.00  0.00    +0.000 A 
ENDBRANCH  27  28
ENDBRANCH  10  27
TORSDOF 4
ENDMDL
MODEL 9
REMARK VINA RESULT:      -7.8      6.735      8.979
REMARK  Name = 
REMARK  5 active torsions:
REMARK  status: ('A' for Active; 'I' for Inactive)
REMARK    1  A    between atoms: C_1  and  C_2
REMARK    2  A    between atoms: C_4  and  N_5
REMARK    3  A    between atoms: C_12  and  N_13
REMARK    4  A    between atoms: C_22  and  O_23
REMARK    5  A    between atoms: O_23  and  C_24
REMARK                            x       y       z     vdW  Elec       q    Type
REMARK                         _______ _______ _______ _____ _____    ______ ____
ROOT
ATOM      1  N   UNL     1       8.366  10.296  17.632  0.00  0.00    +0.000 N 
ATOM      2  C   UNL     1       8.175   8.997  17.901  0.00  0.00    +0.000 A 
ATOM      3  N   UNL     1       7.623   8.258  16.887  0.00  0.00    +0.000 NA
ATOM      4  C   UNL     1       7.579   7.035  17.373  0.00  0.00    +0.000 A 
ATOM      5  N   UNL     1       8.089   7.051  18.635  0.00  0.00    +0.000 N 
ATOM      6  N   UNL     1       8.464   8.292  19.000  0.00  0.00    +0.000 NA
ATOM      7  C   UNL     1       8.233   5.899  19.498  0.00  0.00    +0.000 C 
ATOM      8  C   UNL     1       8.187   4.584  18.707  0.00  0.00    +0.000 C 
ATOM      9  C   UNL     1       7.043   4.601  17.692  0.00  0.00    +0.000 C 
ATOM     10  C   UNL     1       7.200   5.760  16.692  0.00  0.00    +0.000 C 
ATOM     11  H   UNL     1       7.858  10.625  16.821  0.00  0.00    +0.000 HD
ENDROOT
BRANCH   1  19
ATOM     12  N   UNL     1       9.988  13.432  20.100  0.00  0.00    +0.000 N 
ATOM     13  C   UNL     1      10.213  12.018  20.448  0.00  0.00    +0.000 C 
ATOM     14  C   UNL     1      10.104  11.134  19.192  0.00  0.00    +0.000 C 
ATOM     15  C   UNL     1      11.002  11.663  18.057  0.00  0.00    +0.000 C 
ATOM     16  C   UNL     1      10.146  12.690  17.306  0.00  0.00    +0.000 C 
ATOM     17  C   UNL     1       8.799  12.701  18.052  0.00  0.00    +0.000 C 
ATOM     18  C   UNL     1       8.853  13.723  19.208  0.00  0.00    +0.000 C 
ATOM     19  C   UNL     1       8.681  11.287  18.651  0.00  0.00    +0.000 C 
BRANCH  12  23
ATOM     20  C   UNL     1       8.568  14.876  24.572  0.00  0.00    +0.000 C 
ATOM     21  C   UNL     1       9.418  15.016  23.346  0.00  0.00    +0.000 A 
ATOM     22  C   UNL     1       9.320  14.106  22.311  0.00  0.00    +0.000 A 
ATOM     23  C   UNL     1      10.106  14.314  21.187  0.00  0.00    +0.000 A 
ATOM     24  N   UNL     1      10.932  15.372  21.111  0.00  0.00    +0.000 NA
ATOM     25  C   UNL     1      10.973  16.188  22.174  0.00  0.00    +0.000 A 
ATOM     26  N   UNL     1      10.255  16.067  23.299  0.00  0.00    +0.000 NA
ENDBRANCH  12  23
ENDBRANCH   1  19
BRANCH  10  27
ATOM     27  O   UNL     1       5.943   5.982  16.048  0.00  0.00    +0.000 OA
BRANCH  27  28
ATOM     28  C   UNL     1       4.801   5.626  16.705  0.00  0.00    +0.000 A 
ATOM     29  C   UNL     1       4.120   6.684  17.314  0.00  0.00    +0.000 A 
ATOM     30  C   UNL     1       2.930   6.463  18.011  0.00  0.00    +0.000 A 
ATOM     31  C   UNL     1       2.410   5.174  18.096  0.00  0.00    +0.000 A 
ATOM     32  C   UNL     1       3.072   4.124  17.466  0.00  0.00    +0.000 A 
ATOM     33 CL   UNL     1       2.421   2.531  17.552  0.00  0.00    +0.000 Cl
ATOM     34  C   UNL     1       4.256   4.344  16.762  0.00  0.00    +0.000 A 
ENDBRANCH  27  28
ENDBRANCH  10  27
TORSDOF 4
ENDMDL
