MODEL 1
REMARK VINA RESULT:      -6.9      0.000      0.000
REMARK  Name = 
REMARK  5 active torsions:
REMARK  status: ('A' for Active; 'I' for Inactive)
REMARK    1  A    between atoms: C_1  and  C_2
REMARK    2  A    between atoms: N_5  and  C_6
REMARK    3  A    between atoms: C_7  and  S_8
REMARK    4  A    between atoms: S_8  and  C_11
REMARK    5  A    between atoms: C_15  and  C_16
REMARK                            x       y       z     vdW  Elec       q    Type
REMARK                         _______ _______ _______ _____ _____    ______ ____
ROOT
ATOM      1  C   UNL     1       5.437   4.067  16.329  0.00  0.00    +0.000 A 
ATOM      2  C   UNL     1       6.277   4.832  17.191  0.00  0.00    +0.000 A 
ATOM      3  C   UNL     1       7.351   5.523  16.638  0.00  0.00    +0.000 A 
ATOM      4  N   UNL     1       7.697   5.515  15.337  0.00  0.00    +0.000 NA
ATOM      5  C   UNL     1       6.963   4.793  14.502  0.00  0.00    +0.000 A 
ATOM      6  C   UNL     1       7.360   4.856  13.167  0.00  0.00    +0.000 A 
ATOM      7  C   UNL     1       6.705   4.156  12.162  0.00  0.00    +0.000 A 
ATOM      8  C   UNL     1       5.656   3.337  12.515  0.00  0.00    +0.000 A 
ATOM      9 CL   UNL     1       4.811   2.444  11.312  0.00  0.00    +0.000 Cl
ATOM     10  C   UNL     1       5.273   3.237  13.856  0.00  0.00    +0.000 A 
ATOM     11  C   UNL     1       5.851   4.011  14.911  0.00  0.00    +0.000 A 
ENDROOT
BRANCH   1  16
ATOM     12  C   UNL     1       0.781   2.123  18.997  0.00  0.00    +0.000 C 
ATOM     13  C   UNL     1       1.799   2.284  17.875  0.00  0.00    +0.000 C 
ATOM     14  C   UNL     1       3.207   1.895  18.323  0.00  0.00    +0.000 C 
ATOM     15  C   UNL     1       4.175   2.065  17.150  0.00  0.00    +0.000 C 
ATOM     16  N   UNL     1       4.228   3.479  16.765  0.00  0.00    +0.000 N 
ATOM     17  C   UNL     1       2.903   3.969  16.332  0.00  0.00    +0.000 C 
ATOM     18  C   UNL     1       1.817   3.732  17.377  0.00  0.00    +0.000 C 
ENDBRANCH   1  16
BRANCH   2  19
ATOM     19  S   UNL     1       6.017   5.255  18.913  0.00  0.00    +0.000 S 
ATOM     20  O   UNL     1       6.053   4.019  19.676  0.00  0.00    +0.000 OA
ATOM     21  O   UNL     1       6.945   6.309  19.257  0.00  0.00    +0.000 OA
BRANCH  19  22
ATOM     22  C   UNL     1       4.364   5.867  19.245  0.00  0.00    +0.000 A 
ATOM     23  C   UNL     1       3.585   5.184  20.193  0.00  0.00    +0.000 A 
ATOM     24  C   UNL     1       2.284   5.609  20.464  0.00  0.00    +0.000 A 
ATOM     25  C   UNL     1       1.759   6.712  19.794  0.00  0.00    +0.000 A 
ATOM     26  C   UNL     1       2.540   7.411  18.862  0.00  0.00    +0.000 A 
ATOM     27  C   UNL     1       3.853   6.992  18.587  0.00  0.00    +0.000 A 
BRANCH  26  28
ATOM     28  C   UNL     1       1.991   8.555  18.187  0.00  0.00    +0.000 C 
ATOM     29  N   UNL     1       1.559   9.477  17.637  0.00  0.00    +0.000 NA
ENDBRANCH  26  28
ENDBRANCH  19  22
ENDBRANCH   2  19
TORSDOF 4
ENDMDL
MODEL 2
REMARK VINA RESULT:      -6.4      8.608     12.037
REMARK  Name = 
REMARK  5 active torsions:
REMARK  status: ('A' for Active; 'I' for Inactive)
REMARK    1  A    between atoms: C_1  and  C_2
REMARK    2  A    between atoms: N_5  and  C_6
REMARK    3  A    between atoms: C_7  and  S_8
REMARK    4  A    between atoms: S_8  and  C_11
REMARK    5  A    between atoms: C_15  and  C_16
REMARK                            x       y       z     vdW  Elec       q    Type
REMARK                         _______ _______ _______ _____ _____    ______ ____
ROOT
ATOM      1  C   UNL     1       6.758  14.730  20.817  0.00  0.00    +0.000 A 
ATOM      2  C   UNL     1       7.136  14.054  22.015  0.00  0.00    +0.000 A 
ATOM      3  C   UNL     1       6.139  13.657  22.902  0.00  0.00    +0.000 A 
ATOM      4  N   UNL     1       4.821  13.882  22.745  0.00  0.00    +0.000 NA
ATOM      5  C   UNL     1       4.425  14.534  21.661  0.00  0.00    +0.000 A 
ATOM      6  C   UNL     1       3.046  14.704  21.550  0.00  0.00    +0.000 A 
ATOM      7  C   UNL     1       2.462  15.370  20.479  0.00  0.00    +0.000 A 
ATOM      8  C   UNL     1       3.288  15.919  19.524  0.00  0.00    +0.000 A 
ATOM      9 CL   UNL     1       2.620  16.757  18.179  0.00  0.00    +0.000 Cl
ATOM     10  C   UNL     1       4.674  15.787  19.646  0.00  0.00    +0.000 A 
ATOM     11  C   UNL     1       5.318  15.028  20.674  0.00  0.00    +0.000 A 
ENDROOT
BRANCH   1  16
ATOM     12  C   UNL     1      11.132  15.358  17.205  0.00  0.00    +0.000 C 
ATOM     13  C   UNL     1       9.733  15.560  17.774  0.00  0.00    +0.000 C 
ATOM     14  C   UNL     1       9.771  16.126  19.192  0.00  0.00    +0.000 C 
ATOM     15  C   UNL     1       8.339  16.318  19.698  0.00  0.00    +0.000 C 
ATOM     16  N   UNL     1       7.675  15.013  19.779  0.00  0.00    +0.000 N 
ATOM     17  C   UNL     1       7.602  14.361  18.455  0.00  0.00    +0.000 C 
ATOM     18  C   UNL     1       8.968  14.233  17.787  0.00  0.00    +0.000 C 
ENDBRANCH   1  16
BRANCH   2  19
ATOM     19  S   UNL     1       8.740  13.395  22.465  0.00  0.00    +0.000 S 
ATOM     20  O   UNL     1       9.634  14.522  22.667  0.00  0.00    +0.000 OA
ATOM     21  O   UNL     1       8.548  12.459  23.550  0.00  0.00    +0.000 OA
BRANCH  19  22
ATOM     22  C   UNL     1       9.535  12.505  21.125  0.00  0.00    +0.000 A 
ATOM     23  C   UNL     1      10.847  12.869  20.778  0.00  0.00    +0.000 A 
ATOM     24  C   UNL     1      11.495  12.223  19.725  0.00  0.00    +0.000 A 
ATOM     25  C   UNL     1      10.840  11.215  19.019  0.00  0.00    +0.000 A 
ATOM     26  C   UNL     1       9.539  10.833  19.376  0.00  0.00    +0.000 A 
ATOM     27  C   UNL     1       8.881  11.476  20.438  0.00  0.00    +0.000 A 
BRANCH  26  28
ATOM     28  C   UNL     1       8.880   9.783  18.649  0.00  0.00    +0.000 C 
ATOM     29  N   UNL     1       8.338   8.941  18.068  0.00  0.00    +0.000 NA
ENDBRANCH  26  28
ENDBRANCH  19  22
ENDBRANCH   2  19
TORSDOF 4
ENDMDL
MODEL 3
REMARK VINA RESULT:      -6.1      1.394      2.087
REMARK  Name = 
REMARK  5 active torsions:
REMARK  status: ('A' for Active; 'I' for Inactive)
REMARK    1  A    between atoms: C_1  and  C_2
REMARK    2  A    between atoms: N_5  and  C_6
REMARK    3  A    between atoms: C_7  and  S_8
REMARK    4  A    between atoms: S_8  and  C_11
REMARK    5  A    between atoms: C_15  and  C_16
REMARK                            x       y       z     vdW  Elec       q    Type
REMARK                         _______ _______ _______ _____ _____    ______ ____
ROOT
ATOM      1  C   UNL     1       5.610   4.072  16.212  0.00  0.00    +0.000 A 
ATOM      2  C   UNL     1       6.446   4.876  17.042  0.00  0.00    +0.000 A 
ATOM      3  C   UNL     1       7.449   5.635  16.446  0.00  0.00    +0.000 A 
ATOM      4  N   UNL     1       7.731   5.660  15.130  0.00  0.00    +0.000 NA
ATOM      5  C   UNL     1       6.999   4.905  14.322  0.00  0.00    +0.000 A 
ATOM      6  C   UNL     1       7.326   5.004  12.971  0.00  0.00    +0.000 A 
ATOM      7  C   UNL     1       6.663   4.277  11.990  0.00  0.00    +0.000 A 
ATOM      8  C   UNL     1       5.683   3.394  12.382  0.00  0.00    +0.000 A 
ATOM      9 CL   UNL     1       4.833   2.466  11.211  0.00  0.00    +0.000 Cl
ATOM     10  C   UNL     1       5.373   3.259  13.739  0.00  0.00    +0.000 A 
ATOM     11  C   UNL     1       5.956   4.055  14.775  0.00  0.00    +0.000 A 
ENDROOT
BRANCH   1  16
ATOM     12  C   UNL     1       1.170   1.891  19.057  0.00  0.00    +0.000 C 
ATOM     13  C   UNL     1       2.155   2.077  17.911  0.00  0.00    +0.000 C 
ATOM     14  C   UNL     1       3.597   1.830  18.354  0.00  0.00    +0.000 C 
ATOM     15  C   UNL     1       4.531   2.018  17.156  0.00  0.00    +0.000 C 
ATOM     16  N   UNL     1       4.460   3.410  16.699  0.00  0.00    +0.000 N 
ATOM     17  C   UNL     1       3.094   3.766  16.265  0.00  0.00    +0.000 C 
ATOM     18  C   UNL     1       2.045   3.494  17.340  0.00  0.00    +0.000 C 
ENDBRANCH   1  16
BRANCH   2  19
ATOM     19  S   UNL     1       6.247   5.266  18.779  0.00  0.00    +0.000 S 
ATOM     20  O   UNL     1       6.710   4.117  19.540  0.00  0.00    +0.000 OA
ATOM     21  O   UNL     1       6.865   6.551  19.020  0.00  0.00    +0.000 OA
BRANCH  19  22
ATOM     22  C   UNL     1       4.529   5.395  19.279  0.00  0.00    +0.000 A 
ATOM     23  C   UNL     1       3.756   6.427  18.723  0.00  0.00    +0.000 A 
ATOM     24  C   UNL     1       2.423   6.583  19.102  0.00  0.00    +0.000 A 
ATOM     25  C   UNL     1       1.859   5.713  20.035  0.00  0.00    +0.000 A 
ATOM     26  C   UNL     1       2.620   4.668  20.577  0.00  0.00    +0.000 A 
ATOM     27  C   UNL     1       3.963   4.502  20.196  0.00  0.00    +0.000 A 
BRANCH  26  28
ATOM     28  C   UNL     1       2.023   3.770  21.527  0.00  0.00    +0.000 C 
ATOM     29  N   UNL     1       1.554   3.040  22.293  0.00  0.00    +0.000 NA
ENDBRANCH  26  28
ENDBRANCH  19  22
ENDBRANCH   2  19
TORSDOF 4
ENDMDL
MODEL 4
REMARK VINA RESULT:      -6.1      6.909     11.028
REMARK  Name = 
REMARK  5 active torsions:
REMARK  status: ('A' for Active; 'I' for Inactive)
REMARK    1  A    between atoms: C_1  and  C_2
REMARK    2  A    between atoms: N_5  and  C_6
REMARK    3  A    between atoms: C_7  and  S_8
REMARK    4  A    between atoms: S_8  and  C_11
REMARK    5  A    between atoms: C_15  and  C_16
REMARK                            x       y       z     vdW  Elec       q    Type
REMARK                         _______ _______ _______ _____ _____    ______ ____
ROOT
ATOM      1  C   UNL     1      -2.035  11.803  19.998  0.00  0.00    +0.000 A 
ATOM      2  C   UNL     1      -1.007  10.976  19.458  0.00  0.00    +0.000 A 
ATOM      3  C   UNL     1      -1.210  10.381  18.216  0.00  0.00    +0.000 A 
ATOM      4  N   UNL     1      -2.326  10.491  17.472  0.00  0.00    +0.000 NA
ATOM      5  C   UNL     1      -3.322  11.226  17.948  0.00  0.00    +0.000 A 
ATOM      6  C   UNL     1      -4.432  11.321  17.111  0.00  0.00    +0.000 A 
ATOM      7  C   UNL     1      -5.565  12.047  17.458  0.00  0.00    +0.000 A 
ATOM      8  C   UNL     1      -5.601  12.650  18.695  0.00  0.00    +0.000 A 
ATOM      9 CL   UNL     1      -6.979  13.557  19.178  0.00  0.00    +0.000 Cl
ATOM     10  C   UNL     1      -4.507  12.529  19.558  0.00  0.00    +0.000 A 
ATOM     11  C   UNL     1      -3.282  11.877  19.209  0.00  0.00    +0.000 A 
ENDROOT
BRANCH   1  16
ATOM     12  C   UNL     1      -2.182  15.414  24.416  0.00  0.00    +0.000 C 
ATOM     13  C   UNL     1      -1.615  14.357  23.478  0.00  0.00    +0.000 C 
ATOM     14  C   UNL     1      -1.550  14.851  22.034  0.00  0.00    +0.000 C 
ATOM     15  C   UNL     1      -0.960  13.751  21.149  0.00  0.00    +0.000 C 
ATOM     16  N   UNL     1      -1.852  12.588  21.160  0.00  0.00    +0.000 N 
ATOM     17  C   UNL     1      -2.004  12.038  22.523  0.00  0.00    +0.000 C 
ATOM     18  C   UNL     1      -2.466  13.085  23.532  0.00  0.00    +0.000 C 
ENDBRANCH   1  16
BRANCH   2  19
ATOM     19  S   UNL     1       0.675  10.765  20.040  0.00  0.00    +0.000 S 
ATOM     20  O   UNL     1       1.483  11.805  19.425  0.00  0.00    +0.000 OA
ATOM     21  O   UNL     1       0.639  10.677  21.483  0.00  0.00    +0.000 OA
BRANCH  19  22
ATOM     22  C   UNL     1       1.447   9.264  19.431  0.00  0.00    +0.000 A 
ATOM     23  C   UNL     1       1.997   9.282  18.139  0.00  0.00    +0.000 A 
ATOM     24  C   UNL     1       2.583   8.130  17.614  0.00  0.00    +0.000 A 
ATOM     25  C   UNL     1       2.624   6.962  18.374  0.00  0.00    +0.000 A 
ATOM     26  C   UNL     1       2.096   6.945  19.673  0.00  0.00    +0.000 A 
ATOM     27  C   UNL     1       1.507   8.103  20.210  0.00  0.00    +0.000 A 
BRANCH  26  28
ATOM     28  C   UNL     1       2.155   5.738  20.450  0.00  0.00    +0.000 C 
ATOM     29  N   UNL     1       2.207   4.759  21.066  0.00  0.00    +0.000 NA
ENDBRANCH  26  28
ENDBRANCH  19  22
ENDBRANCH   2  19
TORSDOF 4
ENDMDL
MODEL 5
REMARK VINA RESULT:      -6.1      7.069     11.159
REMARK  Name = 
REMARK  5 active torsions:
REMARK  status: ('A' for Active; 'I' for Inactive)
REMARK    1  A    between atoms: C_1  and  C_2
REMARK    2  A    between atoms: N_5  and  C_6
REMARK    3  A    between atoms: C_7  and  S_8
REMARK    4  A    between atoms: S_8  and  C_11
REMARK    5  A    between atoms: C_15  and  C_16
REMARK                            x       y       z     vdW  Elec       q    Type
REMARK                         _______ _______ _______ _____ _____    ______ ____
ROOT
ATOM      1  C   UNL     1      -2.412  11.965  19.839  0.00  0.00    +0.000 A 
ATOM      2  C   UNL     1      -1.348  11.116  19.415  0.00  0.00    +0.000 A 
ATOM      3  C   UNL     1      -1.481  10.426  18.213  0.00  0.00    +0.000 A 
ATOM      4  N   UNL     1      -2.560  10.461  17.409  0.00  0.00    +0.000 NA
ATOM      5  C   UNL     1      -3.587  11.213  17.778  0.00  0.00    +0.000 A 
ATOM      6  C   UNL     1      -4.656  11.227  16.883  0.00  0.00    +0.000 A 
ATOM      7  C   UNL     1      -5.814  11.957  17.118  0.00  0.00    +0.000 A 
ATOM      8  C   UNL     1      -5.919  12.651  18.302  0.00  0.00    +0.000 A 
ATOM      9 CL   UNL     1      -7.331  13.569  18.646  0.00  0.00    +0.000 Cl
ATOM     10  C   UNL     1      -4.868  12.614  19.224  0.00  0.00    +0.000 A 
ATOM     11  C   UNL     1      -3.619  11.958  18.986  0.00  0.00    +0.000 A 
ENDROOT
BRANCH   1  16
ATOM     12  C   UNL     1      -1.070  14.994  24.486  0.00  0.00    +0.000 C 
ATOM     13  C   UNL     1      -1.919  14.502  23.321  0.00  0.00    +0.000 C 
ATOM     14  C   UNL     1      -2.147  12.992  23.381  0.00  0.00    +0.000 C 
ATOM     15  C   UNL     1      -3.016  12.566  22.194  0.00  0.00    +0.000 C 
ATOM     16  N   UNL     1      -2.298  12.838  20.945  0.00  0.00    +0.000 N 
ATOM     17  C   UNL     1      -2.004  14.278  20.795  0.00  0.00    +0.000 C 
ATOM     18  C   UNL     1      -1.249  14.852  21.989  0.00  0.00    +0.000 C 
ENDBRANCH   1  16
BRANCH   2  19
ATOM     19  S   UNL     1       0.305  10.978  20.092  0.00  0.00    +0.000 S 
ATOM     20  O   UNL     1       1.082  12.094  19.579  0.00  0.00    +0.000 OA
ATOM     21  O   UNL     1       0.187  10.815  21.524  0.00  0.00    +0.000 OA
BRANCH  19  22
ATOM     22  C   UNL     1       1.206   9.559  19.465  0.00  0.00    +0.000 A 
ATOM     23  C   UNL     1       1.822   9.671  18.207  0.00  0.00    +0.000 A 
ATOM     24  C   UNL     1       2.511   8.585  17.668  0.00  0.00    +0.000 A 
ATOM     25  C   UNL     1       2.588   7.387  18.379  0.00  0.00    +0.000 A 
ATOM     26  C   UNL     1       1.993   7.277  19.644  0.00  0.00    +0.000 A 
ATOM     27  C   UNL     1       1.301   8.369  20.196  0.00  0.00    +0.000 A 
BRANCH  26  28
ATOM     28  C   UNL     1       2.091   6.042  20.371  0.00  0.00    +0.000 C 
ATOM     29  N   UNL     1       2.182   5.051  20.962  0.00  0.00    +0.000 NA
ENDBRANCH  26  28
ENDBRANCH  19  22
ENDBRANCH   2  19
TORSDOF 4
ENDMDL
MODEL 6
REMARK VINA RESULT:      -5.9      6.534     10.388
REMARK  Name = 
REMARK  5 active torsions:
REMARK  status: ('A' for Active; 'I' for Inactive)
REMARK    1  A    between atoms: C_1  and  C_2
REMARK    2  A    between atoms: N_5  and  C_6
REMARK    3  A    between atoms: C_7  and  S_8
REMARK    4  A    between atoms: S_8  and  C_11
REMARK    5  A    between atoms: C_15  and  C_16
REMARK                            x       y       z     vdW  Elec       q    Type
REMARK                         _______ _______ _______ _____ _____    ______ ____
ROOT
ATOM      1  C   UNL     1      -0.015  13.054  19.598  0.00  0.00    +0.000 A 
ATOM      2  C   UNL     1       0.851  12.196  20.338  0.00  0.00    +0.000 A 
ATOM      3  C   UNL     1       2.014  12.730  20.886  0.00  0.00    +0.000 A 
ATOM      4  N   UNL     1       2.424  14.006  20.755  0.00  0.00    +0.000 NA
ATOM      5  C   UNL     1       1.665  14.834  20.050  0.00  0.00    +0.000 A 
ATOM      6  C   UNL     1       2.134  16.145  19.982  0.00  0.00    +0.000 A 
ATOM      7  C   UNL     1       1.466  17.139  19.279  0.00  0.00    +0.000 A 
ATOM      8  C   UNL     1       0.325  16.795  18.588  0.00  0.00    +0.000 A 
ATOM      9 CL   UNL     1      -0.541  17.985  17.698  0.00  0.00    +0.000 Cl
ATOM     10  C   UNL     1      -0.133  15.475  18.618  0.00  0.00    +0.000 A 
ATOM     11  C   UNL     1       0.463  14.439  19.405  0.00  0.00    +0.000 A 
ENDROOT
BRANCH   1  16
ATOM     12  C   UNL     1      -4.972  10.542  18.298  0.00  0.00    +0.000 C 
ATOM     13  C   UNL     1      -3.884  11.608  18.278  0.00  0.00    +0.000 C 
ATOM     14  C   UNL     1      -2.546  11.048  17.799  0.00  0.00    +0.000 C 
ATOM     15  C   UNL     1      -1.504  12.169  17.789  0.00  0.00    +0.000 C 
ATOM     16  N   UNL     1      -1.296  12.651  19.158  0.00  0.00    +0.000 N 
ATOM     17  C   UNL     1      -2.543  13.198  19.732  0.00  0.00    +0.000 C 
ATOM     18  C   UNL     1      -3.701  12.208  19.675  0.00  0.00    +0.000 C 
ENDBRANCH   1  16
BRANCH   2  19
ATOM     19  S   UNL     1       0.547  10.523  20.902  0.00  0.00    +0.000 S 
ATOM     20  O   UNL     1       1.259  10.348  22.156  0.00  0.00    +0.000 OA
ATOM     21  O   UNL     1      -0.882  10.298  20.878  0.00  0.00    +0.000 OA
BRANCH  19  22
ATOM     22  C   UNL     1       1.301   9.279  19.852  0.00  0.00    +0.000 A 
ATOM     23  C   UNL     1       1.513   9.596  18.500  0.00  0.00    +0.000 A 
ATOM     24  C   UNL     1       2.072   8.650  17.641  0.00  0.00    +0.000 A 
ATOM     25  C   UNL     1       2.420   7.390  18.125  0.00  0.00    +0.000 A 
ATOM     26  C   UNL     1       2.231   7.076  19.478  0.00  0.00    +0.000 A 
ATOM     27  C   UNL     1       1.672   8.025  20.352  0.00  0.00    +0.000 A 
BRANCH  26  28
ATOM     28  C   UNL     1       2.607   5.778  19.968  0.00  0.00    +0.000 C 
ATOM     29  N   UNL     1       2.921   4.734  20.356  0.00  0.00    +0.000 NA
ENDBRANCH  26  28
ENDBRANCH  19  22
ENDBRANCH   2  19
TORSDOF 4
ENDMDL
MODEL 7
REMARK VINA RESULT:      -5.8      8.332     12.655
REMARK  Name = 
REMARK  5 active torsions:
REMARK  status: ('A' for Active; 'I' for Inactive)
REMARK    1  A    between atoms: C_1  and  C_2
REMARK    2  A    between atoms: N_5  and  C_6
REMARK    3  A    between atoms: C_7  and  S_8
REMARK    4  A    between atoms: S_8  and  C_11
REMARK    5  A    between atoms: C_15  and  C_16
REMARK                            x       y       z     vdW  Elec       q    Type
REMARK                         _______ _______ _______ _____ _____    ______ ____
ROOT
ATOM      1  C   UNL     1      -3.483  12.694  20.122  0.00  0.00    +0.000 A 
ATOM      2  C   UNL     1      -3.200  11.856  19.003  0.00  0.00    +0.000 A 
ATOM      3  C   UNL     1      -4.262  11.268  18.322  0.00  0.00    +0.000 A 
ATOM      4  N   UNL     1      -5.562  11.394  18.647  0.00  0.00    +0.000 NA
ATOM      5  C   UNL     1      -5.872  12.140  19.699  0.00  0.00    +0.000 A 
ATOM      6  C   UNL     1      -7.237  12.251  19.957  0.00  0.00    +0.000 A 
ATOM      7  C   UNL     1      -7.734  12.989  21.024  0.00  0.00    +0.000 A 
ATOM      8  C   UNL     1      -6.836  13.587  21.878  0.00  0.00    +0.000 A 
ATOM      9 CL   UNL     1      -7.396  14.509  23.217  0.00  0.00    +0.000 Cl
ATOM     10  C   UNL     1      -5.464  13.450  21.650  0.00  0.00    +0.000 A 
ATOM     11  C   UNL     1      -4.905  12.786  20.513  0.00  0.00    +0.000 A 
ENDROOT
BRANCH   1  16
ATOM     12  C   UNL     1       1.178  15.304  22.131  0.00  0.00    +0.000 C 
ATOM     13  C   UNL     1      -0.295  14.929  22.032  0.00  0.00    +0.000 C 
ATOM     14  C   UNL     1      -0.512  13.426  22.198  0.00  0.00    +0.000 C 
ATOM     15  C   UNL     1      -2.008  13.118  22.102  0.00  0.00    +0.000 C 
ATOM     16  N   UNL     1      -2.492  13.471  20.764  0.00  0.00    +0.000 N 
ATOM     17  C   UNL     1      -2.308  14.911  20.487  0.00  0.00    +0.000 C 
ATOM     18  C   UNL     1      -0.866  15.368  20.680  0.00  0.00    +0.000 C 
ENDBRANCH   1  16
BRANCH   2  19
ATOM     19  S   UNL     1      -1.641  11.623  18.152  0.00  0.00    +0.000 S 
ATOM     20  O   UNL     1      -1.907  10.832  16.962  0.00  0.00    +0.000 OA
ATOM     21  O   UNL     1      -1.020  12.920  17.997  0.00  0.00    +0.000 OA
BRANCH  19  22
ATOM     22  C   UNL     1      -0.492  10.585  19.058  0.00  0.00    +0.000 A 
ATOM     23  C   UNL     1       0.444   9.838  18.324  0.00  0.00    +0.000 A 
ATOM     24  C   UNL     1       1.339   8.997  18.984  0.00  0.00    +0.000 A 
ATOM     25  C   UNL     1       1.305   8.900  20.375  0.00  0.00    +0.000 A 
ATOM     26  C   UNL     1       0.387   9.660  21.114  0.00  0.00    +0.000 A 
ATOM     27  C   UNL     1      -0.515  10.513  20.456  0.00  0.00    +0.000 A 
BRANCH  26  28
ATOM     28  C   UNL     1       0.371   9.560  22.548  0.00  0.00    +0.000 C 
ATOM     29  N   UNL     1       0.371   9.484  23.703  0.00  0.00    +0.000 NA
ENDBRANCH  26  28
ENDBRANCH  19  22
ENDBRANCH   2  19
TORSDOF 4
ENDMDL
MODEL 8
REMARK VINA RESULT:      -5.8      6.274     10.177
REMARK  Name = 
REMARK  5 active torsions:
REMARK  status: ('A' for Active; 'I' for Inactive)
REMARK    1  A    between atoms: C_1  and  C_2
REMARK    2  A    between atoms: N_5  and  C_6
REMARK    3  A    between atoms: C_7  and  S_8
REMARK    4  A    between atoms: S_8  and  C_11
REMARK    5  A    between atoms: C_15  and  C_16
REMARK                            x       y       z     vdW  Elec       q    Type
REMARK                         _______ _______ _______ _____ _____    ______ ____
ROOT
ATOM      1  C   UNL     1      -0.001  12.532  19.733  0.00  0.00    +0.000 A 
ATOM      2  C   UNL     1       0.869  11.753  20.553  0.00  0.00    +0.000 A 
ATOM      3  C   UNL     1       1.925  12.388  21.200  0.00  0.00    +0.000 A 
ATOM      4  N   UNL     1       2.229  13.696  21.098  0.00  0.00    +0.000 NA
ATOM      5  C   UNL     1       1.467  14.454  20.322  0.00  0.00    +0.000 A 
ATOM      6  C   UNL     1       1.821  15.801  20.289  0.00  0.00    +0.000 A 
ATOM      7  C   UNL     1       1.132  16.733  19.522  0.00  0.00    +0.000 A 
ATOM      8  C   UNL     1       0.094  16.290  18.734  0.00  0.00    +0.000 A 
ATOM      9 CL   UNL     1      -0.791  17.398  17.763  0.00  0.00    +0.000 Cl
ATOM     10  C   UNL     1      -0.245  14.933  18.731  0.00  0.00    +0.000 A 
ATOM     11  C   UNL     1       0.368  13.954  19.575  0.00  0.00    +0.000 A 
ENDROOT
BRANCH   1  16
ATOM     12  C   UNL     1      -4.918  11.375  17.077  0.00  0.00    +0.000 C 
ATOM     13  C   UNL     1      -3.734  11.155  18.010  0.00  0.00    +0.000 C 
ATOM     14  C   UNL     1      -3.626  12.257  19.063  0.00  0.00    +0.000 C 
ATOM     15  C   UNL     1      -2.429  11.969  19.973  0.00  0.00    +0.000 C 
ATOM     16  N   UNL     1      -1.196  12.016  19.182  0.00  0.00    +0.000 N 
ATOM     17  C   UNL     1      -1.203  10.998  18.111  0.00  0.00    +0.000 C 
ATOM     18  C   UNL     1      -2.429  11.101  17.210  0.00  0.00    +0.000 C 
ENDBRANCH   1  16
BRANCH   2  19
ATOM     19  S   UNL     1       0.666  10.058  21.098  0.00  0.00    +0.000 S 
ATOM     20  O   UNL     1       1.430   9.899  22.323  0.00  0.00    +0.000 OA
ATOM     21  O   UNL     1      -0.751   9.765  21.120  0.00  0.00    +0.000 OA
BRANCH  19  22
ATOM     22  C   UNL     1       1.441   8.869  20.001  0.00  0.00    +0.000 A 
ATOM     23  C   UNL     1       1.716   9.269  18.683  0.00  0.00    +0.000 A 
ATOM     24  C   UNL     1       2.294   8.369  17.787  0.00  0.00    +0.000 A 
ATOM     25  C   UNL     1       2.598   7.073  18.202  0.00  0.00    +0.000 A 
ATOM     26  C   UNL     1       2.346   6.676  19.522  0.00  0.00    +0.000 A 
ATOM     27  C   UNL     1       1.768   7.578  20.432  0.00  0.00    +0.000 A 
BRANCH  26  28
ATOM     28  C   UNL     1       2.676   5.342  19.941  0.00  0.00    +0.000 C 
ATOM     29  N   UNL     1       2.954   4.267  20.270  0.00  0.00    +0.000 NA
ENDBRANCH  26  28
ENDBRANCH  19  22
ENDBRANCH   2  19
TORSDOF 4
ENDMDL
MODEL 9
REMARK VINA RESULT:      -5.8      6.380     10.434
REMARK  Name = 
REMARK  5 active torsions:
REMARK  status: ('A' for Active; 'I' for Inactive)
REMARK    1  A    between atoms: C_1  and  C_2
REMARK    2  A    between atoms: N_5  and  C_6
REMARK    3  A    between atoms: C_7  and  S_8
REMARK    4  A    between atoms: S_8  and  C_11
REMARK    5  A    between atoms: C_15  and  C_16
REMARK                            x       y       z     vdW  Elec       q    Type
REMARK                         _______ _______ _______ _____ _____    ______ ____
ROOT
ATOM      1  C   UNL     1      -1.624  11.441  19.457  0.00  0.00    +0.000 A 
ATOM      2  C   UNL     1      -0.622  10.669  18.798  0.00  0.00    +0.000 A 
ATOM      3  C   UNL     1      -0.908  10.129  17.547  0.00  0.00    +0.000 A 
ATOM      4  N   UNL     1      -2.082  10.244  16.898  0.00  0.00    +0.000 NA
ATOM      5  C   UNL     1      -3.054  10.928  17.486  0.00  0.00    +0.000 A 
ATOM      6  C   UNL     1      -4.229  11.032  16.743  0.00  0.00    +0.000 A 
ATOM      7  C   UNL     1      -5.348  11.708  17.213  0.00  0.00    +0.000 A 
ATOM      8  C   UNL     1      -5.301  12.249  18.478  0.00  0.00    +0.000 A 
ATOM      9 CL   UNL     1      -6.658  13.093  19.111  0.00  0.00    +0.000 Cl
ATOM     10  C   UNL     1      -4.140  12.117  19.246  0.00  0.00    +0.000 A 
ATOM     11  C   UNL     1      -2.931  11.518  18.771  0.00  0.00    +0.000 A 
ENDROOT
BRANCH   1  16
ATOM     12  C   UNL     1      -1.583  14.674  24.160  0.00  0.00    +0.000 C 
ATOM     13  C   UNL     1      -1.021  13.808  23.040  0.00  0.00    +0.000 C 
ATOM     14  C   UNL     1      -1.323  14.394  21.661  0.00  0.00    +0.000 C 
ATOM     15  C   UNL     1      -0.722  13.487  20.585  0.00  0.00    +0.000 C 
ATOM     16  N   UNL     1      -1.370  12.173  20.639  0.00  0.00    +0.000 N 
ATOM     17  C   UNL     1      -1.159  11.521  21.948  0.00  0.00    +0.000 C 
ATOM     18  C   UNL     1      -1.602  12.394  23.118  0.00  0.00    +0.000 C 
ENDBRANCH   1  16
BRANCH   2  19
ATOM     19  S   UNL     1       1.105  10.478  19.237  0.00  0.00    +0.000 S 
ATOM     20  O   UNL     1       1.894  10.867  18.081  0.00  0.00    +0.000 OA
ATOM     21  O   UNL     1       1.324  11.165  20.490  0.00  0.00    +0.000 OA
BRANCH  19  22
ATOM     22  C   UNL     1       1.585   8.765  19.474  0.00  0.00    +0.000 A 
ATOM     23  C   UNL     1       1.174   8.122  20.653  0.00  0.00    +0.000 A 
ATOM     24  C   UNL     1       1.546   6.799  20.892  0.00  0.00    +0.000 A 
ATOM     25  C   UNL     1       2.326   6.116  19.960  0.00  0.00    +0.000 A 
ATOM     26  C   UNL     1       2.720   6.747  18.771  0.00  0.00    +0.000 A 
ATOM     27  C   UNL     1       2.345   8.078  18.521  0.00  0.00    +0.000 A 
BRANCH  26  28
ATOM     28  C   UNL     1       3.512   6.028  17.812  0.00  0.00    +0.000 C 
ATOM     29  N   UNL     1       4.161   5.452  17.045  0.00  0.00    +0.000 NA
ENDBRANCH  26  28
ENDBRANCH  19  22
ENDBRANCH   2  19
TORSDOF 4
ENDMDL
