MODEL 1
REMARK VINA RESULT:      -8.5      0.000      0.000
REMARK  Name = 
REMARK  6 active torsions:
REMARK  status: ('A' for Active; 'I' for Inactive)
REMARK    1  A    between atoms: C_1  and  C_2
REMARK    2  A    between atoms: C_5  and  N_6
REMARK    3  A    between atoms: C_10  and  C_11
REMARK    4  A    between atoms: C_11  and  S_12
REMARK    5  A    between atoms: S_12  and  C_15
REMARK    6  A    between atoms: C_21  and  C_22
REMARK                            x       y       z     vdW  Elec       q    Type
REMARK                         _______ _______ _______ _____ _____    ______ ____
ROOT
ATOM      1  N   UNL     1       5.851   4.601  18.596  0.00  0.00    +0.000 N 
ATOM      2  N   UNL     1       6.561   5.247  19.546  0.00  0.00    +0.000 NA
ATOM      3  N   UNL     1       7.775   5.424  19.056  0.00  0.00    +0.000 NA
ATOM      4  N   UNL     1       7.875   4.901  17.804  0.00  0.00    +0.000 NA
ATOM      5  C   UNL     1       6.690   4.415  17.493  0.00  0.00    +0.000 A 
ENDROOT
BRANCH   1  10
ATOM      6  C   UNL     1       0.477   2.644  19.150  0.00  0.00    +0.000 C 
ATOM      7  C   UNL     1       1.871   3.195  19.098  0.00  0.00    +0.000 A 
ATOM      8  C   UNL     1       2.960   2.440  19.523  0.00  0.00    +0.000 A 
ATOM      9  C   UNL     1       4.257   2.940  19.384  0.00  0.00    +0.000 A 
ATOM     10  C   UNL     1       4.499   4.202  18.809  0.00  0.00    +0.000 A 
ATOM     11  C   UNL     1       3.398   5.018  18.466  0.00  0.00    +0.000 A 
ATOM     12  C   UNL     1       3.454   6.420  17.914  0.00  0.00    +0.000 C 
ATOM     13  C   UNL     1       2.096   4.490  18.622  0.00  0.00    +0.000 A 
ENDBRANCH   1  10
BRANCH   5  14
ATOM     14  C   UNL     1       6.264   3.871  16.183  0.00  0.00    +0.000 C 
BRANCH  14  15
ATOM     15  S   UNL     1       6.472   5.007  14.837  0.00  0.00    +0.000 S 
ATOM     16  O   UNL     1       5.416   6.004  14.980  0.00  0.00    +0.000 OA
ATOM     17  O   UNL     1       7.852   5.460  14.773  0.00  0.00    +0.000 OA
BRANCH  15  18
ATOM     18  C   UNL     1       6.094   4.114  13.341  0.00  0.00    +0.000 A 
ATOM     19  C   UNL     1       7.136   3.529  12.611  0.00  0.00    +0.000 A 
ATOM     20  C   UNL     1       6.842   2.738  11.498  0.00  0.00    +0.000 A 
ATOM     21  C   UNL     1       5.516   2.528  11.121  0.00  0.00    +0.000 A 
ATOM     22  C   UNL     1       4.479   3.106  11.855  0.00  0.00    +0.000 A 
ATOM     23  C   UNL     1       4.765   3.891  12.974  0.00  0.00    +0.000 A 
ENDBRANCH  15  18
ENDBRANCH  14  15
ENDBRANCH   5  14
TORSDOF 4
ENDMDL
MODEL 2
REMARK VINA RESULT:      -8.3      0.104      1.015
REMARK  Name = 
REMARK  6 active torsions:
REMARK  status: ('A' for Active; 'I' for Inactive)
REMARK    1  A    between atoms: C_1  and  C_2
REMARK    2  A    between atoms: C_5  and  N_6
REMARK    3  A    between atoms: C_10  and  C_11
REMARK    4  A    between atoms: C_11  and  S_12
REMARK    5  A    between atoms: S_12  and  C_15
REMARK    6  A    between atoms: C_21  and  C_22
REMARK                            x       y       z     vdW  Elec       q    Type
REMARK                         _______ _______ _______ _____ _____    ______ ____
ROOT
ATOM      1  N   UNL     1       5.869   4.673  18.642  0.00  0.00    +0.000 N 
ATOM      2  N   UNL     1       6.551   5.369  19.577  0.00  0.00    +0.000 NA
ATOM      3  N   UNL     1       7.776   5.530  19.111  0.00  0.00    +0.000 NA
ATOM      4  N   UNL     1       7.912   4.947  17.889  0.00  0.00    +0.000 NA
ATOM      5  C   UNL     1       6.737   4.438  17.571  0.00  0.00    +0.000 A 
ENDROOT
BRANCH   1  10
ATOM      6  C   UNL     1       0.486   2.725  19.134  0.00  0.00    +0.000 C 
ATOM      7  C   UNL     1       1.882   3.273  19.098  0.00  0.00    +0.000 A 
ATOM      8  C   UNL     1       2.964   2.518  19.537  0.00  0.00    +0.000 A 
ATOM      9  C   UNL     1       4.263   3.015  19.413  0.00  0.00    +0.000 A 
ATOM     10  C   UNL     1       4.514   4.276  18.839  0.00  0.00    +0.000 A 
ATOM     11  C   UNL     1       3.418   5.094  18.482  0.00  0.00    +0.000 A 
ATOM     12  C   UNL     1       3.483   6.495  17.930  0.00  0.00    +0.000 C 
ATOM     13  C   UNL     1       2.114   4.568  18.623  0.00  0.00    +0.000 A 
ENDBRANCH   1  10
BRANCH   5  14
ATOM     14  C   UNL     1       6.348   3.829  16.279  0.00  0.00    +0.000 C 
BRANCH  14  15
ATOM     15  S   UNL     1       6.482   4.934  14.899  0.00  0.00    +0.000 S 
ATOM     16  O   UNL     1       5.393   5.895  15.041  0.00  0.00    +0.000 OA
ATOM     17  O   UNL     1       7.843   5.436  14.790  0.00  0.00    +0.000 OA
BRANCH  15  18
ATOM     18  C   UNL     1       6.104   3.987  13.437  0.00  0.00    +0.000 A 
ATOM     19  C   UNL     1       4.769   3.838  13.043  0.00  0.00    +0.000 A 
ATOM     20  C   UNL     1       4.470   3.190  11.843  0.00  0.00    +0.000 A 
ATOM     21  C   UNL     1       5.498   2.698  11.039  0.00  0.00    +0.000 A 
ATOM     22  C   UNL     1       6.828   2.855  11.430  0.00  0.00    +0.000 A 
ATOM     23  C   UNL     1       7.136   3.510  12.625  0.00  0.00    +0.000 A 
ENDBRANCH  15  18
ENDBRANCH  14  15
ENDBRANCH   5  14
TORSDOF 4
ENDMDL
MODEL 3
REMARK VINA RESULT:      -7.7      0.644      1.575
REMARK  Name = 
REMARK  6 active torsions:
REMARK  status: ('A' for Active; 'I' for Inactive)
REMARK    1  A    between atoms: C_1  and  C_2
REMARK    2  A    between atoms: C_5  and  N_6
REMARK    3  A    between atoms: C_10  and  C_11
REMARK    4  A    between atoms: C_11  and  S_12
REMARK    5  A    between atoms: S_12  and  C_15
REMARK    6  A    between atoms: C_21  and  C_22
REMARK                            x       y       z     vdW  Elec       q    Type
REMARK                         _______ _______ _______ _____ _____    ______ ____
ROOT
ATOM      1  N   UNL     1       5.640   4.496  18.840  0.00  0.00    +0.000 N 
ATOM      2  N   UNL     1       6.092   5.172  19.919  0.00  0.00    +0.000 NA
ATOM      3  N   UNL     1       7.344   5.502  19.663  0.00  0.00    +0.000 NA
ATOM      4  N   UNL     1       7.725   5.051  18.437  0.00  0.00    +0.000 NA
ATOM      5  C   UNL     1       6.678   4.453  17.903  0.00  0.00    +0.000 A 
ENDROOT
BRANCH   1  10
ATOM      6  C   UNL     1       0.197   2.656  18.855  0.00  0.00    +0.000 C 
ATOM      7  C   UNL     1       1.635   3.076  18.772  0.00  0.00    +0.000 A 
ATOM      8  C   UNL     1       2.021   4.176  18.013  0.00  0.00    +0.000 A 
ATOM      9  C   UNL     1       3.352   4.601  18.020  0.00  0.00    +0.000 A 
ATOM     10  C   UNL     1       4.328   3.943  18.793  0.00  0.00    +0.000 A 
ATOM     11  C   UNL     1       3.969   2.766  19.488  0.00  0.00    +0.000 A 
ATOM     12  C   UNL     1       4.884   1.885  20.300  0.00  0.00    +0.000 C 
ATOM     13  C   UNL     1       2.617   2.355  19.459  0.00  0.00    +0.000 A 
ENDBRANCH   1  10
BRANCH   5  14
ATOM     14  C   UNL     1       6.558   3.927  16.525  0.00  0.00    +0.000 C 
BRANCH  14  15
ATOM     15  S   UNL     1       6.498   5.189  15.281  0.00  0.00    +0.000 S 
ATOM     16  O   UNL     1       5.305   5.980  15.561  0.00  0.00    +0.000 OA
ATOM     17  O   UNL     1       7.780   5.870  15.198  0.00  0.00    +0.000 OA
BRANCH  15  18
ATOM     18  C   UNL     1       6.184   4.373  13.728  0.00  0.00    +0.000 A 
ATOM     19  C   UNL     1       7.250   4.131  12.852  0.00  0.00    +0.000 A 
ATOM     20  C   UNL     1       7.033   3.399  11.683  0.00  0.00    +0.000 A 
ATOM     21  C   UNL     1       5.761   2.907  11.393  0.00  0.00    +0.000 A 
ATOM     22  C   UNL     1       4.702   3.143  12.271  0.00  0.00    +0.000 A 
ATOM     23  C   UNL     1       4.913   3.868  13.446  0.00  0.00    +0.000 A 
ENDBRANCH  15  18
ENDBRANCH  14  15
ENDBRANCH   5  14
TORSDOF 4
ENDMDL
MODEL 4
REMARK VINA RESULT:      -7.6      2.206      2.769
REMARK  Name = 
REMARK  6 active torsions:
REMARK  status: ('A' for Active; 'I' for Inactive)
REMARK    1  A    between atoms: C_1  and  C_2
REMARK    2  A    between atoms: C_5  and  N_6
REMARK    3  A    between atoms: C_10  and  C_11
REMARK    4  A    between atoms: C_11  and  S_12
REMARK    5  A    between atoms: S_12  and  C_15
REMARK    6  A    between atoms: C_21  and  C_22
REMARK                            x       y       z     vdW  Elec       q    Type
REMARK                         _______ _______ _______ _____ _____    ______ ____
ROOT
ATOM      1  N   UNL     1       3.451   6.012  17.985  0.00  0.00    +0.000 N 
ATOM      2  N   UNL     1       2.854   7.164  17.609  0.00  0.00    +0.000 NA
ATOM      3  N   UNL     1       3.697   7.782  16.802  0.00  0.00    +0.000 NA
ATOM      4  N   UNL     1       4.839   7.059  16.646  0.00  0.00    +0.000 NA
ATOM      5  C   UNL     1       4.693   5.951  17.345  0.00  0.00    +0.000 A 
ENDROOT
BRANCH   1  10
ATOM      6  C   UNL     1       1.387   2.367  21.918  0.00  0.00    +0.000 C 
ATOM      7  C   UNL     1       1.831   3.351  20.876  0.00  0.00    +0.000 A 
ATOM      8  C   UNL     1       2.209   4.644  21.221  0.00  0.00    +0.000 A 
ATOM      9  C   UNL     1       2.702   5.514  20.246  0.00  0.00    +0.000 A 
ATOM     10  C   UNL     1       2.838   5.111  18.904  0.00  0.00    +0.000 A 
ATOM     11  C   UNL     1       2.365   3.836  18.523  0.00  0.00    +0.000 A 
ATOM     12  C   UNL     1       2.353   3.258  17.130  0.00  0.00    +0.000 C 
ATOM     13  C   UNL     1       1.866   2.977  19.529  0.00  0.00    +0.000 A 
ENDBRANCH   1  10
BRANCH   5  14
ATOM     14  C   UNL     1       5.608   4.787  17.374  0.00  0.00    +0.000 C 
BRANCH  14  15
ATOM     15  S   UNL     1       7.159   5.077  16.563  0.00  0.00    +0.000 S 
ATOM     16  O   UNL     1       7.407   6.511  16.663  0.00  0.00    +0.000 OA
ATOM     17  O   UNL     1       8.167   4.160  17.069  0.00  0.00    +0.000 OA
BRANCH  15  18
ATOM     18  C   UNL     1       6.907   4.749  14.830  0.00  0.00    +0.000 A 
ATOM     19  C   UNL     1       7.771   5.326  13.890  0.00  0.00    +0.000 A 
ATOM     20  C   UNL     1       7.648   4.990  12.540  0.00  0.00    +0.000 A 
ATOM     21  C   UNL     1       6.673   4.081  12.132  0.00  0.00    +0.000 A 
ATOM     22  C   UNL     1       5.819   3.501  13.071  0.00  0.00    +0.000 A 
ATOM     23  C   UNL     1       5.941   3.825  14.424  0.00  0.00    +0.000 A 
ENDBRANCH  15  18
ENDBRANCH  14  15
ENDBRANCH   5  14
TORSDOF 4
ENDMDL
MODEL 5
REMARK VINA RESULT:      -7.6      0.793      1.623
REMARK  Name = 
REMARK  6 active torsions:
REMARK  status: ('A' for Active; 'I' for Inactive)
REMARK    1  A    between atoms: C_1  and  C_2
REMARK    2  A    between atoms: C_5  and  N_6
REMARK    3  A    between atoms: C_10  and  C_11
REMARK    4  A    between atoms: C_11  and  S_12
REMARK    5  A    between atoms: S_12  and  C_15
REMARK    6  A    between atoms: C_21  and  C_22
REMARK                            x       y       z     vdW  Elec       q    Type
REMARK                         _______ _______ _______ _____ _____    ______ ____
ROOT
ATOM      1  N   UNL     1       5.977   4.709  18.777  0.00  0.00    +0.000 N 
ATOM      2  N   UNL     1       6.888   5.144  19.674  0.00  0.00    +0.000 NA
ATOM      3  N   UNL     1       8.069   5.054  19.090  0.00  0.00    +0.000 NA
ATOM      4  N   UNL     1       7.950   4.562  17.827  0.00  0.00    +0.000 NA
ATOM      5  C   UNL     1       6.664   4.371  17.607  0.00  0.00    +0.000 A 
ENDROOT
BRANCH   1  10
ATOM      6  C   UNL     1       0.457   4.696  20.371  0.00  0.00    +0.000 C 
ATOM      7  C   UNL     1       1.869   4.665  19.865  0.00  0.00    +0.000 A 
ATOM      8  C   UNL     1       2.440   5.778  19.257  0.00  0.00    +0.000 A 
ATOM      9  C   UNL     1       3.782   5.755  18.872  0.00  0.00    +0.000 A 
ATOM     10  C   UNL     1       4.590   4.624  19.093  0.00  0.00    +0.000 A 
ATOM     11  C   UNL     1       3.996   3.454  19.618  0.00  0.00    +0.000 A 
ATOM     12  C   UNL     1       4.674   2.127  19.852  0.00  0.00    +0.000 C 
ATOM     13  C   UNL     1       2.635   3.502  19.994  0.00  0.00    +0.000 A 
ENDBRANCH   1  10
BRANCH   5  14
ATOM     14  C   UNL     1       6.026   3.982  16.328  0.00  0.00    +0.000 C 
BRANCH  14  15
ATOM     15  S   UNL     1       6.368   5.096  14.991  0.00  0.00    +0.000 S 
ATOM     16  O   UNL     1       5.336   6.126  15.047  0.00  0.00    +0.000 OA
ATOM     17  O   UNL     1       7.762   5.505  15.026  0.00  0.00    +0.000 OA
BRANCH  15  18
ATOM     18  C   UNL     1       6.073   4.198  13.480  0.00  0.00    +0.000 A 
ATOM     19  C   UNL     1       7.164   3.716  12.745  0.00  0.00    +0.000 A 
ATOM     20  C   UNL     1       6.943   2.921  11.619  0.00  0.00    +0.000 A 
ATOM     21  C   UNL     1       5.640   2.606  11.231  0.00  0.00    +0.000 A 
ATOM     22  C   UNL     1       4.556   3.081  11.969  0.00  0.00    +0.000 A 
ATOM     23  C   UNL     1       4.769   3.869  13.102  0.00  0.00    +0.000 A 
ENDBRANCH  15  18
ENDBRANCH  14  15
ENDBRANCH   5  14
TORSDOF 4
ENDMDL
MODEL 6
REMARK VINA RESULT:      -7.6      0.421      1.807
REMARK  Name = 
REMARK  6 active torsions:
REMARK  status: ('A' for Active; 'I' for Inactive)
REMARK    1  A    between atoms: C_1  and  C_2
REMARK    2  A    between atoms: C_5  and  N_6
REMARK    3  A    between atoms: C_10  and  C_11
REMARK    4  A    between atoms: C_11  and  S_12
REMARK    5  A    between atoms: S_12  and  C_15
REMARK    6  A    between atoms: C_21  and  C_22
REMARK                            x       y       z     vdW  Elec       q    Type
REMARK                         _______ _______ _______ _____ _____    ______ ____
ROOT
ATOM      1  N   UNL     1       5.761   4.570  18.696  0.00  0.00    +0.000 N 
ATOM      2  N   UNL     1       6.412   5.257  19.660  0.00  0.00    +0.000 NA
ATOM      3  N   UNL     1       7.645   5.443  19.226  0.00  0.00    +0.000 NA
ATOM      4  N   UNL     1       7.817   4.886  17.997  0.00  0.00    +0.000 NA
ATOM      5  C   UNL     1       6.658   4.368  17.642  0.00  0.00    +0.000 A 
ENDROOT
BRANCH   1  10
ATOM      6  C   UNL     1       0.229   3.279  19.558  0.00  0.00    +0.000 C 
ATOM      7  C   UNL     1       1.671   3.556  19.252  0.00  0.00    +0.000 A 
ATOM      8  C   UNL     1       2.043   4.631  18.451  0.00  0.00    +0.000 A 
ATOM      9  C   UNL     1       3.395   4.921  18.251  0.00  0.00    +0.000 A 
ATOM     10  C   UNL     1       4.408   4.151  18.853  0.00  0.00    +0.000 A 
ATOM     11  C   UNL     1       4.045   2.999  19.586  0.00  0.00    +0.000 A 
ATOM     12  C   UNL     1       4.981   2.012  20.235  0.00  0.00    +0.000 C 
ATOM     13  C   UNL     1       2.670   2.725  19.769  0.00  0.00    +0.000 A 
ENDBRANCH   1  10
BRANCH   5  14
ATOM     14  C   UNL     1       6.308   3.778  16.330  0.00  0.00    +0.000 C 
BRANCH  14  15
ATOM     15  S   UNL     1       6.452   4.914  14.975  0.00  0.00    +0.000 S 
ATOM     16  O   UNL     1       5.361   5.870  15.129  0.00  0.00    +0.000 OA
ATOM     17  O   UNL     1       7.813   5.419  14.888  0.00  0.00    +0.000 OA
BRANCH  15  18
ATOM     18  C   UNL     1       6.087   3.999  13.490  0.00  0.00    +0.000 A 
ATOM     19  C   UNL     1       4.753   3.838  13.093  0.00  0.00    +0.000 A 
ATOM     20  C   UNL     1       4.463   3.216  11.877  0.00  0.00    +0.000 A 
ATOM     21  C   UNL     1       5.498   2.762  11.060  0.00  0.00    +0.000 A 
ATOM     22  C   UNL     1       6.826   2.930  11.454  0.00  0.00    +0.000 A 
ATOM     23  C   UNL     1       7.125   3.559  12.665  0.00  0.00    +0.000 A 
ENDBRANCH  15  18
ENDBRANCH  14  15
ENDBRANCH   5  14
TORSDOF 4
ENDMDL
MODEL 7
REMARK VINA RESULT:      -7.5      2.216      2.903
REMARK  Name = 
REMARK  6 active torsions:
REMARK  status: ('A' for Active; 'I' for Inactive)
REMARK    1  A    between atoms: C_1  and  C_2
REMARK    2  A    between atoms: C_5  and  N_6
REMARK    3  A    between atoms: C_10  and  C_11
REMARK    4  A    between atoms: C_11  and  S_12
REMARK    5  A    between atoms: S_12  and  C_15
REMARK    6  A    between atoms: C_21  and  C_22
REMARK                            x       y       z     vdW  Elec       q    Type
REMARK                         _______ _______ _______ _____ _____    ______ ____
ROOT
ATOM      1  N   UNL     1       3.439   6.015  17.922  0.00  0.00    +0.000 N 
ATOM      2  N   UNL     1       2.853   7.168  17.532  0.00  0.00    +0.000 NA
ATOM      3  N   UNL     1       3.702   7.770  16.720  0.00  0.00    +0.000 NA
ATOM      4  N   UNL     1       4.838   7.036  16.575  0.00  0.00    +0.000 NA
ATOM      5  C   UNL     1       4.682   5.937  17.286  0.00  0.00    +0.000 A 
ENDROOT
BRANCH   1  10
ATOM      6  C   UNL     1       1.335   2.429  21.888  0.00  0.00    +0.000 C 
ATOM      7  C   UNL     1       1.790   3.399  20.837  0.00  0.00    +0.000 A 
ATOM      8  C   UNL     1       2.186   4.689  21.171  0.00  0.00    +0.000 A 
ATOM      9  C   UNL     1       2.688   5.545  20.189  0.00  0.00    +0.000 A 
ATOM     10  C   UNL     1       2.816   5.130  18.849  0.00  0.00    +0.000 A 
ATOM     11  C   UNL     1       2.325   3.858  18.480  0.00  0.00    +0.000 A 
ATOM     12  C   UNL     1       2.301   3.270  17.091  0.00  0.00    +0.000 C 
ATOM     13  C   UNL     1       1.816   3.014  19.493  0.00  0.00    +0.000 A 
ENDBRANCH   1  10
BRANCH   5  14
ATOM     14  C   UNL     1       5.587   4.766  17.331  0.00  0.00    +0.000 C 
BRANCH  14  15
ATOM     15  S   UNL     1       7.170   5.057  16.586  0.00  0.00    +0.000 S 
ATOM     16  O   UNL     1       7.379   6.501  16.629  0.00  0.00    +0.000 OA
ATOM     17  O   UNL     1       8.172   4.191  17.184  0.00  0.00    +0.000 OA
BRANCH  15  18
ATOM     18  C   UNL     1       7.014   4.643  14.859  0.00  0.00    +0.000 A 
ATOM     19  C   UNL     1       5.988   3.782  14.450  0.00  0.00    +0.000 A 
ATOM     20  C   UNL     1       5.792   3.536  13.090  0.00  0.00    +0.000 A 
ATOM     21  C   UNL     1       6.612   4.149  12.143  0.00  0.00    +0.000 A 
ATOM     22  C   UNL     1       7.629   5.013  12.553  0.00  0.00    +0.000 A 
ATOM     23  C   UNL     1       7.826   5.271  13.912  0.00  0.00    +0.000 A 
ENDBRANCH  15  18
ENDBRANCH  14  15
ENDBRANCH   5  14
TORSDOF 4
ENDMDL
MODEL 8
REMARK VINA RESULT:      -7.4      2.950      6.883
REMARK  Name = 
REMARK  6 active torsions:
REMARK  status: ('A' for Active; 'I' for Inactive)
REMARK    1  A    between atoms: C_1  and  C_2
REMARK    2  A    between atoms: C_5  and  N_6
REMARK    3  A    between atoms: C_10  and  C_11
REMARK    4  A    between atoms: C_11  and  S_12
REMARK    5  A    between atoms: S_12  and  C_15
REMARK    6  A    between atoms: C_21  and  C_22
REMARK                            x       y       z     vdW  Elec       q    Type
REMARK                         _______ _______ _______ _____ _____    ______ ____
ROOT
ATOM      1  N   UNL     1       4.556   3.644  18.314  0.00  0.00    +0.000 N 
ATOM      2  N   UNL     1       4.300   2.334  18.518  0.00  0.00    +0.000 NA
ATOM      3  N   UNL     1       3.650   2.249  19.664  0.00  0.00    +0.000 NA
ATOM      4  N   UNL     1       3.479   3.480  20.218  0.00  0.00    +0.000 NA
ATOM      5  C   UNL     1       4.006   4.355  19.386  0.00  0.00    +0.000 A 
ENDROOT
BRANCH   1  10
ATOM      6  C   UNL     1       7.531   5.042  13.601  0.00  0.00    +0.000 C 
ATOM      7  C   UNL     1       6.721   4.772  14.834  0.00  0.00    +0.000 A 
ATOM      8  C   UNL     1       5.409   4.320  14.750  0.00  0.00    +0.000 A 
ATOM      9  C   UNL     1       4.703   3.992  15.910  0.00  0.00    +0.000 A 
ATOM     10  C   UNL     1       5.295   4.100  17.183  0.00  0.00    +0.000 A 
ATOM     11  C   UNL     1       6.591   4.653  17.289  0.00  0.00    +0.000 A 
ATOM     12  C   UNL     1       7.356   4.919  18.561  0.00  0.00    +0.000 C 
ATOM     13  C   UNL     1       7.280   4.981  16.099  0.00  0.00    +0.000 A 
ENDBRANCH   1  10
BRANCH   5  14
ATOM     14  C   UNL     1       3.941   5.831  19.483  0.00  0.00    +0.000 C 
BRANCH  14  15
ATOM     15  S   UNL     1       2.944   6.586  18.225  0.00  0.00    +0.000 S 
ATOM     16  O   UNL     1       3.875   7.199  17.283  0.00  0.00    +0.000 OA
ATOM     17  O   UNL     1       1.969   5.633  17.721  0.00  0.00    +0.000 OA
BRANCH  15  18
ATOM     18  C   UNL     1       2.075   7.939  18.995  0.00  0.00    +0.000 A 
ATOM     19  C   UNL     1       1.595   8.987  18.199  0.00  0.00    +0.000 A 
ATOM     20  C   UNL     1       0.821   9.996  18.777  0.00  0.00    +0.000 A 
ATOM     21  C   UNL     1       0.525   9.956  20.139  0.00  0.00    +0.000 A 
ATOM     22  C   UNL     1       0.998   8.907  20.928  0.00  0.00    +0.000 A 
ATOM     23  C   UNL     1       1.765   7.889  20.356  0.00  0.00    +0.000 A 
ENDBRANCH  15  18
ENDBRANCH  14  15
ENDBRANCH   5  14
TORSDOF 4
ENDMDL
MODEL 9
REMARK VINA RESULT:      -7.4      2.731      4.127
REMARK  Name = 
REMARK  6 active torsions:
REMARK  status: ('A' for Active; 'I' for Inactive)
REMARK    1  A    between atoms: C_1  and  C_2
REMARK    2  A    between atoms: C_5  and  N_6
REMARK    3  A    between atoms: C_10  and  C_11
REMARK    4  A    between atoms: C_11  and  S_12
REMARK    5  A    between atoms: S_12  and  C_15
REMARK    6  A    between atoms: C_21  and  C_22
REMARK                            x       y       z     vdW  Elec       q    Type
REMARK                         _______ _______ _______ _____ _____    ______ ____
ROOT
ATOM      1  N   UNL     1       3.669   4.826  18.914  0.00  0.00    +0.000 N 
ATOM      2  N   UNL     1       3.011   3.659  18.747  0.00  0.00    +0.000 NA
ATOM      3  N   UNL     1       3.915   2.700  18.820  0.00  0.00    +0.000 NA
ATOM      4  N   UNL     1       5.156   3.217  19.027  0.00  0.00    +0.000 NA
ATOM      5  C   UNL     1       5.020   4.525  19.116  0.00  0.00    +0.000 A 
ENDROOT
BRANCH   1  10
ATOM      6  C   UNL     1       1.400  10.099  18.645  0.00  0.00    +0.000 C 
ATOM      7  C   UNL     1       1.910   8.688  18.669  0.00  0.00    +0.000 A 
ATOM      8  C   UNL     1       2.692   8.187  17.635  0.00  0.00    +0.000 A 
ATOM      9  C   UNL     1       3.228   6.900  17.720  0.00  0.00    +0.000 A 
ATOM     10  C   UNL     1       3.002   6.084  18.845  0.00  0.00    +0.000 A 
ATOM     11  C   UNL     1       2.128   6.542  19.855  0.00  0.00    +0.000 A 
ATOM     12  C   UNL     1       1.703   5.788  21.090  0.00  0.00    +0.000 C 
ATOM     13  C   UNL     1       1.595   7.847  19.742  0.00  0.00    +0.000 A 
ENDBRANCH   1  10
BRANCH   5  14
ATOM     14  C   UNL     1       6.065   5.509  19.479  0.00  0.00    +0.000 C 
BRANCH  14  15
ATOM     15  S   UNL     1       7.432   5.547  18.348  0.00  0.00    +0.000 S 
ATOM     16  O   UNL     1       7.939   6.915  18.371  0.00  0.00    +0.000 OA
ATOM     17  O   UNL     1       8.352   4.459  18.639  0.00  0.00    +0.000 OA
BRANCH  15  18
ATOM     18  C   UNL     1       6.761   5.307  16.715  0.00  0.00    +0.000 A 
ATOM     19  C   UNL     1       7.011   4.105  16.041  0.00  0.00    +0.000 A 
ATOM     20  C   UNL     1       6.403   3.863  14.807  0.00  0.00    +0.000 A 
ATOM     21  C   UNL     1       5.546   4.814  14.253  0.00  0.00    +0.000 A 
ATOM     22  C   UNL     1       5.292   6.008  14.930  0.00  0.00    +0.000 A 
ATOM     23  C   UNL     1       5.890   6.252  16.168  0.00  0.00    +0.000 A 
ENDBRANCH  15  18
ENDBRANCH  14  15
ENDBRANCH   5  14
TORSDOF 4
ENDMDL
