MODEL 1
REMARK VINA RESULT:      -6.4      0.000      0.000
REMARK  Name = 
REMARK  3 active torsions:
REMARK  status: ('A' for Active; 'I' for Inactive)
REMARK    1  A    between atoms: C_2  and  C_3
REMARK    2  A    between atoms: N_16  and  C_17
REMARK    3  A    between atoms: C_17  and  C_18
REMARK                            x       y       z     vdW  Elec       q    Type
REMARK                         _______ _______ _______ _____ _____    ______ ____
ROOT
ATOM      1  O   UNL     1       1.963   6.279  18.835  0.00  0.00    +0.000 OA
ATOM      2  C   UNL     1       2.411   5.138  18.943  0.00  0.00    +0.000 C 
ATOM      3  N   UNL     1       3.391   4.644  18.092  0.00  0.00    +0.000 N 
ATOM      4  C   UNL     1       4.107   3.372  18.235  0.00  0.00    +0.000 C 
ATOM      5  C   UNL     1       5.335   3.504  17.337  0.00  0.00    +0.000 C 
ATOM      6  O   UNL     1       6.377   4.108  18.120  0.00  0.00    +0.000 OA
ATOM      7  C   UNL     1       7.452   4.546  17.310  0.00  0.00    +0.000 C 
ATOM      8  C   UNL     1       7.101   5.409  16.089  0.00  0.00    +0.000 C 
ATOM      9  O   UNL     1       7.882   6.242  15.638  0.00  0.00    +0.000 OA
ATOM     10  N   UNL     1       5.914   5.051  15.463  0.00  0.00    +0.000 N 
ATOM     11  C   UNL     1       4.836   4.456  16.241  0.00  0.00    +0.000 C 
ATOM     12  C   UNL     1       4.009   5.463  17.062  0.00  0.00    +0.000 C 
ENDROOT
BRANCH   2  13
ATOM     13  C   UNL     1       1.929   4.266  20.058  0.00  0.00    +0.000 A 
ATOM     14  C   UNL     1       2.536   4.350  21.300  0.00  0.00    +0.000 A 
ATOM     15  N   UNL     1       2.267   3.467  22.301  0.00  0.00    +0.000 NA
ATOM     16  C   UNL     1       1.363   2.506  22.003  0.00  0.00    +0.000 A 
ATOM     17  C   UNL     1       0.722   2.446  20.780  0.00  0.00    +0.000 A 
ATOM     18  N   UNL     1       0.977   3.327  19.790  0.00  0.00    +0.000 NA
ENDBRANCH   2  13
BRANCH  10  19
ATOM     19  C   UNL     1       5.656   5.449  14.086  0.00  0.00    +0.000 C 
BRANCH  19  20
ATOM     20  C   UNL     1       5.897   4.298  13.126  0.00  0.00    +0.000 A 
ATOM     21  C   UNL     1       4.824   3.534  12.637  0.00  0.00    +0.000 A 
ATOM     22  C   UNL     1       5.047   2.482  11.745  0.00  0.00    +0.000 A 
ATOM     23  C   UNL     1       6.340   2.189  11.338  0.00  0.00    +0.000 A 
ATOM     24  F   UNL     1       6.558   1.176  10.483  0.00  0.00    +0.000 F 
ATOM     25  C   UNL     1       7.422   2.932  11.800  0.00  0.00    +0.000 A 
ATOM     26  C   UNL     1       7.199   3.988  12.689  0.00  0.00    +0.000 A 
ENDBRANCH  19  20
ENDBRANCH  10  19
TORSDOF 3
ENDMDL
MODEL 2
REMARK VINA RESULT:      -6.1      6.195      8.852
REMARK  Name = 
REMARK  3 active torsions:
REMARK  status: ('A' for Active; 'I' for Inactive)
REMARK    1  A    between atoms: C_2  and  C_3
REMARK    2  A    between atoms: N_16  and  C_17
REMARK    3  A    between atoms: C_17  and  C_18
REMARK                            x       y       z     vdW  Elec       q    Type
REMARK                         _______ _______ _______ _____ _____    ______ ____
ROOT
ATOM      1  O   UNL     1       2.048   6.448  20.938  0.00  0.00    +0.000 OA
ATOM      2  C   UNL     1       2.354   6.697  19.773  0.00  0.00    +0.000 C 
ATOM      3  N   UNL     1       1.840   7.792  19.090  0.00  0.00    +0.000 N 
ATOM      4  C   UNL     1       2.261   8.272  17.770  0.00  0.00    +0.000 C 
ATOM      5  C   UNL     1       1.727   9.699  17.675  0.00  0.00    +0.000 C 
ATOM      6  O   UNL     1       2.721  10.569  18.240  0.00  0.00    +0.000 OA
ATOM      7  C   UNL     1       2.206  11.867  18.473  0.00  0.00    +0.000 C 
ATOM      8  C   UNL     1       0.879  11.965  19.239  0.00  0.00    +0.000 C 
ATOM      9  O   UNL     1       0.601  12.940  19.932  0.00  0.00    +0.000 OA
ATOM     10  N   UNL     1      -0.021  10.949  18.949  0.00  0.00    +0.000 N 
ATOM     11  C   UNL     1       0.472   9.635  18.557  0.00  0.00    +0.000 C 
ATOM     12  C   UNL     1       0.964   8.762  19.727  0.00  0.00    +0.000 C 
ENDROOT
BRANCH   2  13
ATOM     13  C   UNL     1       3.353   5.829  19.076  0.00  0.00    +0.000 A 
ATOM     14  C   UNL     1       2.925   4.942  18.103  0.00  0.00    +0.000 A 
ATOM     15  N   UNL     1       3.750   4.006  17.560  0.00  0.00    +0.000 NA
ATOM     16  C   UNL     1       5.019   4.004  18.030  0.00  0.00    +0.000 A 
ATOM     17  C   UNL     1       5.461   4.917  18.968  0.00  0.00    +0.000 A 
ATOM     18  N   UNL     1       4.649   5.854  19.500  0.00  0.00    +0.000 NA
ENDBRANCH   2  13
BRANCH  10  19
ATOM     19  C   UNL     1      -1.441  11.116  19.229  0.00  0.00    +0.000 C 
BRANCH  19  20
ATOM     20  C   UNL     1      -2.278  10.887  17.983  0.00  0.00    +0.000 A 
ATOM     21  C   UNL     1      -3.475  11.595  17.783  0.00  0.00    +0.000 A 
ATOM     22  C   UNL     1      -4.239  11.390  16.631  0.00  0.00    +0.000 A 
ATOM     23  C   UNL     1      -3.811  10.480  15.676  0.00  0.00    +0.000 A 
ATOM     24  F   UNL     1      -4.545  10.279  14.569  0.00  0.00    +0.000 F 
ATOM     25  C   UNL     1      -2.627   9.769  15.844  0.00  0.00    +0.000 A 
ATOM     26  C   UNL     1      -1.860   9.976  16.994  0.00  0.00    +0.000 A 
ENDBRANCH  19  20
ENDBRANCH  10  19
TORSDOF 3
ENDMDL
MODEL 3
REMARK VINA RESULT:      -6.1     10.771     12.503
REMARK  Name = 
REMARK  3 active torsions:
REMARK  status: ('A' for Active; 'I' for Inactive)
REMARK    1  A    between atoms: C_2  and  C_3
REMARK    2  A    between atoms: N_16  and  C_17
REMARK    3  A    between atoms: C_17  and  C_18
REMARK                            x       y       z     vdW  Elec       q    Type
REMARK                         _______ _______ _______ _____ _____    ______ ____
ROOT
ATOM      1  O   UNL     1       4.968  13.977  18.083  0.00  0.00    +0.000 OA
ATOM      2  C   UNL     1       4.968  15.096  18.594  0.00  0.00    +0.000 C 
ATOM      3  N   UNL     1       6.129  15.691  19.072  0.00  0.00    +0.000 N 
ATOM      4  C   UNL     1       6.269  17.073  19.542  0.00  0.00    +0.000 C 
ATOM      5  C   UNL     1       7.771  17.346  19.533  0.00  0.00    +0.000 C 
ATOM      6  O   UNL     1       8.115  17.822  18.223  0.00  0.00    +0.000 OA
ATOM      7  C   UNL     1       9.516  17.820  18.017  0.00  0.00    +0.000 C 
ATOM      8  C   UNL     1      10.270  16.526  18.356  0.00  0.00    +0.000 C 
ATOM      9  O   UNL     1      11.306  16.210  17.778  0.00  0.00    +0.000 OA
ATOM     10  N   UNL     1       9.771  15.851  19.462  0.00  0.00    +0.000 N 
ATOM     11  C   UNL     1       8.357  15.951  19.793  0.00  0.00    +0.000 C 
ATOM     12  C   UNL     1       7.434  15.066  18.934  0.00  0.00    +0.000 C 
ENDROOT
BRANCH   2  13
ATOM     13  C   UNL     1       3.691  15.872  18.660  0.00  0.00    +0.000 A 
ATOM     14  C   UNL     1       3.272  16.589  17.552  0.00  0.00    +0.000 A 
ATOM     15  N   UNL     1       2.220  17.452  17.602  0.00  0.00    +0.000 NA
ATOM     16  C   UNL     1       1.607  17.556  18.803  0.00  0.00    +0.000 A 
ATOM     17  C   UNL     1       1.994  16.807  19.898  0.00  0.00    +0.000 A 
ATOM     18  N   UNL     1       3.030  15.942  19.850  0.00  0.00    +0.000 NA
ENDBRANCH   2  13
BRANCH  10  19
ATOM     19  C   UNL     1      10.598  14.884  20.172  0.00  0.00    +0.000 C 
BRANCH  19  20
ATOM     20  C   UNL     1      10.186  13.461  19.842  0.00  0.00    +0.000 A 
ATOM     21  C   UNL     1      10.274  12.975  18.526  0.00  0.00    +0.000 A 
ATOM     22  C   UNL     1       9.904  11.661  18.227  0.00  0.00    +0.000 A 
ATOM     23  C   UNL     1       9.446  10.829  19.237  0.00  0.00    +0.000 A 
ATOM     24  F   UNL     1       9.088   9.566  18.951  0.00  0.00    +0.000 F 
ATOM     25  C   UNL     1       9.354  11.280  20.550  0.00  0.00    +0.000 A 
ATOM     26  C   UNL     1       9.728  12.593  20.852  0.00  0.00    +0.000 A 
ENDBRANCH  19  20
ENDBRANCH  10  19
TORSDOF 3
ENDMDL
MODEL 4
REMARK VINA RESULT:      -6.1      7.922     10.121
REMARK  Name = 
REMARK  3 active torsions:
REMARK  status: ('A' for Active; 'I' for Inactive)
REMARK    1  A    between atoms: C_2  and  C_3
REMARK    2  A    between atoms: N_16  and  C_17
REMARK    3  A    between atoms: C_17  and  C_18
REMARK                            x       y       z     vdW  Elec       q    Type
REMARK                         _______ _______ _______ _____ _____    ______ ____
ROOT
ATOM      1  O   UNL     1      -3.640  11.241  15.627  0.00  0.00    +0.000 OA
ATOM      2  C   UNL     1      -3.773  11.197  16.849  0.00  0.00    +0.000 C 
ATOM      3  N   UNL     1      -2.696  11.007  17.705  0.00  0.00    +0.000 N 
ATOM      4  C   UNL     1      -2.717  11.105  19.168  0.00  0.00    +0.000 C 
ATOM      5  C   UNL     1      -1.254  11.246  19.580  0.00  0.00    +0.000 C 
ATOM      6  O   UNL     1      -0.933  12.646  19.553  0.00  0.00    +0.000 OA
ATOM      7  C   UNL     1       0.464  12.862  19.626  0.00  0.00    +0.000 C 
ATOM      8  C   UNL     1       1.346  12.069  18.651  0.00  0.00    +0.000 C 
ATOM      9  O   UNL     1       2.424  12.502  18.252  0.00  0.00    +0.000 OA
ATOM     10  N   UNL     1       0.898  10.779  18.400  0.00  0.00    +0.000 N 
ATOM     11  C   UNL     1      -0.527  10.483  18.463  0.00  0.00    +0.000 C 
ATOM     12  C   UNL     1      -1.327  10.921  17.222  0.00  0.00    +0.000 C 
ENDROOT
BRANCH   2  13
ATOM     13  C   UNL     1      -5.128  11.408  17.446  0.00  0.00    +0.000 A 
ATOM     14  C   UNL     1      -5.791  12.604  17.227  0.00  0.00    +0.000 A 
ATOM     15  N   UNL     1      -6.940  12.928  17.881  0.00  0.00    +0.000 NA
ATOM     16  C   UNL     1      -7.395  12.002  18.755  0.00  0.00    +0.000 A 
ATOM     17  C   UNL     1      -6.760  10.788  18.943  0.00  0.00    +0.000 A 
ATOM     18  N   UNL     1      -5.627  10.458  18.287  0.00  0.00    +0.000 NA
ENDBRANCH   2  13
BRANCH  10  19
ATOM     19  C   UNL     1       1.807   9.769  17.874  0.00  0.00    +0.000 C 
BRANCH  19  20
ATOM     20  C   UNL     1       1.870   8.557  18.786  0.00  0.00    +0.000 A 
ATOM     21  C   UNL     1       1.393   8.627  20.106  0.00  0.00    +0.000 A 
ATOM     22  C   UNL     1       1.442   7.507  20.941  0.00  0.00    +0.000 A 
ATOM     23  C   UNL     1       1.966   6.316  20.462  0.00  0.00    +0.000 A 
ATOM     24  F   UNL     1       2.017   5.239  21.263  0.00  0.00    +0.000 F 
ATOM     25  C   UNL     1       2.440   6.215  19.158  0.00  0.00    +0.000 A 
ATOM     26  C   UNL     1       2.387   7.334  18.320  0.00  0.00    +0.000 A 
ENDBRANCH  19  20
ENDBRANCH  10  19
TORSDOF 3
ENDMDL
MODEL 5
REMARK VINA RESULT:      -6.1      9.498     11.577
REMARK  Name = 
REMARK  3 active torsions:
REMARK  status: ('A' for Active; 'I' for Inactive)
REMARK    1  A    between atoms: C_2  and  C_3
REMARK    2  A    between atoms: N_16  and  C_17
REMARK    3  A    between atoms: C_17  and  C_18
REMARK                            x       y       z     vdW  Elec       q    Type
REMARK                         _______ _______ _______ _____ _____    ______ ____
ROOT
ATOM      1  O   UNL     1      -5.566  13.794  19.712  0.00  0.00    +0.000 OA
ATOM      2  C   UNL     1      -5.183  13.316  20.780  0.00  0.00    +0.000 C 
ATOM      3  N   UNL     1      -3.921  12.755  20.929  0.00  0.00    +0.000 N 
ATOM      4  C   UNL     1      -3.307  12.314  22.186  0.00  0.00    +0.000 C 
ATOM      5  C   UNL     1      -1.816  12.196  21.881  0.00  0.00    +0.000 C 
ATOM      6  O   UNL     1      -1.226  13.484  22.117  0.00  0.00    +0.000 OA
ATOM      7  C   UNL     1       0.083  13.564  21.584  0.00  0.00    +0.000 C 
ATOM      8  C   UNL     1       0.271  13.124  20.125  0.00  0.00    +0.000 C 
ATOM      9  O   UNL     1       1.152  13.599  19.413  0.00  0.00    +0.000 OA
ATOM     10  N   UNL     1      -0.522  12.048  19.750  0.00  0.00    +0.000 N 
ATOM     11  C   UNL     1      -1.816  11.846  20.387  0.00  0.00    +0.000 C 
ATOM     12  C   UNL     1      -2.939  12.759  19.858  0.00  0.00    +0.000 C 
ENDROOT
BRANCH   2  13
ATOM     13  C   UNL     1      -6.078  13.386  21.976  0.00  0.00    +0.000 A 
ATOM     14  C   UNL     1      -6.141  14.558  22.712  0.00  0.00    +0.000 A 
ATOM     15  N   UNL     1      -6.794  14.631  23.904  0.00  0.00    +0.000 NA
ATOM     16  C   UNL     1      -7.383  13.486  24.318  0.00  0.00    +0.000 A 
ATOM     17  C   UNL     1      -7.360  12.328  23.565  0.00  0.00    +0.000 A 
ATOM     18  N   UNL     1      -6.723  12.254  22.377  0.00  0.00    +0.000 NA
ENDBRANCH   2  13
BRANCH  10  19
ATOM     19  C   UNL     1      -0.171  11.240  18.589  0.00  0.00    +0.000 C 
BRANCH  19  20
ATOM     20  C   UNL     1       0.610  10.004  18.994  0.00  0.00    +0.000 A 
ATOM     21  C   UNL     1       0.580   9.539  20.320  0.00  0.00    +0.000 A 
ATOM     22  C   UNL     1       1.292   8.394  20.689  0.00  0.00    +0.000 A 
ATOM     23  C   UNL     1       2.034   7.710  19.738  0.00  0.00    +0.000 A 
ATOM     24  F   UNL     1       2.722   6.612  20.091  0.00  0.00    +0.000 F 
ATOM     25  C   UNL     1       2.078   8.144  18.416  0.00  0.00    +0.000 A 
ATOM     26  C   UNL     1       1.362   9.286  18.045  0.00  0.00    +0.000 A 
ENDBRANCH  19  20
ENDBRANCH  10  19
TORSDOF 3
ENDMDL
MODEL 6
REMARK VINA RESULT:      -6.1     10.711     12.518
REMARK  Name = 
REMARK  3 active torsions:
REMARK  status: ('A' for Active; 'I' for Inactive)
REMARK    1  A    between atoms: C_2  and  C_3
REMARK    2  A    between atoms: N_16  and  C_17
REMARK    3  A    between atoms: C_17  and  C_18
REMARK                            x       y       z     vdW  Elec       q    Type
REMARK                         _______ _______ _______ _____ _____    ______ ____
ROOT
ATOM      1  O   UNL     1       5.928  13.870  17.595  0.00  0.00    +0.000 OA
ATOM      2  C   UNL     1       5.926  14.908  18.256  0.00  0.00    +0.000 C 
ATOM      3  N   UNL     1       7.097  15.497  18.714  0.00  0.00    +0.000 N 
ATOM      4  C   UNL     1       7.219  16.808  19.360  0.00  0.00    +0.000 C 
ATOM      5  C   UNL     1       8.700  17.163  19.265  0.00  0.00    +0.000 C 
ATOM      6  O   UNL     1       8.903  17.831  18.010  0.00  0.00    +0.000 OA
ATOM      7  C   UNL     1      10.278  17.936  17.690  0.00  0.00    +0.000 C 
ATOM      8  C   UNL     1      11.116  16.652  17.780  0.00  0.00    +0.000 C 
ATOM      9  O   UNL     1      12.109  16.476  17.079  0.00  0.00    +0.000 OA
ATOM     10  N   UNL     1      10.750  15.806  18.818  0.00  0.00    +0.000 N 
ATOM     11  C   UNL     1       9.367  15.781  19.277  0.00  0.00    +0.000 C 
ATOM     12  C   UNL     1       8.411  14.971  18.381  0.00  0.00    +0.000 C 
ENDROOT
BRANCH   2  13
ATOM     13  C   UNL     1       4.627  15.595  18.536  0.00  0.00    +0.000 A 
ATOM     14  C   UNL     1       4.020  16.338  17.537  0.00  0.00    +0.000 A 
ATOM     15  N   UNL     1       2.936  17.126  17.776  0.00  0.00    +0.000 NA
ATOM     16  C   UNL     1       2.488  17.131  19.052  0.00  0.00    +0.000 A 
ATOM     17  C   UNL     1       3.064  16.356  20.041  0.00  0.00    +0.000 A 
ATOM     18  N   UNL     1       4.131  15.564  19.806  0.00  0.00    +0.000 NA
ENDBRANCH   2  13
BRANCH  10  19
ATOM     19  C   UNL     1      11.678  14.799  19.314  0.00  0.00    +0.000 C 
BRANCH  19  20
ATOM     20  C   UNL     1      11.058  13.414  19.281  0.00  0.00    +0.000 A 
ATOM     21  C   UNL     1      10.598  12.806  20.462  0.00  0.00    +0.000 A 
ATOM     22  C   UNL     1      10.018  11.535  20.428  0.00  0.00    +0.000 A 
ATOM     23  C   UNL     1       9.893  10.869  19.218  0.00  0.00    +0.000 A 
ATOM     24  F   UNL     1       9.338   9.646  19.184  0.00  0.00    +0.000 F 
ATOM     25  C   UNL     1      10.333  11.449  18.033  0.00  0.00    +0.000 A 
ATOM     26  C   UNL     1      10.911  12.722  18.064  0.00  0.00    +0.000 A 
ENDBRANCH  19  20
ENDBRANCH  10  19
TORSDOF 3
ENDMDL
MODEL 7
REMARK VINA RESULT:      -6.0      7.841      9.995
REMARK  Name = 
REMARK  3 active torsions:
REMARK  status: ('A' for Active; 'I' for Inactive)
REMARK    1  A    between atoms: C_2  and  C_3
REMARK    2  A    between atoms: N_16  and  C_17
REMARK    3  A    between atoms: C_17  and  C_18
REMARK                            x       y       z     vdW  Elec       q    Type
REMARK                         _______ _______ _______ _____ _____    ______ ____
ROOT
ATOM      1  O   UNL     1      -3.754  11.401  16.380  0.00  0.00    +0.000 OA
ATOM      2  C   UNL     1      -3.716  11.359  17.610  0.00  0.00    +0.000 C 
ATOM      3  N   UNL     1      -2.539  11.118  18.307  0.00  0.00    +0.000 N 
ATOM      4  C   UNL     1      -2.352  11.211  19.758  0.00  0.00    +0.000 C 
ATOM      5  C   UNL     1      -0.841  11.286  19.961  0.00  0.00    +0.000 C 
ATOM      6  O   UNL     1      -0.465  12.671  19.886  0.00  0.00    +0.000 OA
ATOM      7  C   UNL     1       0.936  12.825  19.763  0.00  0.00    +0.000 C 
ATOM      8  C   UNL     1       1.638  11.998  18.676  0.00  0.00    +0.000 C 
ATOM      9  O   UNL     1       2.667  12.384  18.130  0.00  0.00    +0.000 OA
ATOM     10  N   UNL     1       1.102  10.730  18.493  0.00  0.00    +0.000 N 
ATOM     11  C   UNL     1      -0.312  10.497  18.756  0.00  0.00    +0.000 C 
ATOM     12  C   UNL     1      -1.257  10.974  17.637  0.00  0.00    +0.000 C 
ENDROOT
BRANCH   2  13
ATOM     13  C   UNL     1      -4.964  11.627  18.389  0.00  0.00    +0.000 A 
ATOM     14  C   UNL     1      -5.918  10.631  18.514  0.00  0.00    +0.000 A 
ATOM     15  N   UNL     1      -7.144  10.864  19.056  0.00  0.00    +0.000 NA
ATOM     16  C   UNL     1      -7.367  12.132  19.471  0.00  0.00    +0.000 A 
ATOM     17  C   UNL     1      -6.402  13.118  19.389  0.00  0.00    +0.000 A 
ATOM     18  N   UNL     1      -5.180  12.887  18.863  0.00  0.00    +0.000 NA
ENDBRANCH   2  13
BRANCH  10  19
ATOM     19  C   UNL     1       1.883   9.683  17.848  0.00  0.00    +0.000 C 
BRANCH  19  20
ATOM     20  C   UNL     1       1.948   8.434  18.709  0.00  0.00    +0.000 A 
ATOM     21  C   UNL     1       2.400   7.216  18.174  0.00  0.00    +0.000 A 
ATOM     22  C   UNL     1       2.468   6.070  18.972  0.00  0.00    +0.000 A 
ATOM     23  C   UNL     1       2.087   6.136  20.304  0.00  0.00    +0.000 A 
ATOM     24  F   UNL     1       2.148   5.036  21.071  0.00  0.00    +0.000 F 
ATOM     25  C   UNL     1       1.640   7.330  20.862  0.00  0.00    +0.000 A 
ATOM     26  C   UNL     1       1.576   8.478  20.067  0.00  0.00    +0.000 A 
ENDBRANCH  19  20
ENDBRANCH  10  19
TORSDOF 3
ENDMDL
MODEL 8
REMARK VINA RESULT:      -6.0     10.672     12.382
REMARK  Name = 
REMARK  3 active torsions:
REMARK  status: ('A' for Active; 'I' for Inactive)
REMARK    1  A    between atoms: C_2  and  C_3
REMARK    2  A    between atoms: N_16  and  C_17
REMARK    3  A    between atoms: C_17  and  C_18
REMARK                            x       y       z     vdW  Elec       q    Type
REMARK                         _______ _______ _______ _____ _____    ______ ____
ROOT
ATOM      1  O   UNL     1       5.072  14.048  18.167  0.00  0.00    +0.000 OA
ATOM      2  C   UNL     1       5.166  15.177  18.647  0.00  0.00    +0.000 C 
ATOM      3  N   UNL     1       6.381  15.703  19.069  0.00  0.00    +0.000 N 
ATOM      4  C   UNL     1       6.631  17.083  19.495  0.00  0.00    +0.000 C 
ATOM      5  C   UNL     1       8.147  17.252  19.430  0.00  0.00    +0.000 C 
ATOM      6  O   UNL     1       8.476  17.670  18.096  0.00  0.00    +0.000 OA
ATOM      7  C   UNL     1       9.866  17.567  17.844  0.00  0.00    +0.000 C 
ATOM      8  C   UNL     1      10.542  16.233  18.193  0.00  0.00    +0.000 C 
ATOM      9  O   UNL     1      11.533  15.831  17.590  0.00  0.00    +0.000 OA
ATOM     10  N   UNL     1      10.037  15.622  19.333  0.00  0.00    +0.000 N 
ATOM     11  C   UNL     1       8.645  15.827  19.708  0.00  0.00    +0.000 C 
ATOM     12  C   UNL     1       7.635  14.987  18.905  0.00  0.00    +0.000 C 
ENDROOT
BRANCH   2  13
ATOM     13  C   UNL     1       3.948  16.040  18.733  0.00  0.00    +0.000 A 
ATOM     14  C   UNL     1       3.207  16.058  19.903  0.00  0.00    +0.000 A 
ATOM     15  N   UNL     1       1.999  16.680  19.987  0.00  0.00    +0.000 NA
ATOM     16  C   UNL     1       1.574  17.286  18.855  0.00  0.00    +0.000 A 
ATOM     17  C   UNL     1       2.332  17.308  17.699  0.00  0.00    +0.000 A 
ATOM     18  N   UNL     1       3.536  16.703  17.615  0.00  0.00    +0.000 NA
ENDBRANCH   2  13
BRANCH  10  19
ATOM     19  C   UNL     1      10.820  14.618  20.042  0.00  0.00    +0.000 C 
BRANCH  19  20
ATOM     20  C   UNL     1      10.332  13.216  19.727  0.00  0.00    +0.000 A 
ATOM     21  C   UNL     1       9.809  12.394  20.739  0.00  0.00    +0.000 A 
ATOM     22  C   UNL     1       9.350  11.107  20.445  0.00  0.00    +0.000 A 
ATOM     23  C   UNL     1       9.412  10.637  19.142  0.00  0.00    +0.000 A 
ATOM     24  F   UNL     1       8.975   9.399  18.857  0.00  0.00    +0.000 F 
ATOM     25  C   UNL     1       9.920  11.430  18.118  0.00  0.00    +0.000 A 
ATOM     26  C   UNL     1      10.375  12.720  18.410  0.00  0.00    +0.000 A 
ENDBRANCH  19  20
ENDBRANCH  10  19
TORSDOF 3
ENDMDL
MODEL 9
REMARK VINA RESULT:      -5.9     11.094     12.844
REMARK  Name = 
REMARK  3 active torsions:
REMARK  status: ('A' for Active; 'I' for Inactive)
REMARK    1  A    between atoms: C_2  and  C_3
REMARK    2  A    between atoms: N_16  and  C_17
REMARK    3  A    between atoms: C_17  and  C_18
REMARK                            x       y       z     vdW  Elec       q    Type
REMARK                         _______ _______ _______ _____ _____    ______ ____
ROOT
ATOM      1  O   UNL     1       5.912  14.079  17.869  0.00  0.00    +0.000 OA
ATOM      2  C   UNL     1       5.825  15.124  18.513  0.00  0.00    +0.000 C 
ATOM      3  N   UNL     1       6.945  15.823  18.945  0.00  0.00    +0.000 N 
ATOM      4  C   UNL     1       6.957  17.151  19.567  0.00  0.00    +0.000 C 
ATOM      5  C   UNL     1       8.400  17.634  19.447  0.00  0.00    +0.000 C 
ATOM      6  O   UNL     1       8.528  18.296  18.178  0.00  0.00    +0.000 OA
ATOM      7  C   UNL     1       9.884  18.516  17.838  0.00  0.00    +0.000 C 
ATOM      8  C   UNL     1      10.834  17.314  17.938  0.00  0.00    +0.000 C 
ATOM      9  O   UNL     1      11.830  17.214  17.227  0.00  0.00    +0.000 OA
ATOM     10  N   UNL     1      10.556  16.457  18.995  0.00  0.00    +0.000 N 
ATOM     11  C   UNL     1       9.188  16.317  19.473  0.00  0.00    +0.000 C 
ATOM     12  C   UNL     1       8.297  15.410  18.604  0.00  0.00    +0.000 C 
ENDROOT
BRANCH   2  13
ATOM     13  C   UNL     1       4.474  15.698  18.799  0.00  0.00    +0.000 A 
ATOM     14  C   UNL     1       3.881  16.540  17.872  0.00  0.00    +0.000 A 
ATOM     15  N   UNL     1       2.741  17.231  18.145  0.00  0.00    +0.000 NA
ATOM     16  C   UNL     1       2.221  17.035  19.379  0.00  0.00    +0.000 A 
ATOM     17  C   UNL     1       2.785  16.162  20.289  0.00  0.00    +0.000 A 
ATOM     18  N   UNL     1       3.910  15.466  20.018  0.00  0.00    +0.000 NA
ENDBRANCH   2  13
BRANCH  10  19
ATOM     19  C   UNL     1      11.577  15.546  19.495  0.00  0.00    +0.000 C 
BRANCH  19  20
ATOM     20  C   UNL     1      11.133  14.100  19.370  0.00  0.00    +0.000 A 
ATOM     21  C   UNL     1      11.071  13.474  18.113  0.00  0.00    +0.000 A 
ATOM     22  C   UNL     1      10.671  12.140  18.002  0.00  0.00    +0.000 A 
ATOM     23  C   UNL     1      10.334  11.426  19.142  0.00  0.00    +0.000 A 
ATOM     24  F   UNL     1       9.947  10.144  19.036  0.00  0.00    +0.000 F 
ATOM     25  C   UNL     1      10.392  12.017  20.400  0.00  0.00    +0.000 A 
ATOM     26  C   UNL     1      10.795  13.351  20.514  0.00  0.00    +0.000 A 
ENDBRANCH  19  20
ENDBRANCH  10  19
TORSDOF 3
ENDMDL
