MODEL 1
REMARK VINA RESULT:      -8.8      0.000      0.000
REMARK  Name = 
REMARK  6 active torsions:
REMARK  status: ('A' for Active; 'I' for Inactive)
REMARK    1  A    between atoms: C_2  and  C_3
REMARK    2  A    between atoms: C_3  and  C_4
REMARK    3  A    between atoms: N_11  and  C_12
REMARK    4  A    between atoms: C_12  and  C_13
REMARK    5  A    between atoms: C_16  and  C_17
REMARK    6  A    between atoms: C_19  and  C_20
REMARK                            x       y       z     vdW  Elec       q    Type
REMARK                         _______ _______ _______ _____ _____    ______ ____
ROOT
ATOM      1  C   UNL     1      -0.925  10.900  22.349  0.00  0.00    +0.000 A 
ATOM      2  C   UNL     1      -0.650  11.370  21.058  0.00  0.00    +0.000 A 
ATOM      3  C   UNL     1       0.162  10.630  20.193  0.00  0.00    +0.000 A 
ATOM      4  C   UNL     1       0.695   9.394  20.589  0.00  0.00    +0.000 A 
ATOM      5  C   UNL     1       0.440   8.938  21.888  0.00  0.00    +0.000 A 
ATOM      6  C   UNL     1      -0.364   9.683  22.759  0.00  0.00    +0.000 A 
ENDROOT
BRANCH   4   7
ATOM      7  C   UNL     1       1.485   8.621  19.641  0.00  0.00    +0.000 A 
ATOM      8  N   UNL     1       2.202   7.536  19.853  0.00  0.00    +0.000 NA
ATOM      9  C   UNL     1       2.758   7.243  18.617  0.00  0.00    +0.000 A 
ATOM     10  C   UNL     1       2.400   8.230  17.727  0.00  0.00    +0.000 A 
ATOM     11  O   UNL     1       1.561   9.098  18.358  0.00  0.00    +0.000 OA
BRANCH   9  12
ATOM     12  C   UNL     1       3.637   6.115  18.327  0.00  0.00    +0.000 C 
ATOM     13  O   UNL     1       4.699   6.293  17.732  0.00  0.00    +0.000 OA
ATOM     14  N   UNL     1       3.238   4.841  18.750  0.00  0.00    +0.000 N 
ATOM     15  C   UNL     1       4.197   3.742  18.712  0.00  0.00    +0.000 C 
ATOM     16  C   UNL     1       3.732   2.636  17.769  0.00  0.00    +0.000 C 
ATOM     17  C   UNL     1       2.314   2.181  18.113  0.00  0.00    +0.000 C 
ATOM     18  C   UNL     1       1.358   3.368  18.159  0.00  0.00    +0.000 C 
ATOM     19  C   UNL     1       1.867   4.460  19.099  0.00  0.00    +0.000 C 
ENDBRANCH   9  12
ENDBRANCH   4   7
BRANCH   1  20
ATOM     20  C   UNL     1      -1.856  11.664  23.255  0.00  0.00    +0.000 C 
BRANCH  20  23
ATOM     21  O   UNL     1      -4.495  12.124  24.035  0.00  0.00    +0.000 OA
ATOM     22  C   UNL     1      -4.108  12.587  22.965  0.00  0.00    +0.000 C 
ATOM     23  N   UNL     1      -2.827  12.409  22.486  0.00  0.00    +0.000 N 
ATOM     24  H   UNL     1      -2.473  13.134  21.873  0.00  0.00    +0.000 HD
BRANCH  22  25
ATOM     25  C   UNL     1      -5.030  13.334  22.016  0.00  0.00    +0.000 C 
BRANCH  25  26
ATOM     26  C   UNL     1      -5.664  12.531  20.907  0.00  0.00    +0.000 A 
ATOM     27  C   UNL     1      -6.927  11.949  21.124  0.00  0.00    +0.000 A 
ATOM     28  C   UNL     1      -7.529  11.150  20.148  0.00  0.00    +0.000 A 
ATOM     29  C   UNL     1      -6.878  10.914  18.939  0.00  0.00    +0.000 A 
ATOM     30  C   UNL     1      -5.616  11.461  18.721  0.00  0.00    +0.000 A 
ATOM     31  C   UNL     1      -5.015  12.248  19.703  0.00  0.00    +0.000 A 
ATOM     32  F   UNL     1      -3.776  12.703  19.475  0.00  0.00    +0.000 F 
ENDBRANCH  25  26
ENDBRANCH  22  25
ENDBRANCH  20  23
ENDBRANCH   1  20
TORSDOF 6
ENDMDL
MODEL 2
REMARK VINA RESULT:      -8.7      3.216     10.321
REMARK  Name = 
REMARK  6 active torsions:
REMARK  status: ('A' for Active; 'I' for Inactive)
REMARK    1  A    between atoms: C_2  and  C_3
REMARK    2  A    between atoms: C_3  and  C_4
REMARK    3  A    between atoms: N_11  and  C_12
REMARK    4  A    between atoms: C_12  and  C_13
REMARK    5  A    between atoms: C_16  and  C_17
REMARK    6  A    between atoms: C_19  and  C_20
REMARK                            x       y       z     vdW  Elec       q    Type
REMARK                         _______ _______ _______ _____ _____    ______ ____
ROOT
ATOM      1  C   UNL     1       2.340   8.052  18.526  0.00  0.00    +0.000 A 
ATOM      2  C   UNL     1       1.718   9.239  18.119  0.00  0.00    +0.000 A 
ATOM      3  C   UNL     1       0.941   9.976  19.019  0.00  0.00    +0.000 A 
ATOM      4  C   UNL     1       0.791   9.557  20.348  0.00  0.00    +0.000 A 
ATOM      5  C   UNL     1       1.392   8.357  20.747  0.00  0.00    +0.000 A 
ATOM      6  C   UNL     1       2.161   7.612  19.845  0.00  0.00    +0.000 A 
ENDROOT
BRANCH   4   7
ATOM      7  C   UNL     1       0.027  10.382  21.275  0.00  0.00    +0.000 A 
ATOM      8  N   UNL     1      -0.102  11.693  21.302  0.00  0.00    +0.000 NA
ATOM      9  C   UNL     1      -0.912  11.937  22.400  0.00  0.00    +0.000 A 
ATOM     10  C   UNL     1      -1.170  10.742  23.033  0.00  0.00    +0.000 A 
ATOM     11  O   UNL     1      -0.604   9.738  22.308  0.00  0.00    +0.000 OA
BRANCH   9  12
ATOM     12  C   UNL     1      -1.357  13.252  22.852  0.00  0.00    +0.000 C 
ATOM     13  O   UNL     1      -0.650  13.920  23.606  0.00  0.00    +0.000 OA
ATOM     14  N   UNL     1      -2.594  13.722  22.398  0.00  0.00    +0.000 N 
ATOM     15  C   UNL     1      -2.951  15.120  22.613  0.00  0.00    +0.000 C 
ATOM     16  C   UNL     1      -4.192  15.245  23.492  0.00  0.00    +0.000 C 
ATOM     17  C   UNL     1      -5.346  14.413  22.935  0.00  0.00    +0.000 C 
ATOM     18  C   UNL     1      -4.915  12.967  22.711  0.00  0.00    +0.000 C 
ATOM     19  C   UNL     1      -3.661  12.886  21.841  0.00  0.00    +0.000 C 
ENDBRANCH   9  12
ENDBRANCH   4   7
BRANCH   1  20
ATOM     20  C   UNL     1       3.233   7.296  17.576  0.00  0.00    +0.000 C 
BRANCH  20  23
ATOM     21  O   UNL     1       4.782   5.377  16.270  0.00  0.00    +0.000 OA
ATOM     22  C   UNL     1       4.033   5.014  17.173  0.00  0.00    +0.000 C 
ATOM     23  N   UNL     1       3.221   5.882  17.873  0.00  0.00    +0.000 N 
ATOM     24  H   UNL     1       2.989   5.612  18.822  0.00  0.00    +0.000 HD
BRANCH  22  25
ATOM     25  C   UNL     1       3.862   3.554  17.556  0.00  0.00    +0.000 C 
BRANCH  25  26
ATOM     26  C   UNL     1       2.987   3.259  18.750  0.00  0.00    +0.000 A 
ATOM     27  C   UNL     1       1.598   3.454  18.640  0.00  0.00    +0.000 A 
ATOM     28  C   UNL     1       0.753   3.249  19.735  0.00  0.00    +0.000 A 
ATOM     29  C   UNL     1       1.283   2.851  20.961  0.00  0.00    +0.000 A 
ATOM     30  C   UNL     1       2.659   2.681  21.092  0.00  0.00    +0.000 A 
ATOM     31  C   UNL     1       3.498   2.898  19.999  0.00  0.00    +0.000 A 
ATOM     32  F   UNL     1       4.819   2.782  20.185  0.00  0.00    +0.000 F 
ENDBRANCH  25  26
ENDBRANCH  22  25
ENDBRANCH  20  23
ENDBRANCH   1  20
TORSDOF 6
ENDMDL
MODEL 3
REMARK VINA RESULT:      -8.6      3.130     10.277
REMARK  Name = 
REMARK  6 active torsions:
REMARK  status: ('A' for Active; 'I' for Inactive)
REMARK    1  A    between atoms: C_2  and  C_3
REMARK    2  A    between atoms: C_3  and  C_4
REMARK    3  A    between atoms: N_11  and  C_12
REMARK    4  A    between atoms: C_12  and  C_13
REMARK    5  A    between atoms: C_16  and  C_17
REMARK    6  A    between atoms: C_19  and  C_20
REMARK                            x       y       z     vdW  Elec       q    Type
REMARK                         _______ _______ _______ _____ _____    ______ ____
ROOT
ATOM      1  C   UNL     1       2.211   8.352  18.486  0.00  0.00    +0.000 A 
ATOM      2  C   UNL     1       1.660   9.603  18.179  0.00  0.00    +0.000 A 
ATOM      3  C   UNL     1       0.893  10.291  19.124  0.00  0.00    +0.000 A 
ATOM      4  C   UNL     1       0.684   9.759  20.404  0.00  0.00    +0.000 A 
ATOM      5  C   UNL     1       1.215   8.498  20.703  0.00  0.00    +0.000 A 
ATOM      6  C   UNL     1       1.973   7.802  19.753  0.00  0.00    +0.000 A 
ENDROOT
BRANCH   4   7
ATOM      7  C   UNL     1      -0.066  10.532  21.385  0.00  0.00    +0.000 A 
ATOM      8  N   UNL     1      -0.236  11.836  21.456  0.00  0.00    +0.000 NA
ATOM      9  C   UNL     1      -1.005  12.023  22.594  0.00  0.00    +0.000 A 
ATOM     10  C   UNL     1      -1.196  10.803  23.202  0.00  0.00    +0.000 A 
ATOM     11  O   UNL     1      -0.630   9.839  22.425  0.00  0.00    +0.000 OA
BRANCH   9  12
ATOM     12  C   UNL     1      -1.472  13.309  23.102  0.00  0.00    +0.000 C 
ATOM     13  O   UNL     1      -0.775  13.959  23.880  0.00  0.00    +0.000 OA
ATOM     14  N   UNL     1      -2.720  13.775  22.673  0.00  0.00    +0.000 N 
ATOM     15  C   UNL     1      -3.102  15.156  22.946  0.00  0.00    +0.000 C 
ATOM     16  C   UNL     1      -4.341  15.220  23.835  0.00  0.00    +0.000 C 
ATOM     17  C   UNL     1      -5.482  14.391  23.248  0.00  0.00    +0.000 C 
ATOM     18  C   UNL     1      -5.025  12.964  22.962  0.00  0.00    +0.000 C 
ATOM     19  C   UNL     1      -3.774  12.942  22.085  0.00  0.00    +0.000 C 
ENDBRANCH   9  12
ENDBRANCH   4   7
BRANCH   1  20
ATOM     20  C   UNL     1       3.093   7.643  17.491  0.00  0.00    +0.000 C 
BRANCH  20  23
ATOM     21  O   UNL     1       5.477   6.204  17.666  0.00  0.00    +0.000 OA
ATOM     22  C   UNL     1       4.419   5.616  17.870  0.00  0.00    +0.000 C 
ATOM     23  N   UNL     1       3.187   6.234  17.799  0.00  0.00    +0.000 N 
ATOM     24  H   UNL     1       2.452   5.837  18.372  0.00  0.00    +0.000 HD
BRANCH  22  25
ATOM     25  C   UNL     1       4.351   4.122  18.138  0.00  0.00    +0.000 C 
BRANCH  25  26
ATOM     26  C   UNL     1       3.185   3.628  18.960  0.00  0.00    +0.000 A 
ATOM     27  C   UNL     1       3.094   4.012  20.311  0.00  0.00    +0.000 A 
ATOM     28  C   UNL     1       2.064   3.536  21.127  0.00  0.00    +0.000 A 
ATOM     29  C   UNL     1       1.111   2.662  20.609  0.00  0.00    +0.000 A 
ATOM     30  C   UNL     1       1.204   2.252  19.282  0.00  0.00    +0.000 A 
ATOM     31  C   UNL     1       2.240   2.722  18.475  0.00  0.00    +0.000 A 
ATOM     32  F   UNL     1       2.326   2.254  17.223  0.00  0.00    +0.000 F 
ENDBRANCH  25  26
ENDBRANCH  22  25
ENDBRANCH  20  23
ENDBRANCH   1  20
TORSDOF 6
ENDMDL
MODEL 4
REMARK VINA RESULT:      -8.5      2.918     10.170
REMARK  Name = 
REMARK  6 active torsions:
REMARK  status: ('A' for Active; 'I' for Inactive)
REMARK    1  A    between atoms: C_2  and  C_3
REMARK    2  A    between atoms: C_3  and  C_4
REMARK    3  A    between atoms: N_11  and  C_12
REMARK    4  A    between atoms: C_12  and  C_13
REMARK    5  A    between atoms: C_16  and  C_17
REMARK    6  A    between atoms: C_19  and  C_20
REMARK                            x       y       z     vdW  Elec       q    Type
REMARK                         _______ _______ _______ _____ _____    ______ ____
ROOT
ATOM      1  C   UNL     1       2.852   7.588  18.213  0.00  0.00    +0.000 A 
ATOM      2  C   UNL     1       2.486   8.758  17.536  0.00  0.00    +0.000 A 
ATOM      3  C   UNL     1       1.635   9.689  18.140  0.00  0.00    +0.000 A 
ATOM      4  C   UNL     1       1.153   9.484  19.441  0.00  0.00    +0.000 A 
ATOM      5  C   UNL     1       1.499   8.302  20.107  0.00  0.00    +0.000 A 
ATOM      6  C   UNL     1       2.342   7.363  19.499  0.00  0.00    +0.000 A 
ENDROOT
BRANCH   4   7
ATOM      7  C   UNL     1       0.320  10.504  20.063  0.00  0.00    +0.000 A 
ATOM      8  N   UNL     1      -0.527  10.383  21.065  0.00  0.00    +0.000 NA
ATOM      9  C   UNL     1      -1.060  11.653  21.222  0.00  0.00    +0.000 A 
ATOM     10  C   UNL     1      -0.551  12.469  20.237  0.00  0.00    +0.000 A 
ATOM     11  O   UNL     1       0.355  11.758  19.510  0.00  0.00    +0.000 OA
BRANCH   9  12
ATOM     12  C   UNL     1      -2.051  12.041  22.221  0.00  0.00    +0.000 C 
ATOM     13  O   UNL     1      -1.938  11.663  23.386  0.00  0.00    +0.000 OA
ATOM     14  N   UNL     1      -3.116  12.853  21.814  0.00  0.00    +0.000 N 
ATOM     15  C   UNL     1      -3.970  13.471  22.821  0.00  0.00    +0.000 C 
ATOM     16  C   UNL     1      -5.412  12.988  22.693  0.00  0.00    +0.000 C 
ATOM     17  C   UNL     1      -5.932  13.182  21.269  0.00  0.00    +0.000 C 
ATOM     18  C   UNL     1      -4.993  12.537  20.255  0.00  0.00    +0.000 C 
ATOM     19  C   UNL     1      -3.558  13.033  20.428  0.00  0.00    +0.000 C 
ENDBRANCH   9  12
ENDBRANCH   4   7
BRANCH   1  20
ATOM     20  C   UNL     1       3.823   6.619  17.589  0.00  0.00    +0.000 C 
BRANCH  20  23
ATOM     21  O   UNL     1       4.590   4.351  16.156  0.00  0.00    +0.000 OA
ATOM     22  C   UNL     1       3.940   4.204  17.188  0.00  0.00    +0.000 C 
ATOM     23  N   UNL     1       3.506   5.259  17.962  0.00  0.00    +0.000 N 
ATOM     24  H   UNL     1       3.380   5.069  18.950  0.00  0.00    +0.000 HD
BRANCH  22  25
ATOM     25  C   UNL     1       3.474   2.842  17.673  0.00  0.00    +0.000 C 
BRANCH  25  26
ATOM     26  C   UNL     1       2.750   2.800  18.997  0.00  0.00    +0.000 A 
ATOM     27  C   UNL     1       1.370   3.074  19.026  0.00  0.00    +0.000 A 
ATOM     28  C   UNL     1       0.667   3.103  20.235  0.00  0.00    +0.000 A 
ATOM     29  C   UNL     1       1.332   2.863  21.435  0.00  0.00    +0.000 A 
ATOM     30  C   UNL     1       2.703   2.618  21.424  0.00  0.00    +0.000 A 
ATOM     31  C   UNL     1       3.401   2.601  20.216  0.00  0.00    +0.000 A 
ATOM     32  F   UNL     1       4.727   2.422  20.257  0.00  0.00    +0.000 F 
ENDBRANCH  25  26
ENDBRANCH  22  25
ENDBRANCH  20  23
ENDBRANCH   1  20
TORSDOF 6
ENDMDL
MODEL 5
REMARK VINA RESULT:      -8.5      3.447     10.686
REMARK  Name = 
REMARK  6 active torsions:
REMARK  status: ('A' for Active; 'I' for Inactive)
REMARK    1  A    between atoms: C_2  and  C_3
REMARK    2  A    between atoms: C_3  and  C_4
REMARK    3  A    between atoms: N_11  and  C_12
REMARK    4  A    between atoms: C_12  and  C_13
REMARK    5  A    between atoms: C_16  and  C_17
REMARK    6  A    between atoms: C_19  and  C_20
REMARK                            x       y       z     vdW  Elec       q    Type
REMARK                         _______ _______ _______ _____ _____    ______ ____
ROOT
ATOM      1  C   UNL     1       2.046   6.522  19.553  0.00  0.00    +0.000 A 
ATOM      2  C   UNL     1       1.456   6.869  20.775  0.00  0.00    +0.000 A 
ATOM      3  C   UNL     1       1.049   8.184  21.017  0.00  0.00    +0.000 A 
ATOM      4  C   UNL     1       1.198   9.175  20.035  0.00  0.00    +0.000 A 
ATOM      5  C   UNL     1       1.811   8.832  18.823  0.00  0.00    +0.000 A 
ATOM      6  C   UNL     1       2.229   7.517  18.584  0.00  0.00    +0.000 A 
ENDROOT
BRANCH   4   7
ATOM      7  C   UNL     1       0.706  10.520  20.297  0.00  0.00    +0.000 A 
ATOM      8  N   UNL     1       0.579  11.145  21.450  0.00  0.00    +0.000 NA
ATOM      9  C   UNL     1       0.040  12.378  21.117  0.00  0.00    +0.000 A 
ATOM     10  C   UNL     1      -0.205  12.401  19.762  0.00  0.00    +0.000 A 
ATOM     11  O   UNL     1       0.244  11.234  19.221  0.00  0.00    +0.000 OA
BRANCH   9  12
ATOM     12  C   UNL     1      -0.282  13.446  22.058  0.00  0.00    +0.000 C 
ATOM     13  O   UNL     1       0.611  14.155  22.520  0.00  0.00    +0.000 OA
ATOM     14  N   UNL     1      -1.624  13.638  22.405  0.00  0.00    +0.000 N 
ATOM     15  C   UNL     1      -2.011  14.845  23.127  0.00  0.00    +0.000 C 
ATOM     16  C   UNL     1      -2.595  14.506  24.495  0.00  0.00    +0.000 C 
ATOM     17  C   UNL     1      -3.734  13.494  24.372  0.00  0.00    +0.000 C 
ATOM     18  C   UNL     1      -3.283  12.263  23.592  0.00  0.00    +0.000 C 
ATOM     19  C   UNL     1      -2.689  12.645  22.237  0.00  0.00    +0.000 C 
ENDBRANCH   9  12
ENDBRANCH   4   7
BRANCH   1  20
ATOM     20  C   UNL     1       2.421   5.090  19.267  0.00  0.00    +0.000 C 
BRANCH  20  23
ATOM     21  O   UNL     1       2.935   3.127  17.353  0.00  0.00    +0.000 OA
ATOM     22  C   UNL     1       3.767   4.013  17.525  0.00  0.00    +0.000 C 
ATOM     23  N   UNL     1       3.612   5.023  18.452  0.00  0.00    +0.000 N 
ATOM     24  H   UNL     1       4.080   5.898  18.244  0.00  0.00    +0.000 HD
BRANCH  22  25
ATOM     25  C   UNL     1       5.098   4.039  16.792  0.00  0.00    +0.000 C 
BRANCH  25  26
ATOM     26  C   UNL     1       6.103   5.073  17.238  0.00  0.00    +0.000 A 
ATOM     27  C   UNL     1       7.008   4.744  18.263  0.00  0.00    +0.000 A 
ATOM     28  C   UNL     1       7.920   5.686  18.748  0.00  0.00    +0.000 A 
ATOM     29  C   UNL     1       7.939   6.975  18.222  0.00  0.00    +0.000 A 
ATOM     30  C   UNL     1       7.030   7.324  17.225  0.00  0.00    +0.000 A 
ATOM     31  C   UNL     1       6.115   6.383  16.753  0.00  0.00    +0.000 A 
ATOM     32  F   UNL     1       5.220   6.778  15.839  0.00  0.00    +0.000 F 
ENDBRANCH  25  26
ENDBRANCH  22  25
ENDBRANCH  20  23
ENDBRANCH   1  20
TORSDOF 6
ENDMDL
MODEL 6
REMARK VINA RESULT:      -8.5      3.372     10.207
REMARK  Name = 
REMARK  6 active torsions:
REMARK  status: ('A' for Active; 'I' for Inactive)
REMARK    1  A    between atoms: C_2  and  C_3
REMARK    2  A    between atoms: C_3  and  C_4
REMARK    3  A    between atoms: N_11  and  C_12
REMARK    4  A    between atoms: C_12  and  C_13
REMARK    5  A    between atoms: C_16  and  C_17
REMARK    6  A    between atoms: C_19  and  C_20
REMARK                            x       y       z     vdW  Elec       q    Type
REMARK                         _______ _______ _______ _____ _____    ______ ____
ROOT
ATOM      1  C   UNL     1       2.995   7.572  18.210  0.00  0.00    +0.000 A 
ATOM      2  C   UNL     1       2.733   8.669  17.380  0.00  0.00    +0.000 A 
ATOM      3  C   UNL     1       1.816   9.650  17.771  0.00  0.00    +0.000 A 
ATOM      4  C   UNL     1       1.163   9.570  19.010  0.00  0.00    +0.000 A 
ATOM      5  C   UNL     1       1.407   8.460  19.827  0.00  0.00    +0.000 A 
ATOM      6  C   UNL     1       2.316   7.471  19.432  0.00  0.00    +0.000 A 
ENDROOT
BRANCH   4   7
ATOM      7  C   UNL     1       0.263  10.642  19.413  0.00  0.00    +0.000 A 
ATOM      8  N   UNL     1      -0.859  10.566  20.099  0.00  0.00    +0.000 NA
ATOM      9  C   UNL     1      -1.311  11.875  20.168  0.00  0.00    +0.000 A 
ATOM     10  C   UNL     1      -0.459  12.675  19.439  0.00  0.00    +0.000 A 
ATOM     11  O   UNL     1       0.567  11.906  18.979  0.00  0.00    +0.000 OA
BRANCH   9  12
ATOM     12  C   UNL     1      -2.527  12.319  20.840  0.00  0.00    +0.000 C 
ATOM     13  O   UNL     1      -3.565  12.484  20.200  0.00  0.00    +0.000 OA
ATOM     14  N   UNL     1      -2.475  12.541  22.222  0.00  0.00    +0.000 N 
ATOM     15  C   UNL     1      -3.717  12.729  22.963  0.00  0.00    +0.000 C 
ATOM     16  C   UNL     1      -3.770  14.110  23.609  0.00  0.00    +0.000 C 
ATOM     17  C   UNL     1      -2.525  14.370  24.455  0.00  0.00    +0.000 C 
ATOM     18  C   UNL     1      -1.257  14.140  23.639  0.00  0.00    +0.000 C 
ATOM     19  C   UNL     1      -1.249  12.754  22.996  0.00  0.00    +0.000 C 
ENDBRANCH   9  12
ENDBRANCH   4   7
BRANCH   1  20
ATOM     20  C   UNL     1       4.033   6.551  17.819  0.00  0.00    +0.000 C 
BRANCH  20  23
ATOM     21  O   UNL     1       4.622   4.299  16.281  0.00  0.00    +0.000 OA
ATOM     22  C   UNL     1       3.927   4.162  17.283  0.00  0.00    +0.000 C 
ATOM     23  N   UNL     1       3.572   5.212  18.104  0.00  0.00    +0.000 N 
ATOM     24  H   UNL     1       3.394   4.982  19.075  0.00  0.00    +0.000 HD
BRANCH  22  25
ATOM     25  C   UNL     1       3.313   2.829  17.677  0.00  0.00    +0.000 C 
BRANCH  25  26
ATOM     26  C   UNL     1       2.651   2.755  19.032  0.00  0.00    +0.000 A 
ATOM     27  C   UNL     1       1.272   3.018  19.130  0.00  0.00    +0.000 A 
ATOM     28  C   UNL     1       0.626   3.017  20.369  0.00  0.00    +0.000 A 
ATOM     29  C   UNL     1       1.347   2.759  21.533  0.00  0.00    +0.000 A 
ATOM     30  C   UNL     1       2.718   2.524  21.454  0.00  0.00    +0.000 A 
ATOM     31  C   UNL     1       3.360   2.538  20.215  0.00  0.00    +0.000 A 
ATOM     32  F   UNL     1       4.688   2.368  20.192  0.00  0.00    +0.000 F 
ENDBRANCH  25  26
ENDBRANCH  22  25
ENDBRANCH  20  23
ENDBRANCH   1  20
TORSDOF 6
ENDMDL
MODEL 7
REMARK VINA RESULT:      -8.3      3.231     10.242
REMARK  Name = 
REMARK  6 active torsions:
REMARK  status: ('A' for Active; 'I' for Inactive)
REMARK    1  A    between atoms: C_2  and  C_3
REMARK    2  A    between atoms: C_3  and  C_4
REMARK    3  A    between atoms: N_11  and  C_12
REMARK    4  A    between atoms: C_12  and  C_13
REMARK    5  A    between atoms: C_16  and  C_17
REMARK    6  A    between atoms: C_19  and  C_20
REMARK                            x       y       z     vdW  Elec       q    Type
REMARK                         _______ _______ _______ _____ _____    ______ ____
ROOT
ATOM      1  C   UNL     1       2.819   7.788  18.274  0.00  0.00    +0.000 A 
ATOM      2  C   UNL     1       2.353   8.914  17.582  0.00  0.00    +0.000 A 
ATOM      3  C   UNL     1       1.409   9.764  18.167  0.00  0.00    +0.000 A 
ATOM      4  C   UNL     1       0.930   9.522  19.463  0.00  0.00    +0.000 A 
ATOM      5  C   UNL     1       1.378   8.383  20.143  0.00  0.00    +0.000 A 
ATOM      6  C   UNL     1       2.315   7.525  19.554  0.00  0.00    +0.000 A 
ENDROOT
BRANCH   4   7
ATOM      7  C   UNL     1      -0.005  10.462  20.065  0.00  0.00    +0.000 A 
ATOM      8  N   UNL     1      -0.085  10.862  21.318  0.00  0.00    +0.000 NA
ATOM      9  C   UNL     1      -1.165  11.730  21.335  0.00  0.00    +0.000 A 
ATOM     10  C   UNL     1      -1.737  11.748  20.083  0.00  0.00    +0.000 A 
ATOM     11  O   UNL     1      -0.988  10.968  19.254  0.00  0.00    +0.000 OA
BRANCH   9  12
ATOM     12  C   UNL     1      -1.659  12.449  22.505  0.00  0.00    +0.000 C 
ATOM     13  O   UNL     1      -2.558  11.969  23.195  0.00  0.00    +0.000 OA
ATOM     14  N   UNL     1      -1.076  13.683  22.816  0.00  0.00    +0.000 N 
ATOM     15  C   UNL     1      -1.355  14.301  24.108  0.00  0.00    +0.000 C 
ATOM     16  C   UNL     1      -2.058  15.645  23.937  0.00  0.00    +0.000 C 
ATOM     17  C   UNL     1      -1.276  16.559  22.994  0.00  0.00    +0.000 C 
ATOM     18  C   UNL     1      -0.994  15.858  21.669  0.00  0.00    +0.000 C 
ATOM     19  C   UNL     1      -0.306  14.511  21.883  0.00  0.00    +0.000 C 
ENDBRANCH   9  12
ENDBRANCH   4   7
BRANCH   1  20
ATOM     20  C   UNL     1       3.888   6.913  17.671  0.00  0.00    +0.000 C 
BRANCH  20  23
ATOM     21  O   UNL     1       4.484   4.624  16.191  0.00  0.00    +0.000 OA
ATOM     22  C   UNL     1       4.110   4.492  17.353  0.00  0.00    +0.000 C 
ATOM     23  N   UNL     1       3.783   5.559  18.164  0.00  0.00    +0.000 N 
ATOM     24  H   UNL     1       3.910   5.420  19.161  0.00  0.00    +0.000 HD
BRANCH  22  25
ATOM     25  C   UNL     1       3.888   3.132  17.992  0.00  0.00    +0.000 C 
BRANCH  25  26
ATOM     26  C   UNL     1       2.951   3.078  19.174  0.00  0.00    +0.000 A 
ATOM     27  C   UNL     1       3.466   2.720  20.434  0.00  0.00    +0.000 A 
ATOM     28  C   UNL     1       2.629   2.602  21.547  0.00  0.00    +0.000 A 
ATOM     29  C   UNL     1       1.262   2.834  21.420  0.00  0.00    +0.000 A 
ATOM     30  C   UNL     1       0.734   3.163  20.174  0.00  0.00    +0.000 A 
ATOM     31  C   UNL     1       1.572   3.268  19.064  0.00  0.00    +0.000 A 
ATOM     32  F   UNL     1       1.014   3.526  17.875  0.00  0.00    +0.000 F 
ENDBRANCH  25  26
ENDBRANCH  22  25
ENDBRANCH  20  23
ENDBRANCH   1  20
TORSDOF 6
ENDMDL
MODEL 8
REMARK VINA RESULT:      -8.3      3.564     10.678
REMARK  Name = 
REMARK  6 active torsions:
REMARK  status: ('A' for Active; 'I' for Inactive)
REMARK    1  A    between atoms: C_2  and  C_3
REMARK    2  A    between atoms: C_3  and  C_4
REMARK    3  A    between atoms: N_11  and  C_12
REMARK    4  A    between atoms: C_12  and  C_13
REMARK    5  A    between atoms: C_16  and  C_17
REMARK    6  A    between atoms: C_19  and  C_20
REMARK                            x       y       z     vdW  Elec       q    Type
REMARK                         _______ _______ _______ _____ _____    ______ ____
ROOT
ATOM      1  C   UNL     1       2.238   6.358  19.627  0.00  0.00    +0.000 A 
ATOM      2  C   UNL     1       2.363   7.322  18.619  0.00  0.00    +0.000 A 
ATOM      3  C   UNL     1       1.895   8.624  18.821  0.00  0.00    +0.000 A 
ATOM      4  C   UNL     1       1.316   8.997  20.042  0.00  0.00    +0.000 A 
ATOM      5  C   UNL     1       1.168   8.026  21.040  0.00  0.00    +0.000 A 
ATOM      6  C   UNL     1       1.626   6.719  20.835  0.00  0.00    +0.000 A 
ENDROOT
BRANCH   4   7
ATOM      7  C   UNL     1       0.896  10.377  20.242  0.00  0.00    +0.000 A 
ATOM      8  N   UNL     1       0.691  11.025  21.370  0.00  0.00    +0.000 NA
ATOM      9  C   UNL     1       0.283  12.289  20.974  0.00  0.00    +0.000 A 
ATOM     10  C   UNL     1       0.188  12.311  19.600  0.00  0.00    +0.000 A 
ATOM     11  O   UNL     1       0.608  11.109  19.118  0.00  0.00    +0.000 OA
BRANCH   9  12
ATOM     12  C   UNL     1      -0.061  13.390  21.868  0.00  0.00    +0.000 C 
ATOM     13  O   UNL     1       0.818  14.137  22.298  0.00  0.00    +0.000 OA
ATOM     14  N   UNL     1      -1.407  13.570  22.208  0.00  0.00    +0.000 N 
ATOM     15  C   UNL     1      -1.818  14.799  22.878  0.00  0.00    +0.000 C 
ATOM     16  C   UNL     1      -2.396  14.507  24.260  0.00  0.00    +0.000 C 
ATOM     17  C   UNL     1      -3.513  13.468  24.180  0.00  0.00    +0.000 C 
ATOM     18  C   UNL     1      -3.038  12.214  23.454  0.00  0.00    +0.000 C 
ATOM     19  C   UNL     1      -2.451  12.549  22.084  0.00  0.00    +0.000 C 
ENDBRANCH   9  12
ENDBRANCH   4   7
BRANCH   1  20
ATOM     20  C   UNL     1       2.804   4.975  19.433  0.00  0.00    +0.000 C 
BRANCH  20  23
ATOM     21  O   UNL     1       4.972   3.226  19.600  0.00  0.00    +0.000 OA
ATOM     22  C   UNL     1       4.980   4.092  18.729  0.00  0.00    +0.000 C 
ATOM     23  N   UNL     1       3.963   5.009  18.569  0.00  0.00    +0.000 N 
ATOM     24  H   UNL     1       3.829   5.372  17.632  0.00  0.00    +0.000 HD
BRANCH  22  25
ATOM     25  C   UNL     1       6.157   4.296  17.790  0.00  0.00    +0.000 C 
BRANCH  25  26
ATOM     26  C   UNL     1       6.857   5.632  17.853  0.00  0.00    +0.000 A 
ATOM     27  C   UNL     1       7.792   5.861  18.879  0.00  0.00    +0.000 A 
ATOM     28  C   UNL     1       8.425   7.101  19.012  0.00  0.00    +0.000 A 
ATOM     29  C   UNL     1       8.129   8.135  18.127  0.00  0.00    +0.000 A 
ATOM     30  C   UNL     1       7.185   7.931  17.123  0.00  0.00    +0.000 A 
ATOM     31  C   UNL     1       6.549   6.695  17.002  0.00  0.00    +0.000 A 
ATOM     32  F   UNL     1       5.604   6.563  16.063  0.00  0.00    +0.000 F 
ENDBRANCH  25  26
ENDBRANCH  22  25
ENDBRANCH  20  23
ENDBRANCH   1  20
TORSDOF 6
ENDMDL
MODEL 9
REMARK VINA RESULT:      -8.3      7.810     11.345
REMARK  Name = 
REMARK  6 active torsions:
REMARK  status: ('A' for Active; 'I' for Inactive)
REMARK    1  A    between atoms: C_2  and  C_3
REMARK    2  A    between atoms: C_3  and  C_4
REMARK    3  A    between atoms: N_11  and  C_12
REMARK    4  A    between atoms: C_12  and  C_13
REMARK    5  A    between atoms: C_16  and  C_17
REMARK    6  A    between atoms: C_19  and  C_20
REMARK                            x       y       z     vdW  Elec       q    Type
REMARK                         _______ _______ _______ _____ _____    ______ ____
ROOT
ATOM      1  C   UNL     1       7.490   6.224  17.632  0.00  0.00    +0.000 A 
ATOM      2  C   UNL     1       7.272   7.374  16.862  0.00  0.00    +0.000 A 
ATOM      3  C   UNL     1       7.737   8.618  17.299  0.00  0.00    +0.000 A 
ATOM      4  C   UNL     1       8.452   8.737  18.500  0.00  0.00    +0.000 A 
ATOM      5  C   UNL     1       8.648   7.591  19.281  0.00  0.00    +0.000 A 
ATOM      6  C   UNL     1       8.173   6.346  18.850  0.00  0.00    +0.000 A 
ENDROOT
BRANCH   4   7
ATOM      7  C   UNL     1       8.976  10.037  18.893  0.00  0.00    +0.000 A 
ATOM      8  N   UNL     1       9.438  11.008  18.131  0.00  0.00    +0.000 NA
ATOM      9  C   UNL     1       9.826  11.994  19.025  0.00  0.00    +0.000 A 
ATOM     10  C   UNL     1       9.646  11.523  20.306  0.00  0.00    +0.000 A 
ATOM     11  O   UNL     1       9.074  10.289  20.237  0.00  0.00    +0.000 OA
BRANCH   9  12
ATOM     12  C   UNL     1      10.400  13.287  18.667  0.00  0.00    +0.000 C 
ATOM     13  O   UNL     1      11.606  13.489  18.802  0.00  0.00    +0.000 OA
ATOM     14  N   UNL     1       9.544  14.274  18.165  0.00  0.00    +0.000 N 
ATOM     15  C   UNL     1      10.111  15.472  17.558  0.00  0.00    +0.000 C 
ATOM     16  C   UNL     1       9.707  16.726  18.329  0.00  0.00    +0.000 C 
ATOM     17  C   UNL     1       8.190  16.803  18.497  0.00  0.00    +0.000 C 
ATOM     18  C   UNL     1       7.647  15.519  19.116  0.00  0.00    +0.000 C 
ATOM     19  C   UNL     1       8.087  14.287  18.326  0.00  0.00    +0.000 C 
ENDBRANCH   9  12
ENDBRANCH   4   7
BRANCH   1  20
ATOM     20  C   UNL     1       7.049   4.875  17.128  0.00  0.00    +0.000 C 
BRANCH  20  23
ATOM     21  O   UNL     1       4.456   5.345  18.043  0.00  0.00    +0.000 OA
ATOM     22  C   UNL     1       5.101   4.431  18.548  0.00  0.00    +0.000 C 
ATOM     23  N   UNL     1       6.393   4.123  18.173  0.00  0.00    +0.000 N 
ATOM     24  H   UNL     1       6.678   3.158  18.297  0.00  0.00    +0.000 HD
BRANCH  22  25
ATOM     25  C   UNL     1       4.572   3.596  19.702  0.00  0.00    +0.000 C 
BRANCH  25  26
ATOM     26  C   UNL     1       3.101   3.262  19.684  0.00  0.00    +0.000 A 
ATOM     27  C   UNL     1       2.622   2.351  18.725  0.00  0.00    +0.000 A 
ATOM     28  C   UNL     1       1.259   2.052  18.633  0.00  0.00    +0.000 A 
ATOM     29  C   UNL     1       0.351   2.663  19.494  0.00  0.00    +0.000 A 
ATOM     30  C   UNL     1       0.807   3.588  20.431  0.00  0.00    +0.000 A 
ATOM     31  C   UNL     1       2.166   3.890  20.510  0.00  0.00    +0.000 A 
ATOM     32  F   UNL     1       2.553   4.830  21.383  0.00  0.00    +0.000 F 
ENDBRANCH  25  26
ENDBRANCH  22  25
ENDBRANCH  20  23
ENDBRANCH   1  20
TORSDOF 6
ENDMDL
