MODEL 1
REMARK VINA RESULT:      -8.0      0.000      0.000
REMARK  Name = 
REMARK  4 active torsions:
REMARK  status: ('A' for Active; 'I' for Inactive)
REMARK    1  A    between atoms: C_1  and  C_2
REMARK    2  A    between atoms: C_5  and  C_6
REMARK    3  A    between atoms: C_7  and  C_8
REMARK    4  A    between atoms: C_10  and  N_11
REMARK                            x       y       z     vdW  Elec       q    Type
REMARK                         _______ _______ _______ _____ _____    ______ ____
ROOT
ATOM      1  C   UNL     1       3.439   5.814  19.362  0.00  0.00    +0.000 C 
ATOM      2  C   UNL     1       2.736   7.150  19.139  0.00  0.00    +0.000 C 
ATOM      3  C   UNL     1       2.885   7.859  17.997  0.00  0.00    +0.000 C 
ATOM      4  O   UNL     1       3.753   7.437  16.990  0.00  0.00    +0.000 OA
ATOM      5  C   UNL     1       4.489   6.285  17.158  0.00  0.00    +0.000 A 
ATOM      6  N   UNL     1       5.323   5.966  16.130  0.00  0.00    +0.000 N 
ATOM      7  C   UNL     1       6.069   4.824  16.091  0.00  0.00    +0.000 A 
ATOM      8  O   UNL     1       6.804   4.555  15.148  0.00  0.00    +0.000 OA
ATOM      9  N   UNL     1       5.958   4.013  17.185  0.00  0.00    +0.000 N 
ATOM     10  C   UNL     1       5.284   4.336  18.330  0.00  0.00    +0.000 A 
ATOM     11  O   UNL     1       5.429   3.710  19.373  0.00  0.00    +0.000 OA
ATOM     12  C   UNL     1       4.398   5.514  18.245  0.00  0.00    +0.000 A 
ATOM     13  H   UNL     1       5.372   6.574  15.321  0.00  0.00    +0.000 HD
ATOM     14  H   UNL     1       6.559   3.203  17.211  0.00  0.00    +0.000 HD
ENDROOT
BRANCH   1  19
ATOM     15  C   UNL     1       1.390   2.369  22.048  0.00  0.00    +0.000 C 
ATOM     16  C   UNL     1       1.525   3.136  20.797  0.00  0.00    +0.000 A 
ATOM     17  C   UNL     1       0.964   3.030  19.542  0.00  0.00    +0.000 A 
ATOM     18  C   UNL     1       1.554   4.047  18.753  0.00  0.00    +0.000 A 
ATOM     19  C   UNL     1       2.445   4.705  19.574  0.00  0.00    +0.000 A 
ATOM     20  O   UNL     1       2.405   4.170  20.829  0.00  0.00    +0.000 OA
ENDBRANCH   1  19
BRANCH   3  21
ATOM     21  N   UNL     1       2.233   9.026  17.687  0.00  0.00    +0.000 N 
ATOM     22  H   UNL     1       2.062   9.215  16.701  0.00  0.00    +0.000 HD
ATOM     23  H   UNL     1       1.447   9.233  18.296  0.00  0.00    +0.000 HD
ENDBRANCH   3  21
BRANCH   2  24
ATOM     24  C   UNL     1       1.856   7.606  20.168  0.00  0.00    +0.000 C 
ATOM     25  N   UNL     1       1.169   7.984  21.020  0.00  0.00    +0.000 NA
ENDBRANCH   2  24
TORSDOF 3
ENDMDL
MODEL 2
REMARK VINA RESULT:      -7.9      0.638      1.143
REMARK  Name = 
REMARK  4 active torsions:
REMARK  status: ('A' for Active; 'I' for Inactive)
REMARK    1  A    between atoms: C_1  and  C_2
REMARK    2  A    between atoms: C_5  and  C_6
REMARK    3  A    between atoms: C_7  and  C_8
REMARK    4  A    between atoms: C_10  and  N_11
REMARK                            x       y       z     vdW  Elec       q    Type
REMARK                         _______ _______ _______ _____ _____    ______ ____
ROOT
ATOM      1  C   UNL     1       3.555   5.869  19.586  0.00  0.00    +0.000 C 
ATOM      2  C   UNL     1       2.724   7.111  19.273  0.00  0.00    +0.000 C 
ATOM      3  C   UNL     1       2.723   7.684  18.048  0.00  0.00    +0.000 C 
ATOM      4  O   UNL     1       3.543   7.209  17.024  0.00  0.00    +0.000 OA
ATOM      5  C   UNL     1       4.386   6.147  17.259  0.00  0.00    +0.000 A 
ATOM      6  N   UNL     1       5.163   5.768  16.206  0.00  0.00    +0.000 N 
ATOM      7  C   UNL     1       5.999   4.691  16.235  0.00  0.00    +0.000 A 
ATOM      8  O   UNL     1       6.678   4.365  15.268  0.00  0.00    +0.000 OA
ATOM      9  N   UNL     1       6.043   4.013  17.421  0.00  0.00    +0.000 N 
ATOM     10  C   UNL     1       5.434   4.421  18.575  0.00  0.00    +0.000 A 
ATOM     11  O   UNL     1       5.713   3.941  19.667  0.00  0.00    +0.000 OA
ATOM     12  C   UNL     1       4.447   5.509  18.432  0.00  0.00    +0.000 A 
ATOM     13  H   UNL     1       5.096   6.275  15.331  0.00  0.00    +0.000 HD
ATOM     14  H   UNL     1       6.711   3.261  17.487  0.00  0.00    +0.000 HD
ENDROOT
BRANCH   1  19
ATOM     15  C   UNL     1       0.558   2.205  18.648  0.00  0.00    +0.000 C 
ATOM     16  C   UNL     1       1.312   3.065  19.579  0.00  0.00    +0.000 A 
ATOM     17  C   UNL     1       1.361   3.180  20.952  0.00  0.00    +0.000 A 
ATOM     18  C   UNL     1       2.250   4.246  21.232  0.00  0.00    +0.000 A 
ATOM     19  C   UNL     1       2.679   4.722  20.011  0.00  0.00    +0.000 A 
ATOM     20  O   UNL     1       2.132   3.983  19.003  0.00  0.00    +0.000 OA
ENDBRANCH   1  19
BRANCH   3  21
ATOM     21  N   UNL     1       1.950   8.752  17.663  0.00  0.00    +0.000 N 
ATOM     22  H   UNL     1       2.414   9.500  17.152  0.00  0.00    +0.000 HD
ATOM     23  H   UNL     1       1.042   8.489  17.290  0.00  0.00    +0.000 HD
ENDBRANCH   3  21
BRANCH   2  24
ATOM     24  C   UNL     1       1.891   7.621  20.314  0.00  0.00    +0.000 C 
ATOM     25  N   UNL     1       1.225   8.064  21.152  0.00  0.00    +0.000 NA
ENDBRANCH   2  24
TORSDOF 3
ENDMDL
MODEL 3
REMARK VINA RESULT:      -7.4      2.144      4.726
REMARK  Name = 
REMARK  4 active torsions:
REMARK  status: ('A' for Active; 'I' for Inactive)
REMARK    1  A    between atoms: C_1  and  C_2
REMARK    2  A    between atoms: C_5  and  C_6
REMARK    3  A    between atoms: C_7  and  C_8
REMARK    4  A    between atoms: C_10  and  N_11
REMARK                            x       y       z     vdW  Elec       q    Type
REMARK                         _______ _______ _______ _____ _____    ______ ____
ROOT
ATOM      1  C   UNL     1       2.678   6.002  18.292  0.00  0.00    +0.000 C 
ATOM      2  C   UNL     1       2.236   7.348  18.863  0.00  0.00    +0.000 C 
ATOM      3  C   UNL     1       1.835   7.486  20.147  0.00  0.00    +0.000 C 
ATOM      4  O   UNL     1       1.737   6.386  20.999  0.00  0.00    +0.000 OA
ATOM      5  C   UNL     1       2.034   5.127  20.528  0.00  0.00    +0.000 A 
ATOM      6  N   UNL     1       1.888   4.114  21.427  0.00  0.00    +0.000 N 
ATOM      7  C   UNL     1       2.210   2.815  21.159  0.00  0.00    +0.000 A 
ATOM      8  O   UNL     1       2.079   1.925  21.991  0.00  0.00    +0.000 OA
ATOM      9  N   UNL     1       2.666   2.573  19.894  0.00  0.00    +0.000 N 
ATOM     10  C   UNL     1       2.681   3.491  18.881  0.00  0.00    +0.000 A 
ATOM     11  O   UNL     1       2.841   3.171  17.710  0.00  0.00    +0.000 OA
ATOM     12  C   UNL     1       2.449   4.894  19.280  0.00  0.00    +0.000 A 
ATOM     13  H   UNL     1       1.567   4.323  22.365  0.00  0.00    +0.000 HD
ATOM     14  H   UNL     1       2.836   1.609  19.651  0.00  0.00    +0.000 HD
ENDROOT
BRANCH   1  19
ATOM     15  C   UNL     1       7.443   5.806  19.028  0.00  0.00    +0.000 C 
ATOM     16  C   UNL     1       6.266   5.975  18.157  0.00  0.00    +0.000 A 
ATOM     17  C   UNL     1       6.095   6.320  16.832  0.00  0.00    +0.000 A 
ATOM     18  C   UNL     1       4.697   6.367  16.609  0.00  0.00    +0.000 A 
ATOM     19  C   UNL     1       4.103   6.057  17.814  0.00  0.00    +0.000 A 
ATOM     20  O   UNL     1       5.059   5.788  18.750  0.00  0.00    +0.000 OA
ENDBRANCH   1  19
BRANCH   3  21
ATOM     21  N   UNL     1       1.496   8.668  20.758  0.00  0.00    +0.000 N 
ATOM     22  H   UNL     1       0.877   9.294  20.247  0.00  0.00    +0.000 HD
ATOM     23  H   UNL     1       1.275   8.572  21.745  0.00  0.00    +0.000 HD
ENDBRANCH   3  21
BRANCH   2  24
ATOM     24  C   UNL     1       2.315   8.482  18.000  0.00  0.00    +0.000 C 
ATOM     25  N   UNL     1       2.354   9.416  17.315  0.00  0.00    +0.000 NA
ENDBRANCH   2  24
TORSDOF 3
ENDMDL
MODEL 4
REMARK VINA RESULT:      -7.0      1.996      4.938
REMARK  Name = 
REMARK  4 active torsions:
REMARK  status: ('A' for Active; 'I' for Inactive)
REMARK    1  A    between atoms: C_1  and  C_2
REMARK    2  A    between atoms: C_5  and  C_6
REMARK    3  A    between atoms: C_7  and  C_8
REMARK    4  A    between atoms: C_10  and  N_11
REMARK                            x       y       z     vdW  Elec       q    Type
REMARK                         _______ _______ _______ _____ _____    ______ ____
ROOT
ATOM      1  C   UNL     1       2.725   5.799  18.300  0.00  0.00    +0.000 C 
ATOM      2  C   UNL     1       2.310   7.174  18.817  0.00  0.00    +0.000 C 
ATOM      3  C   UNL     1       1.886   7.366  20.088  0.00  0.00    +0.000 C 
ATOM      4  O   UNL     1       1.739   6.298  20.972  0.00  0.00    +0.000 OA
ATOM      5  C   UNL     1       2.011   5.016  20.549  0.00  0.00    +0.000 A 
ATOM      6  N   UNL     1       1.817   4.038  21.477  0.00  0.00    +0.000 N 
ATOM      7  C   UNL     1       2.108   2.723  21.258  0.00  0.00    +0.000 A 
ATOM      8  O   UNL     1       1.935   1.864  22.116  0.00  0.00    +0.000 OA
ATOM      9  N   UNL     1       2.584   2.427  20.012  0.00  0.00    +0.000 N 
ATOM     10  C   UNL     1       2.646   3.310  18.970  0.00  0.00    +0.000 A 
ATOM     11  O   UNL     1       2.821   2.946  17.814  0.00  0.00    +0.000 OA
ATOM     12  C   UNL     1       2.445   4.731  19.318  0.00  0.00    +0.000 A 
ATOM     13  H   UNL     1       1.483   4.287  22.401  0.00  0.00    +0.000 HD
ATOM     14  H   UNL     1       2.732   1.450  19.804  0.00  0.00    +0.000 HD
ENDROOT
BRANCH   1  19
ATOM     15  C   UNL     1       6.161   5.182  14.969  0.00  0.00    +0.000 C 
ATOM     16  C   UNL     1       5.717   5.508  16.336  0.00  0.00    +0.000 A 
ATOM     17  C   UNL     1       6.373   5.757  17.523  0.00  0.00    +0.000 A 
ATOM     18  C   UNL     1       5.367   5.951  18.502  0.00  0.00    +0.000 A 
ATOM     19  C   UNL     1       4.161   5.798  17.852  0.00  0.00    +0.000 A 
ATOM     20  O   UNL     1       4.373   5.559  16.525  0.00  0.00    +0.000 OA
ENDBRANCH   1  19
BRANCH   3  21
ATOM     21  N   UNL     1       1.568   8.576  20.652  0.00  0.00    +0.000 N 
ATOM     22  H   UNL     1       1.370   9.347  20.017  0.00  0.00    +0.000 HD
ATOM     23  H   UNL     1       0.932   8.508  21.441  0.00  0.00    +0.000 HD
ENDBRANCH   3  21
BRANCH   2  24
ATOM     24  C   UNL     1       2.438   8.277  17.920  0.00  0.00    +0.000 C 
ATOM     25  N   UNL     1       2.511   9.177  17.194  0.00  0.00    +0.000 NA
ENDBRANCH   2  24
TORSDOF 3
ENDMDL
MODEL 5
REMARK VINA RESULT:      -6.6      1.848      2.056
REMARK  Name = 
REMARK  4 active torsions:
REMARK  status: ('A' for Active; 'I' for Inactive)
REMARK    1  A    between atoms: C_1  and  C_2
REMARK    2  A    between atoms: C_5  and  C_6
REMARK    3  A    between atoms: C_7  and  C_8
REMARK    4  A    between atoms: C_10  and  N_11
REMARK                            x       y       z     vdW  Elec       q    Type
REMARK                         _______ _______ _______ _____ _____    ______ ____
ROOT
ATOM      1  C   UNL     1       4.763   5.292  18.783  0.00  0.00    +0.000 C 
ATOM      2  C   UNL     1       3.557   6.227  18.734  0.00  0.00    +0.000 C 
ATOM      3  C   UNL     1       3.258   6.957  17.636  0.00  0.00    +0.000 C 
ATOM      4  O   UNL     1       4.082   6.945  16.510  0.00  0.00    +0.000 OA
ATOM      5  C   UNL     1       5.235   6.193  16.514  0.00  0.00    +0.000 A 
ATOM      6  N   UNL     1       5.985   6.262  15.379  0.00  0.00    +0.000 N 
ATOM      7  C   UNL     1       7.116   5.526  15.177  0.00  0.00    +0.000 A 
ATOM      8  O   UNL     1       7.767   5.599  14.141  0.00  0.00    +0.000 OA
ATOM      9  N   UNL     1       7.486   4.721  16.217  0.00  0.00    +0.000 N 
ATOM     10  C   UNL     1       6.895   4.717  17.450  0.00  0.00    +0.000 A 
ATOM     11  O   UNL     1       7.415   4.187  18.424  0.00  0.00    +0.000 OA
ATOM     12  C   UNL     1       5.607   5.432  17.548  0.00  0.00    +0.000 A 
ATOM     13  H   UNL     1       5.678   6.852  14.615  0.00  0.00    +0.000 HD
ATOM     14  H   UNL     1       8.361   4.227  16.119  0.00  0.00    +0.000 HD
ENDROOT
BRANCH   1  19
ATOM     15  C   UNL     1       5.107   1.063  21.082  0.00  0.00    +0.000 C 
ATOM     16  C   UNL     1       4.505   1.949  20.068  0.00  0.00    +0.000 A 
ATOM     17  C   UNL     1       3.581   1.765  19.062  0.00  0.00    +0.000 A 
ATOM     18  C   UNL     1       3.468   3.008  18.392  0.00  0.00    +0.000 A 
ATOM     19  C   UNL     1       4.338   3.869  19.026  0.00  0.00    +0.000 A 
ATOM     20  O   UNL     1       4.948   3.233  20.068  0.00  0.00    +0.000 OA
ENDBRANCH   1  19
BRANCH   3  21
ATOM     21  N   UNL     1       2.155   7.760  17.483  0.00  0.00    +0.000 N 
ATOM     22  H   UNL     1       2.161   8.654  17.969  0.00  0.00    +0.000 HD
ATOM     23  H   UNL     1       1.806   7.802  16.530  0.00  0.00    +0.000 HD
ENDBRANCH   3  21
BRANCH   2  24
ATOM     24  C   UNL     1       2.711   6.264  19.884  0.00  0.00    +0.000 C 
ATOM     25  N   UNL     1       2.000   6.285  20.799  0.00  0.00    +0.000 NA
ENDBRANCH   2  24
TORSDOF 3
ENDMDL
MODEL 6
REMARK VINA RESULT:      -6.6      2.255      4.947
REMARK  Name = 
REMARK  4 active torsions:
REMARK  status: ('A' for Active; 'I' for Inactive)
REMARK    1  A    between atoms: C_1  and  C_2
REMARK    2  A    between atoms: C_5  and  C_6
REMARK    3  A    between atoms: C_7  and  C_8
REMARK    4  A    between atoms: C_10  and  N_11
REMARK                            x       y       z     vdW  Elec       q    Type
REMARK                         _______ _______ _______ _____ _____    ______ ____
ROOT
ATOM      1  C   UNL     1       3.709   5.944  18.600  0.00  0.00    +0.000 C 
ATOM      2  C   UNL     1       4.727   5.780  17.475  0.00  0.00    +0.000 C 
ATOM      3  C   UNL     1       4.683   4.739  16.612  0.00  0.00    +0.000 C 
ATOM      4  O   UNL     1       3.741   3.719  16.754  0.00  0.00    +0.000 OA
ATOM      5  C   UNL     1       2.846   3.754  17.799  0.00  0.00    +0.000 A 
ATOM      6  N   UNL     1       1.981   2.704  17.867  0.00  0.00    +0.000 N 
ATOM      7  C   UNL     1       0.979   2.612  18.788  0.00  0.00    +0.000 A 
ATOM      8  O   UNL     1       0.206   1.661  18.819  0.00  0.00    +0.000 OA
ATOM      9  N   UNL     1       0.910   3.639  19.686  0.00  0.00    +0.000 N 
ATOM     10  C   UNL     1       1.836   4.639  19.800  0.00  0.00    +0.000 A 
ATOM     11  O   UNL     1       1.884   5.378  20.776  0.00  0.00    +0.000 OA
ATOM     12  C   UNL     1       2.806   4.747  18.693  0.00  0.00    +0.000 A 
ATOM     13  H   UNL     1       2.040   1.965  17.177  0.00  0.00    +0.000 HD
ATOM     14  H   UNL     1       0.226   3.552  20.423  0.00  0.00    +0.000 HD
ENDROOT
BRANCH   1  19
ATOM     15  C   UNL     1       0.891   9.458  20.331  0.00  0.00    +0.000 C 
ATOM     16  C   UNL     1       1.653   8.817  19.244  0.00  0.00    +0.000 A 
ATOM     17  C   UNL     1       1.794   9.066  17.895  0.00  0.00    +0.000 A 
ATOM     18  C   UNL     1       2.630   8.043  17.386  0.00  0.00    +0.000 A 
ATOM     19  C   UNL     1       2.940   7.229  18.454  0.00  0.00    +0.000 A 
ATOM     20  O   UNL     1       2.370   7.718  19.594  0.00  0.00    +0.000 OA
ENDBRANCH   1  19
BRANCH   3  21
ATOM     21  N   UNL     1       5.510   4.557  15.531  0.00  0.00    +0.000 N 
ATOM     22  H   UNL     1       6.314   5.177  15.453  0.00  0.00    +0.000 HD
ATOM     23  H   UNL     1       5.708   3.583  15.324  0.00  0.00    +0.000 HD
ENDBRANCH   3  21
BRANCH   2  24
ATOM     24  C   UNL     1       5.708   6.806  17.325  0.00  0.00    +0.000 C 
ATOM     25  N   UNL     1       6.517   7.623  17.179  0.00  0.00    +0.000 NA
ENDBRANCH   2  24
TORSDOF 3
ENDMDL
MODEL 7
REMARK VINA RESULT:      -6.5      2.137      4.943
REMARK  Name = 
REMARK  4 active torsions:
REMARK  status: ('A' for Active; 'I' for Inactive)
REMARK    1  A    between atoms: C_1  and  C_2
REMARK    2  A    between atoms: C_5  and  C_6
REMARK    3  A    between atoms: C_7  and  C_8
REMARK    4  A    between atoms: C_10  and  N_11
REMARK                            x       y       z     vdW  Elec       q    Type
REMARK                         _______ _______ _______ _____ _____    ______ ____
ROOT
ATOM      1  C   UNL     1       4.158   4.873  17.776  0.00  0.00    +0.000 C 
ATOM      2  C   UNL     1       3.747   6.312  17.473  0.00  0.00    +0.000 C 
ATOM      3  C   UNL     1       2.945   7.019  18.301  0.00  0.00    +0.000 C 
ATOM      4  O   UNL     1       2.391   6.440  19.443  0.00  0.00    +0.000 OA
ATOM      5  C   UNL     1       2.646   5.119  19.734  0.00  0.00    +0.000 A 
ATOM      6  N   UNL     1       2.045   4.638  20.857  0.00  0.00    +0.000 N 
ATOM      7  C   UNL     1       2.245   3.377  21.339  0.00  0.00    +0.000 A 
ATOM      8  O   UNL     1       1.700   2.973  22.360  0.00  0.00    +0.000 OA
ATOM      9  N   UNL     1       3.077   2.590  20.594  0.00  0.00    +0.000 N 
ATOM     10  C   UNL     1       3.584   2.929  19.370  0.00  0.00    +0.000 A 
ATOM     11  O   UNL     1       4.097   2.105  18.623  0.00  0.00    +0.000 OA
ATOM     12  C   UNL     1       3.436   4.346  18.982  0.00  0.00    +0.000 A 
ATOM     13  H   UNL     1       1.449   5.248  21.403  0.00  0.00    +0.000 HD
ATOM     14  H   UNL     1       3.178   1.630  20.890  0.00  0.00    +0.000 HD
ENDROOT
BRANCH   1  19
ATOM     15  C   UNL     1       8.333   5.707  20.048  0.00  0.00    +0.000 C 
ATOM     16  C   UNL     1       7.545   5.140  18.938  0.00  0.00    +0.000 A 
ATOM     17  C   UNL     1       7.871   4.515  17.752  0.00  0.00    +0.000 A 
ATOM     18  C   UNL     1       6.647   4.257  17.088  0.00  0.00    +0.000 A 
ATOM     19  C   UNL     1       5.652   4.751  17.905  0.00  0.00    +0.000 A 
ATOM     20  O   UNL     1       6.197   5.261  19.047  0.00  0.00    +0.000 OA
ENDBRANCH   1  19
BRANCH   3  21
ATOM     21  N   UNL     1       2.590   8.336  18.143  0.00  0.00    +0.000 N 
ATOM     22  H   UNL     1       1.602   8.538  18.008  0.00  0.00    +0.000 HD
ATOM     23  H   UNL     1       3.066   8.969  18.779  0.00  0.00    +0.000 HD
ENDBRANCH   3  21
BRANCH   2  24
ATOM     24  C   UNL     1       4.292   6.915  16.299  0.00  0.00    +0.000 C 
ATOM     25  N   UNL     1       4.758   7.384  15.348  0.00  0.00    +0.000 NA
ENDBRANCH   2  24
TORSDOF 3
ENDMDL
MODEL 8
REMARK VINA RESULT:      -6.5      2.164      4.667
REMARK  Name = 
REMARK  4 active torsions:
REMARK  status: ('A' for Active; 'I' for Inactive)
REMARK    1  A    between atoms: C_1  and  C_2
REMARK    2  A    between atoms: C_5  and  C_6
REMARK    3  A    between atoms: C_7  and  C_8
REMARK    4  A    between atoms: C_10  and  N_11
REMARK                            x       y       z     vdW  Elec       q    Type
REMARK                         _______ _______ _______ _____ _____    ______ ____
ROOT
ATOM      1  C   UNL     1       3.249   5.729  18.006  0.00  0.00    +0.000 C 
ATOM      2  C   UNL     1       2.557   6.904  18.694  0.00  0.00    +0.000 C 
ATOM      3  C   UNL     1       2.247   6.885  20.010  0.00  0.00    +0.000 C 
ATOM      4  O   UNL     1       2.481   5.755  20.794  0.00  0.00    +0.000 OA
ATOM      5  C   UNL     1       3.021   4.625  20.222  0.00  0.00    +0.000 A 
ATOM      6  N   UNL     1       3.192   3.566  21.062  0.00  0.00    +0.000 N 
ATOM      7  C   UNL     1       3.782   2.394  20.687  0.00  0.00    +0.000 A 
ATOM      8  O   UNL     1       3.934   1.461  21.467  0.00  0.00    +0.000 OA
ATOM      9  N   UNL     1       4.172   2.325  19.380  0.00  0.00    +0.000 N 
ATOM     10  C   UNL     1       3.886   3.266  18.430  0.00  0.00    +0.000 A 
ATOM     11  O   UNL     1       4.014   3.046  17.231  0.00  0.00    +0.000 OA
ATOM     12  C   UNL     1       3.370   4.554  18.934  0.00  0.00    +0.000 A 
ATOM     13  H   UNL     1       2.913   3.650  22.032  0.00  0.00    +0.000 HD
ATOM     14  H   UNL     1       4.540   1.441  19.063  0.00  0.00    +0.000 HD
ENDROOT
BRANCH   1  19
ATOM     15  C   UNL     1       7.921   6.863  18.421  0.00  0.00    +0.000 C 
ATOM     16  C   UNL     1       6.695   6.664  17.626  0.00  0.00    +0.000 A 
ATOM     17  C   UNL     1       6.362   6.881  16.306  0.00  0.00    +0.000 A 
ATOM     18  C   UNL     1       4.994   6.538  16.177  0.00  0.00    +0.000 A 
ATOM     19  C   UNL     1       4.576   6.141  17.430  0.00  0.00    +0.000 A 
ATOM     20  O   UNL     1       5.620   6.189  18.307  0.00  0.00    +0.000 OA
ENDBRANCH   1  19
BRANCH   3  21
ATOM     21  N   UNL     1       1.697   7.924  20.719  0.00  0.00    +0.000 N 
ATOM     22  H   UNL     1       1.609   7.803  21.726  0.00  0.00    +0.000 HD
ATOM     23  H   UNL     1       2.030   8.839  20.433  0.00  0.00    +0.000 HD
ENDBRANCH   3  21
BRANCH   2  24
ATOM     24  C   UNL     1       2.295   8.063  17.902  0.00  0.00    +0.000 C 
ATOM     25  N   UNL     1       2.107   9.019  17.275  0.00  0.00    +0.000 NA
ENDBRANCH   2  24
TORSDOF 3
ENDMDL
MODEL 9
REMARK VINA RESULT:      -6.3      2.609      4.273
REMARK  Name = 
REMARK  4 active torsions:
REMARK  status: ('A' for Active; 'I' for Inactive)
REMARK    1  A    between atoms: C_1  and  C_2
REMARK    2  A    between atoms: C_5  and  C_6
REMARK    3  A    between atoms: C_7  and  C_8
REMARK    4  A    between atoms: C_10  and  N_11
REMARK                            x       y       z     vdW  Elec       q    Type
REMARK                         _______ _______ _______ _____ _____    ______ ____
ROOT
ATOM      1  C   UNL     1       3.783   5.582  17.701  0.00  0.00    +0.000 C 
ATOM      2  C   UNL     1       3.050   4.333  18.184  0.00  0.00    +0.000 C 
ATOM      3  C   UNL     1       3.617   3.453  19.040  0.00  0.00    +0.000 C 
ATOM      4  O   UNL     1       4.936   3.606  19.469  0.00  0.00    +0.000 OA
ATOM      5  C   UNL     1       5.689   4.661  19.005  0.00  0.00    +0.000 A 
ATOM      6  N   UNL     1       6.971   4.714  19.463  0.00  0.00    +0.000 N 
ATOM      7  C   UNL     1       7.835   5.728  19.170  0.00  0.00    +0.000 A 
ATOM      8  O   UNL     1       8.980   5.757  19.606  0.00  0.00    +0.000 OA
ATOM      9  N   UNL     1       7.343   6.697  18.341  0.00  0.00    +0.000 N 
ATOM     10  C   UNL     1       6.137   6.636  17.700  0.00  0.00    +0.000 A 
ATOM     11  O   UNL     1       5.852   7.381  16.770  0.00  0.00    +0.000 OA
ATOM     12  C   UNL     1       5.211   5.586  18.169  0.00  0.00    +0.000 A 
ATOM     13  H   UNL     1       7.304   3.994  20.093  0.00  0.00    +0.000 HD
ATOM     14  H   UNL     1       7.990   7.414  18.050  0.00  0.00    +0.000 HD
ENDROOT
BRANCH   1  19
ATOM     15  C   UNL     1       1.354   8.283  20.878  0.00  0.00    +0.000 C 
ATOM     16  C   UNL     1       1.938   8.050  19.544  0.00  0.00    +0.000 A 
ATOM     17  C   UNL     1       1.901   8.736  18.348  0.00  0.00    +0.000 A 
ATOM     18  C   UNL     1       2.624   7.952  17.416  0.00  0.00    +0.000 A 
ATOM     19  C   UNL     1       3.048   6.833  18.099  0.00  0.00    +0.000 A 
ATOM     20  O   UNL     1       2.656   6.906  19.404  0.00  0.00    +0.000 OA
ENDBRANCH   1  19
BRANCH   3  21
ATOM     21  N   UNL     1       3.003   2.351  19.580  0.00  0.00    +0.000 N 
ATOM     22  H   UNL     1       3.089   1.474  19.070  0.00  0.00    +0.000 HD
ATOM     23  H   UNL     1       3.122   2.265  20.585  0.00  0.00    +0.000 HD
ENDBRANCH   3  21
BRANCH   2  24
ATOM     24  C   UNL     1       1.704   4.152  17.742  0.00  0.00    +0.000 C 
ATOM     25  N   UNL     1       0.620   4.021  17.355  0.00  0.00    +0.000 NA
ENDBRANCH   2  24
TORSDOF 3
ENDMDL
