MODEL 1
REMARK VINA RESULT:      -8.1      0.000      0.000
REMARK  Name = 
REMARK  4 active torsions:
REMARK  status: ('A' for Active; 'I' for Inactive)
REMARK    1  A    between atoms: C_2  and  C_13
REMARK    2  A    between atoms: N_3  and  C_4
REMARK    3  A    between atoms: C_7  and  N_8
REMARK    4  A    between atoms: C_22  and  O_23
REMARK                            x       y       z     vdW  Elec       q    Type
REMARK                         _______ _______ _______ _____ _____    ______ ____
ROOT
ATOM      1  O   UNL     1       1.808   6.140  20.760  0.00  0.00    +0.000 OA
ATOM      2  C   UNL     1       2.197   6.689  19.732  0.00  0.00    +0.000 C 
ATOM      3  N   UNL     1       1.980   8.045  19.448  0.00  0.00    +0.000 N 
ATOM      4  H   UNL     1       2.316   8.435  18.573  0.00  0.00    +0.000 HD
ENDROOT
BRANCH   2   5
ATOM      5  C   UNL     1       2.898   5.848  18.708  0.00  0.00    +0.000 A 
ATOM      6  C   UNL     1       4.060   6.274  18.064  0.00  0.00    +0.000 A 
ATOM      7  C   UNL     1       4.604   5.526  16.966  0.00  0.00    +0.000 A 
ATOM      8  C   UNL     1       5.433   6.089  15.996  0.00  0.00    +0.000 A 
ATOM      9  C   UNL     1       5.770   5.388  14.821  0.00  0.00    +0.000 A 
ATOM     10  C   UNL     1       6.361   4.181  15.071  0.00  0.00    +0.000 A 
ATOM     11  C   UNL     1       5.337   3.568  15.781  0.00  0.00    +0.000 A 
ATOM     12  C   UNL     1       4.310   4.203  16.730  0.00  0.00    +0.000 A 
ATOM     13  C   UNL     1       3.099   3.760  17.443  0.00  0.00    +0.000 A 
ATOM     14  C   UNL     1       2.403   4.582  18.380  0.00  0.00    +0.000 A 
BRANCH  14  15
ATOM     15  O   UNL     1       1.226   4.199  18.977  0.00  0.00    +0.000 OA
ATOM     16  H   UNL     1       0.811   4.880  19.523  0.00  0.00    +0.000 HD
ENDBRANCH  14  15
ENDBRANCH   2   5
BRANCH   3  17
ATOM     17  C   UNL     1       1.283   8.906  20.341  0.00  0.00    +0.000 A 
ATOM     18  C   UNL     1       1.277   8.704  21.729  0.00  0.00    +0.000 A 
ATOM     19  C   UNL     1       0.451   9.491  22.563  0.00  0.00    +0.000 A 
ATOM     20  C   UNL     1      -0.296  10.543  22.005  0.00  0.00    +0.000 A 
ATOM     21  C   UNL     1      -0.278  10.765  20.633  0.00  0.00    +0.000 A 
ATOM     22  C   UNL     1       0.512   9.954  19.822  0.00  0.00    +0.000 A 
BRANCH  20  23
ATOM     23  N   UNL     1      -1.039  11.485  22.854  0.00  0.00    +0.000 N 
ATOM     24  O   UNL     1      -2.095  11.089  23.366  0.00  0.00    +0.000 OA
ATOM     25  O   UNL     1      -0.558  12.617  23.033  0.00  0.00    +0.000 OA
ENDBRANCH  20  23
ENDBRANCH   3  17
TORSDOF 4
ENDMDL
MODEL 2
REMARK VINA RESULT:      -7.9      1.184      1.505
REMARK  Name = 
REMARK  4 active torsions:
REMARK  status: ('A' for Active; 'I' for Inactive)
REMARK    1  A    between atoms: C_2  and  C_13
REMARK    2  A    between atoms: N_3  and  C_4
REMARK    3  A    between atoms: C_7  and  N_8
REMARK    4  A    between atoms: C_22  and  O_23
REMARK                            x       y       z     vdW  Elec       q    Type
REMARK                         _______ _______ _______ _____ _____    ______ ____
ROOT
ATOM      1  O   UNL     1       1.479   8.707  18.168  0.00  0.00    +0.000 OA
ATOM      2  C   UNL     1       2.025   7.948  18.965  0.00  0.00    +0.000 C 
ATOM      3  N   UNL     1       1.863   8.037  20.355  0.00  0.00    +0.000 N 
ATOM      4  H   UNL     1       2.354   7.386  20.960  0.00  0.00    +0.000 HD
ENDROOT
BRANCH   2   5
ATOM      5  C   UNL     1       2.950   6.901  18.419  0.00  0.00    +0.000 A 
ATOM      6  C   UNL     1       3.913   7.192  17.452  0.00  0.00    +0.000 A 
ATOM      7  C   UNL     1       4.659   6.138  16.824  0.00  0.00    +0.000 A 
ATOM      8  C   UNL     1       5.261   6.271  15.573  0.00  0.00    +0.000 A 
ATOM      9  C   UNL     1       5.796   5.158  14.893  0.00  0.00    +0.000 A 
ATOM     10  C   UNL     1       6.739   4.491  15.622  0.00  0.00    +0.000 A 
ATOM     11  C   UNL     1       5.967   4.124  16.716  0.00  0.00    +0.000 A 
ATOM     12  C   UNL     1       4.798   4.880  17.364  0.00  0.00    +0.000 A 
ATOM     13  C   UNL     1       3.793   4.602  18.406  0.00  0.00    +0.000 A 
ATOM     14  C   UNL     1       2.879   5.587  18.889  0.00  0.00    +0.000 A 
BRANCH  14  15
ATOM     15  O   UNL     1       1.888   5.301  19.796  0.00  0.00    +0.000 OA
ATOM     16  H   UNL     1       2.146   4.683  20.493  0.00  0.00    +0.000 HD
ENDBRANCH  14  15
ENDBRANCH   2   5
BRANCH   3  17
ATOM     17  C   UNL     1       1.043   9.029  20.962  0.00  0.00    +0.000 A 
ATOM     18  C   UNL     1       1.099  10.381  20.592  0.00  0.00    +0.000 A 
ATOM     19  C   UNL     1       0.379  11.353  21.322  0.00  0.00    +0.000 A 
ATOM     20  C   UNL     1      -0.472  10.947  22.366  0.00  0.00    +0.000 A 
ATOM     21  C   UNL     1      -0.551   9.605  22.723  0.00  0.00    +0.000 A 
ATOM     22  C   UNL     1       0.196   8.666  22.017  0.00  0.00    +0.000 A 
BRANCH  20  23
ATOM     23  N   UNL     1      -1.360  11.902  23.042  0.00  0.00    +0.000 N 
ATOM     24  O   UNL     1      -2.498  11.516  23.344  0.00  0.00    +0.000 OA
ATOM     25  O   UNL     1      -0.917  13.035  23.298  0.00  0.00    +0.000 OA
ENDBRANCH  20  23
ENDBRANCH   3  17
TORSDOF 4
ENDMDL
MODEL 3
REMARK VINA RESULT:      -7.8      2.131      2.305
REMARK  Name = 
REMARK  4 active torsions:
REMARK  status: ('A' for Active; 'I' for Inactive)
REMARK    1  A    between atoms: C_2  and  C_13
REMARK    2  A    between atoms: N_3  and  C_4
REMARK    3  A    between atoms: C_7  and  N_8
REMARK    4  A    between atoms: C_22  and  O_23
REMARK                            x       y       z     vdW  Elec       q    Type
REMARK                         _______ _______ _______ _____ _____    ______ ____
ROOT
ATOM      1  O   UNL     1       2.046   7.876  19.870  0.00  0.00    +0.000 OA
ATOM      2  C   UNL     1       2.273   7.890  18.663  0.00  0.00    +0.000 C 
ATOM      3  N   UNL     1       1.777   8.871  17.792  0.00  0.00    +0.000 N 
ATOM      4  H   UNL     1       1.992   8.818  16.802  0.00  0.00    +0.000 HD
ENDROOT
BRANCH   2   5
ATOM      5  C   UNL     1       3.087   6.770  18.088  0.00  0.00    +0.000 A 
ATOM      6  C   UNL     1       4.133   6.993  17.191  0.00  0.00    +0.000 A 
ATOM      7  C   UNL     1       4.773   5.895  16.526  0.00  0.00    +0.000 A 
ATOM      8  C   UNL     1       5.457   6.028  15.318  0.00  0.00    +0.000 A 
ATOM      9  C   UNL     1       5.883   4.902  14.586  0.00  0.00    +0.000 A 
ATOM     10  C   UNL     1       6.691   4.071  15.309  0.00  0.00    +0.000 A 
ATOM     11  C   UNL     1       5.817   3.738  16.336  0.00  0.00    +0.000 A 
ATOM     12  C   UNL     1       4.719   4.596  16.980  0.00  0.00    +0.000 A 
ATOM     13  C   UNL     1       3.629   4.385  17.949  0.00  0.00    +0.000 A 
ATOM     14  C   UNL     1       2.823   5.448  18.457  0.00  0.00    +0.000 A 
BRANCH  14  15
ATOM     15  O   UNL     1       1.753   5.235  19.293  0.00  0.00    +0.000 OA
ATOM     16  H   UNL     1       1.125   4.570  18.982  0.00  0.00    +0.000 HD
ENDBRANCH  14  15
ENDBRANCH   2   5
BRANCH   3  17
ATOM     17  C   UNL     1       0.958   9.943  18.244  0.00  0.00    +0.000 A 
ATOM     18  C   UNL     1       1.492  11.118  18.794  0.00  0.00    +0.000 A 
ATOM     19  C   UNL     1       0.643  12.090  19.368  0.00  0.00    +0.000 A 
ATOM     20  C   UNL     1      -0.751  11.920  19.300  0.00  0.00    +0.000 A 
ATOM     21  C   UNL     1      -1.289  10.770  18.736  0.00  0.00    +0.000 A 
ATOM     22  C   UNL     1      -0.435   9.804  18.210  0.00  0.00    +0.000 A 
BRANCH  20  23
ATOM     23  N   UNL     1      -1.671  12.980  19.737  0.00  0.00    +0.000 N 
ATOM     24  O   UNL     1      -1.208  14.118  19.887  0.00  0.00    +0.000 OA
ATOM     25  O   UNL     1      -2.867  12.684  19.906  0.00  0.00    +0.000 OA
ENDBRANCH  20  23
ENDBRANCH   3  17
TORSDOF 4
ENDMDL
MODEL 4
REMARK VINA RESULT:      -7.7      3.048      8.741
REMARK  Name = 
REMARK  4 active torsions:
REMARK  status: ('A' for Active; 'I' for Inactive)
REMARK    1  A    between atoms: C_2  and  C_13
REMARK    2  A    between atoms: N_3  and  C_4
REMARK    3  A    between atoms: C_7  and  N_8
REMARK    4  A    between atoms: C_22  and  O_23
REMARK                            x       y       z     vdW  Elec       q    Type
REMARK                         _______ _______ _______ _____ _____    ______ ____
ROOT
ATOM      1  O   UNL     1       2.181   9.267  17.181  0.00  0.00    +0.000 OA
ATOM      2  C   UNL     1       1.846   8.835  18.281  0.00  0.00    +0.000 C 
ATOM      3  N   UNL     1       2.316   7.627  18.815  0.00  0.00    +0.000 N 
ATOM      4  H   UNL     1       1.989   7.320  19.726  0.00  0.00    +0.000 HD
ENDROOT
BRANCH   2   5
ATOM      5  C   UNL     1       0.844   9.624  19.070  0.00  0.00    +0.000 A 
ATOM      6  C   UNL     1       1.013   9.896  20.428  0.00  0.00    +0.000 A 
ATOM      7  C   UNL     1      -0.043  10.498  21.191  0.00  0.00    +0.000 A 
ATOM      8  C   UNL     1      -0.151  10.372  22.575  0.00  0.00    +0.000 A 
ATOM      9  C   UNL     1      -1.309  10.786  23.263  0.00  0.00    +0.000 A 
ATOM     10  C   UNL     1      -1.617  12.099  23.046  0.00  0.00    +0.000 A 
ATOM     11  C   UNL     1      -1.798  12.068  21.669  0.00  0.00    +0.000 A 
ATOM     12  C   UNL     1      -1.084  11.199  20.625  0.00  0.00    +0.000 A 
ATOM     13  C   UNL     1      -1.228  10.925  19.184  0.00  0.00    +0.000 A 
ATOM     14  C   UNL     1      -0.300  10.131  18.446  0.00  0.00    +0.000 A 
BRANCH  14  15
ATOM     15  O   UNL     1      -0.485   9.806  17.124  0.00  0.00    +0.000 OA
ATOM     16  H   UNL     1      -0.519  10.563  16.524  0.00  0.00    +0.000 HD
ENDBRANCH  14  15
ENDBRANCH   2   5
BRANCH   3  17
ATOM     17  C   UNL     1       3.231   6.792  18.116  0.00  0.00    +0.000 A 
ATOM     18  C   UNL     1       2.983   5.431  17.885  0.00  0.00    +0.000 A 
ATOM     19  C   UNL     1       3.982   4.607  17.321  0.00  0.00    +0.000 A 
ATOM     20  C   UNL     1       5.197   5.177  16.903  0.00  0.00    +0.000 A 
ATOM     21  C   UNL     1       5.443   6.530  17.108  0.00  0.00    +0.000 A 
ATOM     22  C   UNL     1       4.461   7.319  17.701  0.00  0.00    +0.000 A 
BRANCH  20  23
ATOM     23  N   UNL     1       6.197   4.391  16.167  0.00  0.00    +0.000 N 
ATOM     24  O   UNL     1       5.791   3.648  15.262  0.00  0.00    +0.000 OA
ATOM     25  O   UNL     1       7.394   4.531  16.471  0.00  0.00    +0.000 OA
ENDBRANCH  20  23
ENDBRANCH   3  17
TORSDOF 4
ENDMDL
MODEL 5
REMARK VINA RESULT:      -7.7      2.158      2.311
REMARK  Name = 
REMARK  4 active torsions:
REMARK  status: ('A' for Active; 'I' for Inactive)
REMARK    1  A    between atoms: C_2  and  C_13
REMARK    2  A    between atoms: N_3  and  C_4
REMARK    3  A    between atoms: C_7  and  N_8
REMARK    4  A    between atoms: C_22  and  O_23
REMARK                            x       y       z     vdW  Elec       q    Type
REMARK                         _______ _______ _______ _____ _____    ______ ____
ROOT
ATOM      1  O   UNL     1       1.979   7.825  19.940  0.00  0.00    +0.000 OA
ATOM      2  C   UNL     1       2.213   7.863  18.734  0.00  0.00    +0.000 C 
ATOM      3  N   UNL     1       1.720   8.860  17.880  0.00  0.00    +0.000 N 
ATOM      4  H   UNL     1       1.940   8.826  16.890  0.00  0.00    +0.000 HD
ENDROOT
BRANCH   2   5
ATOM      5  C   UNL     1       3.031   6.754  18.142  0.00  0.00    +0.000 A 
ATOM      6  C   UNL     1       4.075   6.996  17.248  0.00  0.00    +0.000 A 
ATOM      7  C   UNL     1       4.720   5.910  16.567  0.00  0.00    +0.000 A 
ATOM      8  C   UNL     1       5.402   6.064  15.360  0.00  0.00    +0.000 A 
ATOM      9  C   UNL     1       5.833   4.951  14.612  0.00  0.00    +0.000 A 
ATOM     10  C   UNL     1       6.645   4.113  15.322  0.00  0.00    +0.000 A 
ATOM     11  C   UNL     1       5.774   3.761  16.344  0.00  0.00    +0.000 A 
ATOM     12  C   UNL     1       4.672   4.605  17.002  0.00  0.00    +0.000 A 
ATOM     13  C   UNL     1       3.585   4.375  17.969  0.00  0.00    +0.000 A 
ATOM     14  C   UNL     1       2.773   5.426  18.493  0.00  0.00    +0.000 A 
BRANCH  14  15
ATOM     15  O   UNL     1       1.705   5.197  19.327  0.00  0.00    +0.000 OA
ATOM     16  H   UNL     1       1.876   5.383  20.260  0.00  0.00    +0.000 HD
ENDBRANCH  14  15
ENDBRANCH   2   5
BRANCH   3  17
ATOM     17  C   UNL     1       0.897   9.922  18.348  0.00  0.00    +0.000 A 
ATOM     18  C   UNL     1      -0.501   9.893  18.243  0.00  0.00    +0.000 A 
ATOM     19  C   UNL     1      -1.268  11.030  18.581  0.00  0.00    +0.000 A 
ATOM     20  C   UNL     1      -0.630  12.163  19.114  0.00  0.00    +0.000 A 
ATOM     21  C   UNL     1       0.754  12.192  19.243  0.00  0.00    +0.000 A 
ATOM     22  C   UNL     1       1.497  11.076  18.868  0.00  0.00    +0.000 A 
BRANCH  20  23
ATOM     23  N   UNL     1      -1.402  13.303  19.629  0.00  0.00    +0.000 N 
ATOM     24  O   UNL     1      -2.539  13.077  20.065  0.00  0.00    +0.000 OA
ATOM     25  O   UNL     1      -0.866  14.425  19.623  0.00  0.00    +0.000 OA
ENDBRANCH  20  23
ENDBRANCH   3  17
TORSDOF 4
ENDMDL
MODEL 6
REMARK VINA RESULT:      -7.7      1.074      1.090
REMARK  Name = 
REMARK  4 active torsions:
REMARK  status: ('A' for Active; 'I' for Inactive)
REMARK    1  A    between atoms: C_2  and  C_13
REMARK    2  A    between atoms: N_3  and  C_4
REMARK    3  A    between atoms: C_7  and  N_8
REMARK    4  A    between atoms: C_22  and  O_23
REMARK                            x       y       z     vdW  Elec       q    Type
REMARK                         _______ _______ _______ _____ _____    ______ ____
ROOT
ATOM      1  O   UNL     1       1.611   8.718  18.209  0.00  0.00    +0.000 OA
ATOM      2  C   UNL     1       2.094   7.867  18.951  0.00  0.00    +0.000 C 
ATOM      3  N   UNL     1       1.925   7.866  20.343  0.00  0.00    +0.000 N 
ATOM      4  H   UNL     1       2.363   7.140  20.901  0.00  0.00    +0.000 HD
ENDROOT
BRANCH   2   5
ATOM      5  C   UNL     1       2.949   6.800  18.334  0.00  0.00    +0.000 A 
ATOM      6  C   UNL     1       3.975   7.096  17.436  0.00  0.00    +0.000 A 
ATOM      7  C   UNL     1       4.655   6.047  16.731  0.00  0.00    +0.000 A 
ATOM      8  C   UNL     1       5.321   6.247  15.522  0.00  0.00    +0.000 A 
ATOM      9  C   UNL     1       5.787   5.163  14.752  0.00  0.00    +0.000 A 
ATOM     10  C   UNL     1       6.637   4.346  15.442  0.00  0.00    +0.000 A 
ATOM     11  C   UNL     1       5.788   3.944  16.465  0.00  0.00    +0.000 A 
ATOM     12  C   UNL     1       4.661   4.734  17.145  0.00  0.00    +0.000 A 
ATOM     13  C   UNL     1       3.591   4.447  18.117  0.00  0.00    +0.000 A 
ATOM     14  C   UNL     1       2.745   5.458  18.665  0.00  0.00    +0.000 A 
BRANCH  14  15
ATOM     15  O   UNL     1       1.693   5.174  19.503  0.00  0.00    +0.000 OA
ATOM     16  H   UNL     1       1.826   4.401  20.068  0.00  0.00    +0.000 HD
ENDBRANCH  14  15
ENDBRANCH   2   5
BRANCH   3  17
ATOM     17  C   UNL     1       1.170   8.866  21.017  0.00  0.00    +0.000 A 
ATOM     18  C   UNL     1       0.692   8.695  22.325  0.00  0.00    +0.000 A 
ATOM     19  C   UNL     1      -0.179   9.647  22.899  0.00  0.00    +0.000 A 
ATOM     20  C   UNL     1      -0.491  10.819  22.188  0.00  0.00    +0.000 A 
ATOM     21  C   UNL     1      -0.002  11.008  20.900  0.00  0.00    +0.000 A 
ATOM     22  C   UNL     1       0.824  10.040  20.335  0.00  0.00    +0.000 A 
BRANCH  20  23
ATOM     23  N   UNL     1      -1.258  11.908  22.809  0.00  0.00    +0.000 N 
ATOM     24  O   UNL     1      -2.327  11.615  23.363  0.00  0.00    +0.000 OA
ATOM     25  O   UNL     1      -0.784  13.056  22.769  0.00  0.00    +0.000 OA
ENDBRANCH  20  23
ENDBRANCH   3  17
TORSDOF 4
ENDMDL
MODEL 7
REMARK VINA RESULT:      -7.7      3.256      8.648
REMARK  Name = 
REMARK  4 active torsions:
REMARK  status: ('A' for Active; 'I' for Inactive)
REMARK    1  A    between atoms: C_2  and  C_13
REMARK    2  A    between atoms: N_3  and  C_4
REMARK    3  A    between atoms: C_7  and  N_8
REMARK    4  A    between atoms: C_22  and  O_23
REMARK                            x       y       z     vdW  Elec       q    Type
REMARK                         _______ _______ _______ _____ _____    ______ ____
ROOT
ATOM      1  O   UNL     1       2.165   7.919  18.642  0.00  0.00    +0.000 OA
ATOM      2  C   UNL     1       1.704   7.980  19.779  0.00  0.00    +0.000 C 
ATOM      3  N   UNL     1       1.796   6.936  20.711  0.00  0.00    +0.000 N 
ATOM      4  H   UNL     1       1.382   7.046  21.631  0.00  0.00    +0.000 HD
ENDROOT
BRANCH   2   5
ATOM      5  C   UNL     1       0.962   9.223  20.171  0.00  0.00    +0.000 A 
ATOM      6  C   UNL     1       0.640   9.511  21.498  0.00  0.00    +0.000 A 
ATOM      7  C   UNL     1      -0.220  10.614  21.819  0.00  0.00    +0.000 A 
ATOM      8  C   UNL     1      -0.955  10.689  23.002  0.00  0.00    +0.000 A 
ATOM      9  C   UNL     1      -1.950  11.669  23.188  0.00  0.00    +0.000 A 
ATOM     10  C   UNL     1      -1.479  12.943  23.035  0.00  0.00    +0.000 A 
ATOM     11  C   UNL     1      -1.045  12.869  21.717  0.00  0.00    +0.000 A 
ATOM     12  C   UNL     1      -0.454  11.668  20.965  0.00  0.00    +0.000 A 
ATOM     13  C   UNL     1      -0.078  11.359  19.574  0.00  0.00    +0.000 A 
ATOM     14  C   UNL     1       0.583  10.151  19.197  0.00  0.00    +0.000 A 
BRANCH  14  15
ATOM     15  O   UNL     1       0.853   9.828  17.889  0.00  0.00    +0.000 OA
ATOM     16  H   UNL     1       1.773   9.588  17.715  0.00  0.00    +0.000 HD
ENDBRANCH  14  15
ENDBRANCH   2   5
BRANCH   3  17
ATOM     17  C   UNL     1       2.441   5.704  20.408  0.00  0.00    +0.000 A 
ATOM     18  C   UNL     1       3.650   5.641  19.701  0.00  0.00    +0.000 A 
ATOM     19  C   UNL     1       4.176   4.395  19.291  0.00  0.00    +0.000 A 
ATOM     20  C   UNL     1       3.530   3.209  19.679  0.00  0.00    +0.000 A 
ATOM     21  C   UNL     1       2.342   3.261  20.401  0.00  0.00    +0.000 A 
ATOM     22  C   UNL     1       1.818   4.500  20.762  0.00  0.00    +0.000 A 
BRANCH  20  23
ATOM     23  N   UNL     1       4.128   1.892  19.416  0.00  0.00    +0.000 N 
ATOM     24  O   UNL     1       5.040   1.514  20.164  0.00  0.00    +0.000 OA
ATOM     25  O   UNL     1       3.671   1.219  18.476  0.00  0.00    +0.000 OA
ENDBRANCH  20  23
ENDBRANCH   3  17
TORSDOF 4
ENDMDL
MODEL 8
REMARK VINA RESULT:      -7.7      3.347      8.615
REMARK  Name = 
REMARK  4 active torsions:
REMARK  status: ('A' for Active; 'I' for Inactive)
REMARK    1  A    between atoms: C_2  and  C_13
REMARK    2  A    between atoms: N_3  and  C_4
REMARK    3  A    between atoms: C_7  and  N_8
REMARK    4  A    between atoms: C_22  and  O_23
REMARK                            x       y       z     vdW  Elec       q    Type
REMARK                         _______ _______ _______ _____ _____    ______ ____
ROOT
ATOM      1  O   UNL     1       2.163   7.890  18.649  0.00  0.00    +0.000 OA
ATOM      2  C   UNL     1       1.682   7.959  19.777  0.00  0.00    +0.000 C 
ATOM      3  N   UNL     1       1.671   6.888  20.683  0.00  0.00    +0.000 N 
ATOM      4  H   UNL     1       1.245   7.007  21.596  0.00  0.00    +0.000 HD
ENDROOT
BRANCH   2   5
ATOM      5  C   UNL     1       1.029   9.246  20.185  0.00  0.00    +0.000 A 
ATOM      6  C   UNL     1       0.639   9.498  21.501  0.00  0.00    +0.000 A 
ATOM      7  C   UNL     1      -0.139  10.661  21.823  0.00  0.00    +0.000 A 
ATOM      8  C   UNL     1      -0.948  10.747  22.956  0.00  0.00    +0.000 A 
ATOM      9  C   UNL     1      -1.860  11.807  23.128  0.00  0.00    +0.000 A 
ATOM     10  C   UNL     1      -1.265  13.036  23.077  0.00  0.00    +0.000 A 
ATOM     11  C   UNL     1      -0.746  12.986  21.790  0.00  0.00    +0.000 A 
ATOM     12  C   UNL     1      -0.213  11.772  21.015  0.00  0.00    +0.000 A 
ATOM     13  C   UNL     1       0.234  11.496  19.638  0.00  0.00    +0.000 A 
ATOM     14  C   UNL     1       0.808  10.252  19.240  0.00  0.00    +0.000 A 
BRANCH  14  15
ATOM     15  O   UNL     1       1.142   9.969  17.938  0.00  0.00    +0.000 OA
ATOM     16  H   UNL     1       1.643  10.663  17.490  0.00  0.00    +0.000 HD
ENDBRANCH  14  15
ENDBRANCH   2   5
BRANCH   3  17
ATOM     17  C   UNL     1       2.225   5.617  20.362  0.00  0.00    +0.000 A 
ATOM     18  C   UNL     1       1.571   4.414  20.664  0.00  0.00    +0.000 A 
ATOM     19  C   UNL     1       2.222   3.176  20.466  0.00  0.00    +0.000 A 
ATOM     20  C   UNL     1       3.497   3.150  19.875  0.00  0.00    +0.000 A 
ATOM     21  C   UNL     1       4.143   4.338  19.551  0.00  0.00    +0.000 A 
ATOM     22  C   UNL     1       3.501   5.550  19.790  0.00  0.00    +0.000 A 
BRANCH  20  23
ATOM     23  N   UNL     1       4.141   1.882  19.502  0.00  0.00    +0.000 N 
ATOM     24  O   UNL     1       3.707   1.288  18.506  0.00  0.00    +0.000 OA
ATOM     25  O   UNL     1       5.100   1.488  20.188  0.00  0.00    +0.000 OA
ENDBRANCH  20  23
ENDBRANCH   3  17
TORSDOF 4
ENDMDL
MODEL 9
REMARK VINA RESULT:      -7.6      0.304      1.214
REMARK  Name = 
REMARK  4 active torsions:
REMARK  status: ('A' for Active; 'I' for Inactive)
REMARK    1  A    between atoms: C_2  and  C_13
REMARK    2  A    between atoms: N_3  and  C_4
REMARK    3  A    between atoms: C_7  and  N_8
REMARK    4  A    between atoms: C_22  and  O_23
REMARK                            x       y       z     vdW  Elec       q    Type
REMARK                         _______ _______ _______ _____ _____    ______ ____
ROOT
ATOM      1  O   UNL     1       1.842   6.398  20.711  0.00  0.00    +0.000 OA
ATOM      2  C   UNL     1       2.174   6.874  19.627  0.00  0.00    +0.000 C 
ATOM      3  N   UNL     1       1.851   8.176  19.221  0.00  0.00    +0.000 N 
ATOM      4  H   UNL     1       2.145   8.504  18.306  0.00  0.00    +0.000 HD
ENDROOT
BRANCH   2   5
ATOM      5  C   UNL     1       2.924   5.993  18.674  0.00  0.00    +0.000 A 
ATOM      6  C   UNL     1       4.036   6.444  17.961  0.00  0.00    +0.000 A 
ATOM      7  C   UNL     1       4.621   5.636  16.930  0.00  0.00    +0.000 A 
ATOM      8  C   UNL     1       5.383   6.163  15.888  0.00  0.00    +0.000 A 
ATOM      9  C   UNL     1       5.757   5.376  14.780  0.00  0.00    +0.000 A 
ATOM     10  C   UNL     1       6.449   4.253  15.132  0.00  0.00    +0.000 A 
ATOM     11  C   UNL     1       5.491   3.633  15.925  0.00  0.00    +0.000 A 
ATOM     12  C   UNL     1       4.432   4.276  16.832  0.00  0.00    +0.000 A 
ATOM     13  C   UNL     1       3.274   3.812  17.616  0.00  0.00    +0.000 A 
ATOM     14  C   UNL     1       2.530   4.665  18.485  0.00  0.00    +0.000 A 
BRANCH  14  15
ATOM     15  O   UNL     1       1.398   4.250  19.146  0.00  0.00    +0.000 OA
ATOM     16  H   UNL     1       1.514   3.454  19.682  0.00  0.00    +0.000 HD
ENDBRANCH  14  15
ENDBRANCH   2   5
BRANCH   3  17
ATOM     17  C   UNL     1       1.102   9.064  20.042  0.00  0.00    +0.000 A 
ATOM     18  C   UNL     1       0.660  10.316  19.589  0.00  0.00    +0.000 A 
ATOM     19  C   UNL     1       0.052  11.227  20.482  0.00  0.00    +0.000 A 
ATOM     20  C   UNL     1      -0.195  10.836  21.809  0.00  0.00    +0.000 A 
ATOM     21  C   UNL     1       0.218   9.587  22.260  0.00  0.00    +0.000 A 
ATOM     22  C   UNL     1       0.851   8.718  21.376  0.00  0.00    +0.000 A 
BRANCH  20  23
ATOM     23  N   UNL     1      -0.969  11.687  22.725  0.00  0.00    +0.000 N 
ATOM     24  O   UNL     1      -0.681  12.891  22.771  0.00  0.00    +0.000 OA
ATOM     25  O   UNL     1      -1.883  11.161  23.382  0.00  0.00    +0.000 OA
ENDBRANCH  20  23
ENDBRANCH   3  17
TORSDOF 4
ENDMDL
