MODEL 1
REMARK VINA RESULT:      -7.2      0.000      0.000
REMARK  Name = 
REMARK  13 active torsions:
REMARK  status: ('A' for Active; 'I' for Inactive)
REMARK    1  A    between atoms: C_1  and  O_2
REMARK    2  A    between atoms: O_2  and  C_3
REMARK    3  A    between atoms: C_7  and  C_8
REMARK    4  A    between atoms: C_8  and  C_9
REMARK    5  A    between atoms: C_9  and  C_10
REMARK    6  A    between atoms: C_9  and  N_11
REMARK    7  A    between atoms: N_11  and  C_12
REMARK    8  A    between atoms: C_12  and  C_13
REMARK    9  A    between atoms: C_13  and  C_14
REMARK   10  A    between atoms: C_17  and  O_18
REMARK   11  A    between atoms: O_18  and  C_19
REMARK   12  A    between atoms: C_20  and  O_21
REMARK   13  A    between atoms: O_21  and  C_22
REMARK                            x       y       z     vdW  Elec       q    Type
REMARK                         _______ _______ _______ _____ _____    ______ ____
ROOT
ATOM      1  N   UNL     1       7.930   7.521  17.086  0.00  0.00    +0.000 NA
ATOM      2  H   UNL     1       7.812   7.636  16.078  0.00  0.00    +0.000 HD
ENDROOT
BRANCH   1   3
ATOM      3  C   UNL     1       6.893   6.604  17.594  0.00  0.00    +0.000 C 
ATOM      4  C   UNL     1       7.606   5.357  18.129  0.00  0.00    +0.000 C 
BRANCH   3   5
ATOM      5  C   UNL     1       5.820   6.255  16.531  0.00  0.00    +0.000 C 
BRANCH   5  10
ATOM      6  C   UNL     1       2.829   4.073  17.446  0.00  0.00    +0.000 A 
ATOM      7  C   UNL     1       2.016   5.003  18.096  0.00  0.00    +0.000 A 
ATOM      8  C   UNL     1       2.451   6.319  18.285  0.00  0.00    +0.000 A 
ATOM      9  C   UNL     1       3.693   6.719  17.801  0.00  0.00    +0.000 A 
ATOM     10  C   UNL     1       4.506   5.806  17.125  0.00  0.00    +0.000 A 
ATOM     11  C   UNL     1       4.084   4.472  16.987  0.00  0.00    +0.000 A 
BRANCH   6  13
ATOM     12  C   UNL     1       1.596   2.296  18.437  0.00  0.00    +0.000 C 
ATOM     13  O   UNL     1       2.282   2.828  17.309  0.00  0.00    +0.000 OA
ENDBRANCH   6  13
ENDBRANCH   5  10
ENDBRANCH   3   5
ENDBRANCH   1   3
BRANCH   1  14
ATOM     14  C   UNL     1       7.926   8.847  17.713  0.00  0.00    +0.000 C 
BRANCH  14  15
ATOM     15  C   UNL     1       8.796   8.942  18.976  0.00  0.00    +0.000 C 
BRANCH  15  16
ATOM     16  C   UNL     1       9.316  10.344  19.153  0.00  0.00    +0.000 A 
ATOM     17  C   UNL     1       9.389  10.917  20.421  0.00  0.00    +0.000 A 
ATOM     18  C   UNL     1       9.790  12.244  20.557  0.00  0.00    +0.000 A 
ATOM     19  C   UNL     1      10.129  13.011  19.434  0.00  0.00    +0.000 A 
ATOM     20  C   UNL     1      10.056  12.445  18.150  0.00  0.00    +0.000 A 
ATOM     21  C   UNL     1       9.654  11.108  18.027  0.00  0.00    +0.000 A 
BRANCH  19  22
ATOM     22  O   UNL     1      10.444  14.307  19.753  0.00  0.00    +0.000 OA
ATOM     23  C   UNL     1       9.361  15.222  19.842  0.00  0.00    +0.000 C 
ENDBRANCH  19  22
BRANCH  20  24
ATOM     24  O   UNL     1      10.340  13.237  17.068  0.00  0.00    +0.000 OA
ATOM     25  C   UNL     1      11.693  13.317  16.641  0.00  0.00    +0.000 C 
ENDBRANCH  20  24
ENDBRANCH  15  16
ENDBRANCH  14  15
ENDBRANCH   1  14
TORSDOF 9
ENDMDL
MODEL 2
REMARK VINA RESULT:      -7.1      4.446      7.235
REMARK  Name = 
REMARK  13 active torsions:
REMARK  status: ('A' for Active; 'I' for Inactive)
REMARK    1  A    between atoms: C_1  and  O_2
REMARK    2  A    between atoms: O_2  and  C_3
REMARK    3  A    between atoms: C_7  and  C_8
REMARK    4  A    between atoms: C_8  and  C_9
REMARK    5  A    between atoms: C_9  and  C_10
REMARK    6  A    between atoms: C_9  and  N_11
REMARK    7  A    between atoms: N_11  and  C_12
REMARK    8  A    between atoms: C_12  and  C_13
REMARK    9  A    between atoms: C_13  and  C_14
REMARK   10  A    between atoms: C_17  and  O_18
REMARK   11  A    between atoms: O_18  and  C_19
REMARK   12  A    between atoms: C_20  and  O_21
REMARK   13  A    between atoms: O_21  and  C_22
REMARK                            x       y       z     vdW  Elec       q    Type
REMARK                         _______ _______ _______ _____ _____    ______ ____
ROOT
ATOM      1  N   UNL     1       3.187   2.267  19.749  0.00  0.00    +0.000 NA
ATOM      2  H   UNL     1       2.530   1.949  19.036  0.00  0.00    +0.000 HD
ENDROOT
BRANCH   1   3
ATOM      3  C   UNL     1       2.594   3.399  20.485  0.00  0.00    +0.000 C 
ATOM      4  C   UNL     1       2.060   2.852  21.814  0.00  0.00    +0.000 C 
BRANCH   3   5
ATOM      5  C   UNL     1       1.501   4.141  19.675  0.00  0.00    +0.000 C 
BRANCH   5  10
ATOM      6  C   UNL     1       1.708   7.875  20.422  0.00  0.00    +0.000 A 
ATOM      7  C   UNL     1       2.123   8.367  19.184  0.00  0.00    +0.000 A 
ATOM      8  C   UNL     1       2.387   7.494  18.124  0.00  0.00    +0.000 A 
ATOM      9  C   UNL     1       2.209   6.124  18.289  0.00  0.00    +0.000 A 
ATOM     10  C   UNL     1       1.768   5.619  19.514  0.00  0.00    +0.000 A 
ATOM     11  C   UNL     1       1.558   6.499  20.591  0.00  0.00    +0.000 A 
BRANCH   6  13
ATOM     12  C   UNL     1       0.714   9.968  20.961  0.00  0.00    +0.000 C 
ATOM     13  O   UNL     1       1.466   8.831  21.370  0.00  0.00    +0.000 OA
ENDBRANCH   6  13
ENDBRANCH   5  10
ENDBRANCH   3   5
ENDBRANCH   1   3
BRANCH   1  14
ATOM     14  C   UNL     1       4.470   2.570  19.106  0.00  0.00    +0.000 C 
BRANCH  14  15
ATOM     15  C   UNL     1       4.865   4.053  19.166  0.00  0.00    +0.000 C 
BRANCH  15  16
ATOM     16  C   UNL     1       5.509   4.479  17.873  0.00  0.00    +0.000 A 
ATOM     17  C   UNL     1       5.394   3.689  16.731  0.00  0.00    +0.000 A 
ATOM     18  C   UNL     1       6.069   4.055  15.568  0.00  0.00    +0.000 A 
ATOM     19  C   UNL     1       6.857   5.212  15.529  0.00  0.00    +0.000 A 
ATOM     20  C   UNL     1       6.983   6.016  16.675  0.00  0.00    +0.000 A 
ATOM     21  C   UNL     1       6.297   5.639  17.837  0.00  0.00    +0.000 A 
BRANCH  19  22
ATOM     22  O   UNL     1       7.489   5.383  14.323  0.00  0.00    +0.000 OA
ATOM     23  C   UNL     1       7.076   4.532  13.262  0.00  0.00    +0.000 C 
ENDBRANCH  19  22
BRANCH  20  24
ATOM     24  O   UNL     1       7.806   7.109  16.621  0.00  0.00    +0.000 OA
ATOM     25  C   UNL     1       7.746   8.039  17.695  0.00  0.00    +0.000 C 
ENDBRANCH  20  24
ENDBRANCH  15  16
ENDBRANCH  14  15
ENDBRANCH   1  14
TORSDOF 9
ENDMDL
MODEL 3
REMARK VINA RESULT:      -7.1      4.372      7.128
REMARK  Name = 
REMARK  13 active torsions:
REMARK  status: ('A' for Active; 'I' for Inactive)
REMARK    1  A    between atoms: C_1  and  O_2
REMARK    2  A    between atoms: O_2  and  C_3
REMARK    3  A    between atoms: C_7  and  C_8
REMARK    4  A    between atoms: C_8  and  C_9
REMARK    5  A    between atoms: C_9  and  C_10
REMARK    6  A    between atoms: C_9  and  N_11
REMARK    7  A    between atoms: N_11  and  C_12
REMARK    8  A    between atoms: C_12  and  C_13
REMARK    9  A    between atoms: C_13  and  C_14
REMARK   10  A    between atoms: C_17  and  O_18
REMARK   11  A    between atoms: O_18  and  C_19
REMARK   12  A    between atoms: C_20  and  O_21
REMARK   13  A    between atoms: O_21  and  C_22
REMARK                            x       y       z     vdW  Elec       q    Type
REMARK                         _______ _______ _______ _____ _____    ______ ____
ROOT
ATOM      1  N   UNL     1       3.303   2.860  20.704  0.00  0.00    +0.000 NA
ATOM      2  H   UNL     1       3.503   2.385  21.586  0.00  0.00    +0.000 HD
ENDROOT
BRANCH   1   3
ATOM      3  C   UNL     1       2.042   2.338  20.147  0.00  0.00    +0.000 C 
ATOM      4  C   UNL     1       2.375   1.659  18.815  0.00  0.00    +0.000 C 
BRANCH   3   5
ATOM      5  C   UNL     1       0.952   3.430  19.992  0.00  0.00    +0.000 C 
BRANCH   5  10
ATOM      6  C   UNL     1       1.958   7.099  20.266  0.00  0.00    +0.000 A 
ATOM      7  C   UNL     1       2.400   7.347  18.966  0.00  0.00    +0.000 A 
ATOM      8  C   UNL     1       2.422   6.322  18.015  0.00  0.00    +0.000 A 
ATOM      9  C   UNL     1       1.978   5.048  18.353  0.00  0.00    +0.000 A 
ATOM     10  C   UNL     1       1.508   4.791  19.643  0.00  0.00    +0.000 A 
ATOM     11  C   UNL     1       1.539   5.814  20.608  0.00  0.00    +0.000 A 
BRANCH   6  13
ATOM     12  C   UNL     1       0.722   8.578  21.660  0.00  0.00    +0.000 C 
ATOM     13  O   UNL     1       1.968   8.187  21.095  0.00  0.00    +0.000 OA
ENDBRANCH   6  13
ENDBRANCH   5  10
ENDBRANCH   3   5
ENDBRANCH   1   3
BRANCH   1  14
ATOM     14  C   UNL     1       4.463   2.712  19.819  0.00  0.00    +0.000 C 
BRANCH  14  15
ATOM     15  C   UNL     1       5.419   3.915  19.836  0.00  0.00    +0.000 C 
BRANCH  15  16
ATOM     16  C   UNL     1       5.611   4.454  18.443  0.00  0.00    +0.000 A 
ATOM     17  C   UNL     1       4.975   3.853  17.358  0.00  0.00    +0.000 A 
ATOM     18  C   UNL     1       5.233   4.310  16.067  0.00  0.00    +0.000 A 
ATOM     19  C   UNL     1       6.120   5.372  15.845  0.00  0.00    +0.000 A 
ATOM     20  C   UNL     1       6.770   5.984  16.931  0.00  0.00    +0.000 A 
ATOM     21  C   UNL     1       6.499   5.517  18.224  0.00  0.00    +0.000 A 
BRANCH  19  22
ATOM     22  O   UNL     1       6.294   5.648  14.512  0.00  0.00    +0.000 OA
ATOM     23  C   UNL     1       7.083   4.729  13.770  0.00  0.00    +0.000 C 
ENDBRANCH  19  22
BRANCH  20  24
ATOM     24  O   UNL     1       7.673   6.981  16.676  0.00  0.00    +0.000 OA
ATOM     25  C   UNL     1       7.657   8.124  17.523  0.00  0.00    +0.000 C 
ENDBRANCH  20  24
ENDBRANCH  15  16
ENDBRANCH  14  15
ENDBRANCH   1  14
TORSDOF 9
ENDMDL
MODEL 4
REMARK VINA RESULT:      -6.9      4.334      6.938
REMARK  Name = 
REMARK  13 active torsions:
REMARK  status: ('A' for Active; 'I' for Inactive)
REMARK    1  A    between atoms: C_1  and  O_2
REMARK    2  A    between atoms: O_2  and  C_3
REMARK    3  A    between atoms: C_7  and  C_8
REMARK    4  A    between atoms: C_8  and  C_9
REMARK    5  A    between atoms: C_9  and  C_10
REMARK    6  A    between atoms: C_9  and  N_11
REMARK    7  A    between atoms: N_11  and  C_12
REMARK    8  A    between atoms: C_12  and  C_13
REMARK    9  A    between atoms: C_13  and  C_14
REMARK   10  A    between atoms: C_17  and  O_18
REMARK   11  A    between atoms: O_18  and  C_19
REMARK   12  A    between atoms: C_20  and  O_21
REMARK   13  A    between atoms: O_21  and  C_22
REMARK                            x       y       z     vdW  Elec       q    Type
REMARK                         _______ _______ _______ _____ _____    ______ ____
ROOT
ATOM      1  N   UNL     1       2.430   3.086  19.897  0.00  0.00    +0.000 NA
ATOM      2  H   UNL     1       1.998   2.410  19.266  0.00  0.00    +0.000 HD
ENDROOT
BRANCH   1   3
ATOM      3  C   UNL     1       1.775   4.395  19.728  0.00  0.00    +0.000 C 
ATOM      4  C   UNL     1       1.466   4.566  18.237  0.00  0.00    +0.000 C 
BRANCH   3   5
ATOM      5  C   UNL     1       2.616   5.570  20.291  0.00  0.00    +0.000 C 
BRANCH   5  10
ATOM      6  C   UNL     1       1.543   9.066  19.210  0.00  0.00    +0.000 A 
ATOM      7  C   UNL     1       2.131   9.141  17.947  0.00  0.00    +0.000 A 
ATOM      8  C   UNL     1       2.916   8.089  17.464  0.00  0.00    +0.000 A 
ATOM      9  C   UNL     1       3.094   6.943  18.232  0.00  0.00    +0.000 A 
ATOM     10  C   UNL     1       2.489   6.842  19.487  0.00  0.00    +0.000 A 
ATOM     11  C   UNL     1       1.746   7.927  19.987  0.00  0.00    +0.000 A 
BRANCH   6  13
ATOM     12  C   UNL     1      -0.607   9.931  19.745  0.00  0.00    +0.000 C 
ATOM     13  O   UNL     1       0.786  10.151  19.558  0.00  0.00    +0.000 OA
ENDBRANCH   6  13
ENDBRANCH   5  10
ENDBRANCH   3   5
ENDBRANCH   1   3
BRANCH   1  14
ATOM     14  C   UNL     1       3.877   3.097  19.654  0.00  0.00    +0.000 C 
BRANCH  14  15
ATOM     15  C   UNL     1       4.263   2.931  18.176  0.00  0.00    +0.000 C 
BRANCH  15  16
ATOM     16  C   UNL     1       5.261   3.983  17.771  0.00  0.00    +0.000 A 
ATOM     17  C   UNL     1       5.956   4.708  18.737  0.00  0.00    +0.000 A 
ATOM     18  C   UNL     1       6.810   5.736  18.346  0.00  0.00    +0.000 A 
ATOM     19  C   UNL     1       6.987   6.047  16.992  0.00  0.00    +0.000 A 
ATOM     20  C   UNL     1       6.290   5.325  16.008  0.00  0.00    +0.000 A 
ATOM     21  C   UNL     1       5.436   4.291  16.414  0.00  0.00    +0.000 A 
BRANCH  19  22
ATOM     22  O   UNL     1       7.819   7.121  16.798  0.00  0.00    +0.000 OA
ATOM     23  C   UNL     1       7.561   8.276  17.584  0.00  0.00    +0.000 C 
ENDBRANCH  19  22
BRANCH  20  24
ATOM     24  O   UNL     1       6.442   5.690  14.697  0.00  0.00    +0.000 OA
ATOM     25  C   UNL     1       7.030   4.748  13.809  0.00  0.00    +0.000 C 
ENDBRANCH  20  24
ENDBRANCH  15  16
ENDBRANCH  14  15
ENDBRANCH   1  14
TORSDOF 9
ENDMDL
MODEL 5
REMARK VINA RESULT:      -6.8      4.466      7.144
REMARK  Name = 
REMARK  13 active torsions:
REMARK  status: ('A' for Active; 'I' for Inactive)
REMARK    1  A    between atoms: C_1  and  O_2
REMARK    2  A    between atoms: O_2  and  C_3
REMARK    3  A    between atoms: C_7  and  C_8
REMARK    4  A    between atoms: C_8  and  C_9
REMARK    5  A    between atoms: C_9  and  C_10
REMARK    6  A    between atoms: C_9  and  N_11
REMARK    7  A    between atoms: N_11  and  C_12
REMARK    8  A    between atoms: C_12  and  C_13
REMARK    9  A    between atoms: C_13  and  C_14
REMARK   10  A    between atoms: C_17  and  O_18
REMARK   11  A    between atoms: O_18  and  C_19
REMARK   12  A    between atoms: C_20  and  O_21
REMARK   13  A    between atoms: O_21  and  C_22
REMARK                            x       y       z     vdW  Elec       q    Type
REMARK                         _______ _______ _______ _____ _____    ______ ____
ROOT
ATOM      1  N   UNL     1       2.515   1.891  19.687  0.00  0.00    +0.000 NA
ATOM      2  H   UNL     1       1.694   1.622  19.142  0.00  0.00    +0.000 HD
ENDROOT
BRANCH   1   3
ATOM      3  C   UNL     1       2.179   3.054  20.529  0.00  0.00    +0.000 C 
ATOM      4  C   UNL     1       1.749   2.520  21.899  0.00  0.00    +0.000 C 
BRANCH   3   5
ATOM      5  C   UNL     1       1.103   3.970  19.893  0.00  0.00    +0.000 C 
BRANCH   5  10
ATOM      6  C   UNL     1       1.753   7.702  20.339  0.00  0.00    +0.000 A 
ATOM      7  C   UNL     1       2.343   8.012  19.114  0.00  0.00    +0.000 A 
ATOM      8  C   UNL     1       2.579   7.013  18.164  0.00  0.00    +0.000 A 
ATOM      9  C   UNL     1       2.201   5.701  18.425  0.00  0.00    +0.000 A 
ATOM     10  C   UNL     1       1.585   5.379  19.636  0.00  0.00    +0.000 A 
ATOM     11  C   UNL     1       1.400   6.380  20.608  0.00  0.00    +0.000 A 
BRANCH   6  13
ATOM     12  C   UNL     1       0.740   9.825  20.688  0.00  0.00    +0.000 C 
ATOM     13  O   UNL     1       1.561   8.769  21.173  0.00  0.00    +0.000 OA
ENDBRANCH   6  13
ENDBRANCH   5  10
ENDBRANCH   3   5
ENDBRANCH   1   3
BRANCH   1  14
ATOM     14  C   UNL     1       3.636   2.112  18.769  0.00  0.00    +0.000 C 
BRANCH  14  15
ATOM     15  C   UNL     1       4.890   2.691  19.442  0.00  0.00    +0.000 C 
BRANCH  15  16
ATOM     16  C   UNL     1       5.393   3.887  18.679  0.00  0.00    +0.000 A 
ATOM     17  C   UNL     1       5.936   4.979  19.352  0.00  0.00    +0.000 A 
ATOM     18  C   UNL     1       6.316   6.112  18.637  0.00  0.00    +0.000 A 
ATOM     19  C   UNL     1       6.166   6.167  17.245  0.00  0.00    +0.000 A 
ATOM     20  C   UNL     1       5.617   5.073  16.554  0.00  0.00    +0.000 A 
ATOM     21  C   UNL     1       5.242   3.938  17.285  0.00  0.00    +0.000 A 
BRANCH  19  22
ATOM     22  O   UNL     1       6.540   7.378  16.718  0.00  0.00    +0.000 OA
ATOM     23  C   UNL     1       7.611   8.050  17.365  0.00  0.00    +0.000 C 
ENDBRANCH  19  22
BRANCH  20  24
ATOM     24  O   UNL     1       5.431   5.179  15.201  0.00  0.00    +0.000 OA
ATOM     25  C   UNL     1       6.395   4.573  14.350  0.00  0.00    +0.000 C 
ENDBRANCH  20  24
ENDBRANCH  15  16
ENDBRANCH  14  15
ENDBRANCH   1  14
TORSDOF 9
ENDMDL
MODEL 6
REMARK VINA RESULT:      -6.8      5.744      8.746
REMARK  Name = 
REMARK  13 active torsions:
REMARK  status: ('A' for Active; 'I' for Inactive)
REMARK    1  A    between atoms: C_1  and  O_2
REMARK    2  A    between atoms: O_2  and  C_3
REMARK    3  A    between atoms: C_7  and  C_8
REMARK    4  A    between atoms: C_8  and  C_9
REMARK    5  A    between atoms: C_9  and  C_10
REMARK    6  A    between atoms: C_9  and  N_11
REMARK    7  A    between atoms: N_11  and  C_12
REMARK    8  A    between atoms: C_12  and  C_13
REMARK    9  A    between atoms: C_13  and  C_14
REMARK   10  A    between atoms: C_17  and  O_18
REMARK   11  A    between atoms: O_18  and  C_19
REMARK   12  A    between atoms: C_20  and  O_21
REMARK   13  A    between atoms: O_21  and  C_22
REMARK                            x       y       z     vdW  Elec       q    Type
REMARK                         _______ _______ _______ _____ _____    ______ ____
ROOT
ATOM      1  N   UNL     1       2.315   6.938  20.020  0.00  0.00    +0.000 NA
ATOM      2  H   UNL     1       3.019   6.600  20.677  0.00  0.00    +0.000 HD
ENDROOT
BRANCH   1   3
ATOM      3  C   UNL     1       2.907   7.015  18.672  0.00  0.00    +0.000 C 
ATOM      4  C   UNL     1       2.153   8.105  17.901  0.00  0.00    +0.000 C 
BRANCH   3   5
ATOM      5  C   UNL     1       2.894   5.656  17.927  0.00  0.00    +0.000 C 
BRANCH   5  10
ATOM      6  C   UNL     1       6.485   5.928  16.672  0.00  0.00    +0.000 A 
ATOM      7  C   UNL     1       6.636   4.693  16.041  0.00  0.00    +0.000 A 
ATOM      8  C   UNL     1       5.602   3.751  16.064  0.00  0.00    +0.000 A 
ATOM      9  C   UNL     1       4.400   4.052  16.695  0.00  0.00    +0.000 A 
ATOM     10  C   UNL     1       4.224   5.295  17.308  0.00  0.00    +0.000 A 
ATOM     11  C   UNL     1       5.288   6.215  17.327  0.00  0.00    +0.000 A 
BRANCH   6  13
ATOM     12  C   UNL     1       7.722   7.745  17.581  0.00  0.00    +0.000 C 
ATOM     13  O   UNL     1       7.561   6.766  16.562  0.00  0.00    +0.000 OA
ENDBRANCH   6  13
ENDBRANCH   5  10
ENDBRANCH   3   5
ENDBRANCH   1   3
BRANCH   1  14
ATOM     14  C   UNL     1       1.778   8.208  20.519  0.00  0.00    +0.000 C 
BRANCH  14  15
ATOM     15  C   UNL     1       0.564   8.051  21.448  0.00  0.00    +0.000 C 
BRANCH  15  16
ATOM     16  C   UNL     1      -0.103   9.382  21.672  0.00  0.00    +0.000 A 
ATOM     17  C   UNL     1      -0.535   9.752  22.944  0.00  0.00    +0.000 A 
ATOM     18  C   UNL     1      -1.227  10.948  23.117  0.00  0.00    +0.000 A 
ATOM     19  C   UNL     1      -1.491  11.790  22.029  0.00  0.00    +0.000 A 
ATOM     20  C   UNL     1      -1.064  11.426  20.740  0.00  0.00    +0.000 A 
ATOM     21  C   UNL     1      -0.365  10.222  20.580  0.00  0.00    +0.000 A 
BRANCH  19  22
ATOM     22  O   UNL     1      -2.230  12.892  22.377  0.00  0.00    +0.000 OA
ATOM     23  C   UNL     1      -3.630  12.698  22.528  0.00  0.00    +0.000 C 
ENDBRANCH  19  22
BRANCH  20  24
ATOM     24  O   UNL     1      -1.386  12.242  19.689  0.00  0.00    +0.000 OA
ATOM     25  C   UNL     1      -2.470  11.853  18.854  0.00  0.00    +0.000 C 
ENDBRANCH  20  24
ENDBRANCH  15  16
ENDBRANCH  14  15
ENDBRANCH   1  14
TORSDOF 9
ENDMDL
MODEL 7
REMARK VINA RESULT:      -6.8      4.345      7.937
REMARK  Name = 
REMARK  13 active torsions:
REMARK  status: ('A' for Active; 'I' for Inactive)
REMARK    1  A    between atoms: C_1  and  O_2
REMARK    2  A    between atoms: O_2  and  C_3
REMARK    3  A    between atoms: C_7  and  C_8
REMARK    4  A    between atoms: C_8  and  C_9
REMARK    5  A    between atoms: C_9  and  C_10
REMARK    6  A    between atoms: C_9  and  N_11
REMARK    7  A    between atoms: N_11  and  C_12
REMARK    8  A    between atoms: C_12  and  C_13
REMARK    9  A    between atoms: C_13  and  C_14
REMARK   10  A    between atoms: C_17  and  O_18
REMARK   11  A    between atoms: O_18  and  C_19
REMARK   12  A    between atoms: C_20  and  O_21
REMARK   13  A    between atoms: O_21  and  C_22
REMARK                            x       y       z     vdW  Elec       q    Type
REMARK                         _______ _______ _______ _____ _____    ______ ____
ROOT
ATOM      1  N   UNL     1       2.446   2.461  19.943  0.00  0.00    +0.000 NA
ATOM      2  H   UNL     1       2.948   2.322  20.821  0.00  0.00    +0.000 HD
ENDROOT
BRANCH   1   3
ATOM      3  C   UNL     1       3.418   2.676  18.856  0.00  0.00    +0.000 C 
ATOM      4  C   UNL     1       3.658   1.321  18.180  0.00  0.00    +0.000 C 
BRANCH   3   5
ATOM      5  C   UNL     1       4.737   3.328  19.346  0.00  0.00    +0.000 C 
BRANCH   5  10
ATOM      6  C   UNL     1       6.832   6.195  17.955  0.00  0.00    +0.000 A 
ATOM      7  C   UNL     1       6.178   6.434  16.745  0.00  0.00    +0.000 A 
ATOM      8  C   UNL     1       5.095   5.640  16.353  0.00  0.00    +0.000 A 
ATOM      9  C   UNL     1       4.644   4.618  17.182  0.00  0.00    +0.000 A 
ATOM     10  C   UNL     1       5.272   4.385  18.408  0.00  0.00    +0.000 A 
ATOM     11  C   UNL     1       6.393   5.153  18.770  0.00  0.00    +0.000 A 
BRANCH   6  13
ATOM     12  C   UNL     1       7.788   8.354  17.662  0.00  0.00    +0.000 C 
ATOM     13  O   UNL     1       7.862   7.052  18.231  0.00  0.00    +0.000 OA
ENDBRANCH   6  13
ENDBRANCH   5  10
ENDBRANCH   3   5
ENDBRANCH   1   3
BRANCH   1  14
ATOM     14  C   UNL     1       1.484   3.554  20.120  0.00  0.00    +0.000 C 
BRANCH  14  15
ATOM     15  C   UNL     1       1.963   4.658  21.076  0.00  0.00    +0.000 C 
BRANCH  15  16
ATOM     16  C   UNL     1       1.842   6.009  20.422  0.00  0.00    +0.000 A 
ATOM     17  C   UNL     1       2.280   6.204  19.113  0.00  0.00    +0.000 A 
ATOM     18  C   UNL     1       2.240   7.479  18.555  0.00  0.00    +0.000 A 
ATOM     19  C   UNL     1       1.760   8.571  19.290  0.00  0.00    +0.000 A 
ATOM     20  C   UNL     1       1.318   8.388  20.611  0.00  0.00    +0.000 A 
ATOM     21  C   UNL     1       1.360   7.099  21.161  0.00  0.00    +0.000 A 
BRANCH  19  22
ATOM     22  O   UNL     1       1.848   9.754  18.601  0.00  0.00    +0.000 OA
ATOM     23  C   UNL     1       0.633  10.288  18.094  0.00  0.00    +0.000 C 
ENDBRANCH  19  22
BRANCH  20  24
ATOM     24  O   UNL     1       0.907   9.484  21.322  0.00  0.00    +0.000 OA
ATOM     25  C   UNL     1      -0.300   9.378  22.067  0.00  0.00    +0.000 C 
ENDBRANCH  20  24
ENDBRANCH  15  16
ENDBRANCH  14  15
ENDBRANCH   1  14
TORSDOF 9
ENDMDL
MODEL 8
REMARK VINA RESULT:      -6.8      4.718      7.479
REMARK  Name = 
REMARK  13 active torsions:
REMARK  status: ('A' for Active; 'I' for Inactive)
REMARK    1  A    between atoms: C_1  and  O_2
REMARK    2  A    between atoms: O_2  and  C_3
REMARK    3  A    between atoms: C_7  and  C_8
REMARK    4  A    between atoms: C_8  and  C_9
REMARK    5  A    between atoms: C_9  and  C_10
REMARK    6  A    between atoms: C_9  and  N_11
REMARK    7  A    between atoms: N_11  and  C_12
REMARK    8  A    between atoms: C_12  and  C_13
REMARK    9  A    between atoms: C_13  and  C_14
REMARK   10  A    between atoms: C_17  and  O_18
REMARK   11  A    between atoms: O_18  and  C_19
REMARK   12  A    between atoms: C_20  and  O_21
REMARK   13  A    between atoms: O_21  and  C_22
REMARK                            x       y       z     vdW  Elec       q    Type
REMARK                         _______ _______ _______ _____ _____    ______ ____
ROOT
ATOM      1  N   UNL     1       3.537   3.911  20.140  0.00  0.00    +0.000 NA
ATOM      2  H   UNL     1       2.997   3.073  19.918  0.00  0.00    +0.000 HD
ENDROOT
BRANCH   1   3
ATOM      3  C   UNL     1       2.648   5.086  20.106  0.00  0.00    +0.000 C 
ATOM      4  C   UNL     1       1.216   4.572  19.921  0.00  0.00    +0.000 C 
BRANCH   3   5
ATOM      5  C   UNL     1       3.046   6.115  19.017  0.00  0.00    +0.000 C 
BRANCH   5  10
ATOM      6  C   UNL     1       1.020   9.008  20.456  0.00  0.00    +0.000 A 
ATOM      7  C   UNL     1       0.814   9.777  19.310  0.00  0.00    +0.000 A 
ATOM      8  C   UNL     1       1.369   9.393  18.085  0.00  0.00    +0.000 A 
ATOM      9  C   UNL     1       2.112   8.221  17.995  0.00  0.00    +0.000 A 
ATOM     10  C   UNL     1       2.305   7.426  19.127  0.00  0.00    +0.000 A 
ATOM     11  C   UNL     1       1.789   7.848  20.366  0.00  0.00    +0.000 A 
BRANCH   6  13
ATOM     12  C   UNL     1      -0.087  10.813  21.539  0.00  0.00    +0.000 C 
ATOM     13  O   UNL     1       0.410   9.481  21.585  0.00  0.00    +0.000 OA
ENDBRANCH   6  13
ENDBRANCH   5  10
ENDBRANCH   3   5
ENDBRANCH   1   3
BRANCH   1  14
ATOM     14  C   UNL     1       4.680   3.990  19.224  0.00  0.00    +0.000 C 
BRANCH  14  15
ATOM     15  C   UNL     1       4.430   3.336  17.856  0.00  0.00    +0.000 C 
BRANCH  15  16
ATOM     16  C   UNL     1       5.249   4.015  16.790  0.00  0.00    +0.000 A 
ATOM     17  C   UNL     1       5.287   3.505  15.494  0.00  0.00    +0.000 A 
ATOM     18  C   UNL     1       6.117   4.095  14.544  0.00  0.00    +0.000 A 
ATOM     19  C   UNL     1       6.912   5.201  14.873  0.00  0.00    +0.000 A 
ATOM     20  C   UNL     1       6.886   5.723  16.177  0.00  0.00    +0.000 A 
ATOM     21  C   UNL     1       6.043   5.122  17.123  0.00  0.00    +0.000 A 
BRANCH  19  22
ATOM     22  O   UNL     1       7.706   5.612  13.831  0.00  0.00    +0.000 OA
ATOM     23  C   UNL     1       7.743   4.770  12.688  0.00  0.00    +0.000 C 
ENDBRANCH  19  22
BRANCH  20  24
ATOM     24  O   UNL     1       7.716   6.768  16.482  0.00  0.00    +0.000 OA
ATOM     25  C   UNL     1       7.589   7.364  17.767  0.00  0.00    +0.000 C 
ENDBRANCH  20  24
ENDBRANCH  15  16
ENDBRANCH  14  15
ENDBRANCH   1  14
TORSDOF 9
ENDMDL
MODEL 9
REMARK VINA RESULT:      -6.8      5.271      7.451
REMARK  Name = 
REMARK  13 active torsions:
REMARK  status: ('A' for Active; 'I' for Inactive)
REMARK    1  A    between atoms: C_1  and  O_2
REMARK    2  A    between atoms: O_2  and  C_3
REMARK    3  A    between atoms: C_7  and  C_8
REMARK    4  A    between atoms: C_8  and  C_9
REMARK    5  A    between atoms: C_9  and  C_10
REMARK    6  A    between atoms: C_9  and  N_11
REMARK    7  A    between atoms: N_11  and  C_12
REMARK    8  A    between atoms: C_12  and  C_13
REMARK    9  A    between atoms: C_13  and  C_14
REMARK   10  A    between atoms: C_17  and  O_18
REMARK   11  A    between atoms: O_18  and  C_19
REMARK   12  A    between atoms: C_20  and  O_21
REMARK   13  A    between atoms: O_21  and  C_22
REMARK                            x       y       z     vdW  Elec       q    Type
REMARK                         _______ _______ _______ _____ _____    ______ ____
ROOT
ATOM      1  N   UNL     1       2.250   2.745  19.756  0.00  0.00    +0.000 NA
ATOM      2  H   UNL     1       3.147   2.921  20.209  0.00  0.00    +0.000 HD
ENDROOT
BRANCH   1   3
ATOM      3  C   UNL     1       2.479   2.398  18.342  0.00  0.00    +0.000 C 
ATOM      4  C   UNL     1       3.614   1.369  18.300  0.00  0.00    +0.000 C 
BRANCH   3   5
ATOM      5  C   UNL     1       2.777   3.636  17.457  0.00  0.00    +0.000 C 
BRANCH   5  10
ATOM      6  C   UNL     1       6.379   4.615  18.238  0.00  0.00    +0.000 A 
ATOM      7  C   UNL     1       6.944   4.572  16.963  0.00  0.00    +0.000 A 
ATOM      8  C   UNL     1       6.181   4.178  15.859  0.00  0.00    +0.000 A 
ATOM      9  C   UNL     1       4.838   3.851  16.022  0.00  0.00    +0.000 A 
ATOM     10  C   UNL     1       4.252   3.915  17.288  0.00  0.00    +0.000 A 
ATOM     11  C   UNL     1       5.041   4.260  18.400  0.00  0.00    +0.000 A 
BRANCH   6  13
ATOM     12  C   UNL     1       7.946   6.237  18.994  0.00  0.00    +0.000 C 
ATOM     13  O   UNL     1       7.225   5.033  19.228  0.00  0.00    +0.000 OA
ENDBRANCH   6  13
ENDBRANCH   5  10
ENDBRANCH   3   5
ENDBRANCH   1   3
BRANCH   1  14
ATOM     14  C   UNL     1       1.384   3.911  19.961  0.00  0.00    +0.000 C 
BRANCH  14  15
ATOM     15  C   UNL     1       1.910   4.903  21.011  0.00  0.00    +0.000 C 
BRANCH  15  16
ATOM     16  C   UNL     1       1.846   6.311  20.484  0.00  0.00    +0.000 A 
ATOM     17  C   UNL     1       1.116   7.288  21.159  0.00  0.00    +0.000 A 
ATOM     18  C   UNL     1       0.997   8.563  20.612  0.00  0.00    +0.000 A 
ATOM     19  C   UNL     1       1.607   8.880  19.391  0.00  0.00    +0.000 A 
ATOM     20  C   UNL     1       2.343   7.904  18.699  0.00  0.00    +0.000 A 
ATOM     21  C   UNL     1       2.459   6.626  19.262  0.00  0.00    +0.000 A 
BRANCH  19  22
ATOM     22  O   UNL     1       1.337  10.161  18.980  0.00  0.00    +0.000 OA
ATOM     23  C   UNL     1       0.064  10.686  19.330  0.00  0.00    +0.000 C 
ENDBRANCH  19  22
BRANCH  20  24
ATOM     24  O   UNL     1       2.881   8.229  17.482  0.00  0.00    +0.000 OA
ATOM     25  C   UNL     1       4.047   7.531  17.063  0.00  0.00    +0.000 C 
ENDBRANCH  20  24
ENDBRANCH  15  16
ENDBRANCH  14  15
ENDBRANCH   1  14
TORSDOF 9
ENDMDL
