MODEL 1
REMARK VINA RESULT:      -7.4      0.000      0.000
REMARK  Name = 
REMARK  12 active torsions:
REMARK  status: ('A' for Active; 'I' for Inactive)
REMARK    1  A    between atoms: C_1  and  O_2
REMARK    2  A    between atoms: O_2  and  C_3
REMARK    3  A    between atoms: C_6  and  C_7
REMARK    4  A    between atoms: C_7  and  N_8
REMARK    5  A    between atoms: C_7  and  P_21
REMARK    6  A    between atoms: C_9  and  C_11
REMARK    7  A    between atoms: C_11  and  O_12
REMARK    8  A    between atoms: O_12  and  C_13
REMARK    9  A    between atoms: P_21  and  O_23
REMARK   10  A    between atoms: P_21  and  O_25
REMARK   11  A    between atoms: O_23  and  C_24
REMARK   12  A    between atoms: O_25  and  C_26
REMARK                            x       y       z     vdW  Elec       q    Type
REMARK                         _______ _______ _______ _____ _____    ______ ____
ROOT
ATOM      1  C   UNL     1       3.800   5.469  18.126  0.00  0.00    +0.000 C 
ENDROOT
BRANCH   1   5
ATOM      2  C   UNL     1       1.563   9.079  19.100  0.00  0.00    +0.000 A 
ATOM      3  C   UNL     1       1.652   8.048  20.031  0.00  0.00    +0.000 A 
ATOM      4  C   UNL     1       2.404   6.903  19.741  0.00  0.00    +0.000 A 
ATOM      5  C   UNL     1       3.038   6.744  18.492  0.00  0.00    +0.000 A 
ATOM      6  C   UNL     1       2.924   7.790  17.567  0.00  0.00    +0.000 A 
ATOM      7  C   UNL     1       2.183   8.934  17.866  0.00  0.00    +0.000 A 
BRANCH   2   9
ATOM      8  C   UNL     1      -0.175   9.874  20.459  0.00  0.00    +0.000 C 
ATOM      9  O   UNL     1       0.805  10.159  19.462  0.00  0.00    +0.000 OA
ENDBRANCH   2   9
ENDBRANCH   1   5
BRANCH   1  10
ATOM     10  N   UNL     1       5.070   5.377  18.869  0.00  0.00    +0.000 N 
ATOM     11  C   UNL     1       6.334   5.626  18.412  0.00  0.00    +0.000 C 
ATOM     12  O   UNL     1       7.281   5.414  19.183  0.00  0.00    +0.000 OA
ATOM     13  H   UNL     1       5.035   5.066  19.830  0.00  0.00    +0.000 HD
BRANCH  11  14
ATOM     14  C   UNL     1       6.538   6.178  17.000  0.00  0.00    +0.000 C 
BRANCH  14  15
ATOM     15  O   UNL     1       7.448   5.426  16.215  0.00  0.00    +0.000 OA
BRANCH  15  16
ATOM     16  C   UNL     1       6.936   4.925  15.039  0.00  0.00    +0.000 A 
ATOM     17  C   UNL     1       5.793   4.132  15.217  0.00  0.00    +0.000 A 
ATOM     18  C   UNL     1       5.224   3.437  14.143  0.00  0.00    +0.000 A 
ATOM     19  C   UNL     1       5.794   3.536  12.880  0.00  0.00    +0.000 A 
ATOM     20 CL   UNL     1       5.157   2.622  11.571  0.00  0.00    +0.000 Cl
ATOM     21  C   UNL     1       6.905   4.348  12.675  0.00  0.00    +0.000 A 
ATOM     22  C   UNL     1       7.485   5.037  13.748  0.00  0.00    +0.000 A 
ATOM     23 CL   UNL     1       8.920   5.916  13.353  0.00  0.00    +0.000 Cl
ENDBRANCH  15  16
ENDBRANCH  14  15
ENDBRANCH  11  14
ENDBRANCH   1  10
BRANCH   1  24
ATOM     24  P   UNL     1       2.906   3.850  18.210  0.00  0.00    +0.000 P 
ATOM     25  O   UNL     1       1.915   3.566  17.118  0.00  0.00    +0.000 OA
BRANCH  24  26
ATOM     26  O   UNL     1       4.069   2.732  18.297  0.00  0.00    +0.000 OA
ATOM     27  C   UNL     1       3.643   1.380  18.297  0.00  0.00    +0.000 C 
ENDBRANCH  24  26
BRANCH  24  28
ATOM     28  O   UNL     1       2.257   3.784  19.692  0.00  0.00    +0.000 OA
ATOM     29  C   UNL     1       0.902   3.376  19.777  0.00  0.00    +0.000 C 
ENDBRANCH  24  28
ENDBRANCH   1  24
TORSDOF 9
ENDMDL
MODEL 2
REMARK VINA RESULT:      -7.2      0.721      1.183
REMARK  Name = 
REMARK  12 active torsions:
REMARK  status: ('A' for Active; 'I' for Inactive)
REMARK    1  A    between atoms: C_1  and  O_2
REMARK    2  A    between atoms: O_2  and  C_3
REMARK    3  A    between atoms: C_6  and  C_7
REMARK    4  A    between atoms: C_7  and  N_8
REMARK    5  A    between atoms: C_7  and  P_21
REMARK    6  A    between atoms: C_9  and  C_11
REMARK    7  A    between atoms: C_11  and  O_12
REMARK    8  A    between atoms: O_12  and  C_13
REMARK    9  A    between atoms: P_21  and  O_23
REMARK   10  A    between atoms: P_21  and  O_25
REMARK   11  A    between atoms: O_23  and  C_24
REMARK   12  A    between atoms: O_25  and  C_26
REMARK                            x       y       z     vdW  Elec       q    Type
REMARK                         _______ _______ _______ _____ _____    ______ ____
ROOT
ATOM      1  C   UNL     1       3.483   5.639  18.060  0.00  0.00    +0.000 C 
ENDROOT
BRANCH   1   5
ATOM      2  C   UNL     1       1.430   9.315  19.181  0.00  0.00    +0.000 A 
ATOM      3  C   UNL     1       1.878   9.144  17.875  0.00  0.00    +0.000 A 
ATOM      4  C   UNL     1       2.501   7.948  17.497  0.00  0.00    +0.000 A 
ATOM      5  C   UNL     1       2.735   6.921  18.433  0.00  0.00    +0.000 A 
ATOM      6  C   UNL     1       2.287   7.121  19.745  0.00  0.00    +0.000 A 
ATOM      7  C   UNL     1       1.656   8.311  20.113  0.00  0.00    +0.000 A 
BRANCH   2   9
ATOM      8  C   UNL     1       1.494  11.641  18.888  0.00  0.00    +0.000 C 
ATOM      9  O   UNL     1       0.836  10.515  19.467  0.00  0.00    +0.000 OA
ENDBRANCH   2   9
ENDBRANCH   1   5
BRANCH   1  10
ATOM     10  N   UNL     1       4.831   5.618  18.654  0.00  0.00    +0.000 N 
ATOM     11  C   UNL     1       6.027   5.871  18.040  0.00  0.00    +0.000 C 
ATOM     12  O   UNL     1       7.062   5.724  18.705  0.00  0.00    +0.000 OA
ATOM     13  H   UNL     1       4.917   5.361  19.627  0.00  0.00    +0.000 HD
BRANCH  11  14
ATOM     14  C   UNL     1       6.051   6.347  16.586  0.00  0.00    +0.000 C 
BRANCH  14  15
ATOM     15  O   UNL     1       7.143   5.846  15.836  0.00  0.00    +0.000 OA
BRANCH  15  16
ATOM     16  C   UNL     1       6.805   5.155  14.694  0.00  0.00    +0.000 A 
ATOM     17  C   UNL     1       5.682   4.329  14.849  0.00  0.00    +0.000 A 
ATOM     18  C   UNL     1       5.282   3.457  13.830  0.00  0.00    +0.000 A 
ATOM     19  C   UNL     1       6.001   3.410  12.643  0.00  0.00    +0.000 A 
ATOM     20 CL   UNL     1       5.572   2.284  11.416  0.00  0.00    +0.000 Cl
ATOM     21  C   UNL     1       7.095   4.249  12.454  0.00  0.00    +0.000 A 
ATOM     22  C   UNL     1       7.507   5.115  13.474  0.00  0.00    +0.000 A 
ATOM     23 CL   UNL     1       8.943   6.013  13.127  0.00  0.00    +0.000 Cl
ENDBRANCH  15  16
ENDBRANCH  14  15
ENDBRANCH  11  14
ENDBRANCH   1  10
BRANCH   1  24
ATOM     24  P   UNL     1       2.646   4.013  18.347  0.00  0.00    +0.000 P 
ATOM     25  O   UNL     1       1.484   3.682  17.455  0.00  0.00    +0.000 OA
BRANCH  24  26
ATOM     26  O   UNL     1       3.827   2.912  18.261  0.00  0.00    +0.000 OA
ATOM     27  C   UNL     1       4.380   2.486  19.494  0.00  0.00    +0.000 C 
ENDBRANCH  24  26
BRANCH  24  28
ATOM     28  O   UNL     1       2.269   3.986  19.922  0.00  0.00    +0.000 OA
ATOM     29  C   UNL     1       1.141   3.211  20.294  0.00  0.00    +0.000 C 
ENDBRANCH  24  28
ENDBRANCH   1  24
TORSDOF 9
ENDMDL
MODEL 3
REMARK VINA RESULT:      -7.0      1.092      1.532
REMARK  Name = 
REMARK  12 active torsions:
REMARK  status: ('A' for Active; 'I' for Inactive)
REMARK    1  A    between atoms: C_1  and  O_2
REMARK    2  A    between atoms: O_2  and  C_3
REMARK    3  A    between atoms: C_6  and  C_7
REMARK    4  A    between atoms: C_7  and  N_8
REMARK    5  A    between atoms: C_7  and  P_21
REMARK    6  A    between atoms: C_9  and  C_11
REMARK    7  A    between atoms: C_11  and  O_12
REMARK    8  A    between atoms: O_12  and  C_13
REMARK    9  A    between atoms: P_21  and  O_23
REMARK   10  A    between atoms: P_21  and  O_25
REMARK   11  A    between atoms: O_23  and  C_24
REMARK   12  A    between atoms: O_25  and  C_26
REMARK                            x       y       z     vdW  Elec       q    Type
REMARK                         _______ _______ _______ _____ _____    ______ ____
ROOT
ATOM      1  C   UNL     1       4.602   4.442  18.501  0.00  0.00    +0.000 C 
ENDROOT
BRANCH   1   5
ATOM      2  C   UNL     1       2.108   7.971  19.063  0.00  0.00    +0.000 A 
ATOM      3  C   UNL     1       2.767   7.775  17.853  0.00  0.00    +0.000 A 
ATOM      4  C   UNL     1       3.536   6.622  17.651  0.00  0.00    +0.000 A 
ATOM      5  C   UNL     1       3.704   5.669  18.675  0.00  0.00    +0.000 A 
ATOM      6  C   UNL     1       3.042   5.894  19.888  0.00  0.00    +0.000 A 
ATOM      7  C   UNL     1       2.266   7.039  20.080  0.00  0.00    +0.000 A 
BRANCH   2   9
ATOM      8  C   UNL     1       0.763   9.297  20.453  0.00  0.00    +0.000 C 
ATOM      9  O   UNL     1       1.382   9.125  19.179  0.00  0.00    +0.000 OA
ENDBRANCH   2   9
ENDBRANCH   1   5
BRANCH   1  10
ATOM     10  N   UNL     1       5.958   4.698  19.019  0.00  0.00    +0.000 N 
ATOM     11  C   UNL     1       7.013   5.277  18.370  0.00  0.00    +0.000 C 
ATOM     12  O   UNL     1       8.099   5.330  18.964  0.00  0.00    +0.000 OA
ATOM     13  H   UNL     1       6.171   4.394  19.959  0.00  0.00    +0.000 HD
BRANCH  11  14
ATOM     14  C   UNL     1       6.819   5.856  16.968  0.00  0.00    +0.000 C 
BRANCH  14  15
ATOM     15  O   UNL     1       7.678   5.294  15.991  0.00  0.00    +0.000 OA
BRANCH  15  16
ATOM     16  C   UNL     1       7.057   4.857  14.842  0.00  0.00    +0.000 A 
ATOM     17  C   UNL     1       5.891   4.116  15.083  0.00  0.00    +0.000 A 
ATOM     18  C   UNL     1       5.209   3.484  14.036  0.00  0.00    +0.000 A 
ATOM     19  C   UNL     1       5.690   3.595  12.737  0.00  0.00    +0.000 A 
ATOM     20 CL   UNL     1       4.912   2.755  11.454  0.00  0.00    +0.000 Cl
ATOM     21  C   UNL     1       6.822   4.357  12.472  0.00  0.00    +0.000 A 
ATOM     22  C   UNL     1       7.515   4.983  13.517  0.00  0.00    +0.000 A 
ATOM     23 CL   UNL     1       8.960   5.802  13.041  0.00  0.00    +0.000 Cl
ENDBRANCH  15  16
ENDBRANCH  14  15
ENDBRANCH  11  14
ENDBRANCH   1  10
BRANCH   1  24
ATOM     24  P   UNL     1       3.993   2.807  19.120  0.00  0.00    +0.000 P 
ATOM     25  O   UNL     1       3.714   1.753  18.087  0.00  0.00    +0.000 OA
BRANCH  24  26
ATOM     26  O   UNL     1       5.092   2.334  20.206  0.00  0.00    +0.000 OA
ATOM     27  C   UNL     1       4.795   1.149  20.925  0.00  0.00    +0.000 C 
ENDBRANCH  24  26
BRANCH  24  28
ATOM     28  O   UNL     1       2.712   3.140  20.052  0.00  0.00    +0.000 OA
ATOM     29  C   UNL     1       1.474   2.570  19.662  0.00  0.00    +0.000 C 
ENDBRANCH  24  28
ENDBRANCH   1  24
TORSDOF 9
ENDMDL
MODEL 4
REMARK VINA RESULT:      -7.0      1.146      1.665
REMARK  Name = 
REMARK  12 active torsions:
REMARK  status: ('A' for Active; 'I' for Inactive)
REMARK    1  A    between atoms: C_1  and  O_2
REMARK    2  A    between atoms: O_2  and  C_3
REMARK    3  A    between atoms: C_6  and  C_7
REMARK    4  A    between atoms: C_7  and  N_8
REMARK    5  A    between atoms: C_7  and  P_21
REMARK    6  A    between atoms: C_9  and  C_11
REMARK    7  A    between atoms: C_11  and  O_12
REMARK    8  A    between atoms: O_12  and  C_13
REMARK    9  A    between atoms: P_21  and  O_23
REMARK   10  A    between atoms: P_21  and  O_25
REMARK   11  A    between atoms: O_23  and  C_24
REMARK   12  A    between atoms: O_25  and  C_26
REMARK                            x       y       z     vdW  Elec       q    Type
REMARK                         _______ _______ _______ _____ _____    ______ ____
ROOT
ATOM      1  C   UNL     1       4.551   4.495  18.620  0.00  0.00    +0.000 C 
ENDROOT
BRANCH   1   5
ATOM      2  C   UNL     1       2.168   8.132  18.896  0.00  0.00    +0.000 A 
ATOM      3  C   UNL     1       2.121   7.195  19.925  0.00  0.00    +0.000 A 
ATOM      4  C   UNL     1       2.916   6.044  19.862  0.00  0.00    +0.000 A 
ATOM      5  C   UNL     1       3.733   5.783  18.744  0.00  0.00    +0.000 A 
ATOM      6  C   UNL     1       3.755   6.734  17.717  0.00  0.00    +0.000 A 
ATOM      7  C   UNL     1       2.969   7.886  17.790  0.00  0.00    +0.000 A 
BRANCH   2   9
ATOM      8  C   UNL     1       0.453   9.421  17.948  0.00  0.00    +0.000 C 
ATOM      9  O   UNL     1       1.357   9.226  19.035  0.00  0.00    +0.000 OA
ENDBRANCH   2   9
ENDBRANCH   1   5
BRANCH   1  10
ATOM     10  N   UNL     1       5.954   4.716  19.014  0.00  0.00    +0.000 N 
ATOM     11  C   UNL     1       6.950   5.310  18.288  0.00  0.00    +0.000 C 
ATOM     12  O   UNL     1       8.089   5.328  18.776  0.00  0.00    +0.000 OA
ATOM     13  H   UNL     1       6.253   4.372  19.916  0.00  0.00    +0.000 HD
BRANCH  11  14
ATOM     14  C   UNL     1       6.629   5.947  16.935  0.00  0.00    +0.000 C 
BRANCH  14  15
ATOM     15  O   UNL     1       7.552   5.616  15.912  0.00  0.00    +0.000 OA
BRANCH  15  16
ATOM     16  C   UNL     1       6.996   5.098  14.763  0.00  0.00    +0.000 A 
ATOM     17  C   UNL     1       5.781   4.431  14.979  0.00  0.00    +0.000 A 
ATOM     18  C   UNL     1       5.149   3.731  13.945  0.00  0.00    +0.000 A 
ATOM     19  C   UNL     1       5.728   3.700  12.682  0.00  0.00    +0.000 A 
ATOM     20 CL   UNL     1       5.007   2.775  11.425  0.00  0.00    +0.000 Cl
ATOM     21  C   UNL     1       6.912   4.387  12.437  0.00  0.00    +0.000 A 
ATOM     22  C   UNL     1       7.555   5.080  13.471  0.00  0.00    +0.000 A 
ATOM     23 CL   UNL     1       9.069   5.791  13.036  0.00  0.00    +0.000 Cl
ENDBRANCH  15  16
ENDBRANCH  14  15
ENDBRANCH  11  14
ENDBRANCH   1  10
BRANCH   1  24
ATOM     24  P   UNL     1       3.908   2.959  19.429  0.00  0.00    +0.000 P 
ATOM     25  O   UNL     1       4.888   2.157  20.236  0.00  0.00    +0.000 OA
BRANCH  24  26
ATOM     26  O   UNL     1       2.637   3.444  20.302  0.00  0.00    +0.000 OA
ATOM     27  C   UNL     1       2.544   2.927  21.618  0.00  0.00    +0.000 C 
ENDBRANCH  24  26
BRANCH  24  28
ATOM     28  O   UNL     1       3.204   2.104  18.248  0.00  0.00    +0.000 OA
ATOM     29  C   UNL     1       1.794   2.212  18.136  0.00  0.00    +0.000 C 
ENDBRANCH  24  28
ENDBRANCH   1  24
TORSDOF 9
ENDMDL
MODEL 5
REMARK VINA RESULT:      -6.9      1.141      1.733
REMARK  Name = 
REMARK  12 active torsions:
REMARK  status: ('A' for Active; 'I' for Inactive)
REMARK    1  A    between atoms: C_1  and  O_2
REMARK    2  A    between atoms: O_2  and  C_3
REMARK    3  A    between atoms: C_6  and  C_7
REMARK    4  A    between atoms: C_7  and  N_8
REMARK    5  A    between atoms: C_7  and  P_21
REMARK    6  A    between atoms: C_9  and  C_11
REMARK    7  A    between atoms: C_11  and  O_12
REMARK    8  A    between atoms: O_12  and  C_13
REMARK    9  A    between atoms: P_21  and  O_23
REMARK   10  A    between atoms: P_21  and  O_25
REMARK   11  A    between atoms: O_23  and  C_24
REMARK   12  A    between atoms: O_25  and  C_26
REMARK                            x       y       z     vdW  Elec       q    Type
REMARK                         _______ _______ _______ _____ _____    ______ ____
ROOT
ATOM      1  C   UNL     1       4.283   5.033  18.497  0.00  0.00    +0.000 C 
ENDROOT
BRANCH   1   5
ATOM      2  C   UNL     1       1.711   8.459  19.288  0.00  0.00    +0.000 A 
ATOM      3  C   UNL     1       2.352   8.345  18.058  0.00  0.00    +0.000 A 
ATOM      4  C   UNL     1       3.147   7.225  17.782  0.00  0.00    +0.000 A 
ATOM      5  C   UNL     1       3.358   6.225  18.751  0.00  0.00    +0.000 A 
ATOM      6  C   UNL     1       2.712   6.367  19.985  0.00  0.00    +0.000 A 
ATOM      7  C   UNL     1       1.911   7.479  20.251  0.00  0.00    +0.000 A 
BRANCH   2   9
ATOM      8  C   UNL     1       0.903  10.446  18.339  0.00  0.00    +0.000 C 
ATOM      9  O   UNL     1       0.957   9.586  19.477  0.00  0.00    +0.000 OA
ENDBRANCH   2   9
ENDBRANCH   1   5
BRANCH   1  10
ATOM     10  N   UNL     1       5.657   5.322  18.946  0.00  0.00    +0.000 N 
ATOM     11  C   UNL     1       6.704   5.797  18.205  0.00  0.00    +0.000 C 
ATOM     12  O   UNL     1       7.807   5.900  18.761  0.00  0.00    +0.000 OA
ATOM     13  H   UNL     1       5.891   5.129  19.910  0.00  0.00    +0.000 HD
BRANCH  11  14
ATOM     14  C   UNL     1       6.481   6.207  16.749  0.00  0.00    +0.000 C 
BRANCH  14  15
ATOM     15  O   UNL     1       7.471   5.722  15.858  0.00  0.00    +0.000 OA
BRANCH  15  16
ATOM     16  C   UNL     1       6.992   5.099  14.728  0.00  0.00    +0.000 A 
ATOM     17  C   UNL     1       5.832   4.342  14.953  0.00  0.00    +0.000 A 
ATOM     18  C   UNL     1       5.289   3.538  13.944  0.00  0.00    +0.000 A 
ATOM     19  C   UNL     1       5.901   3.491  12.699  0.00  0.00    +0.000 A 
ATOM     20 CL   UNL     1       5.294   2.443  11.477  0.00  0.00    +0.000 Cl
ATOM     21  C   UNL     1       7.029   4.263  12.442  0.00  0.00    +0.000 A 
ATOM     22  C   UNL     1       7.584   5.061  13.451  0.00  0.00    +0.000 A 
ATOM     23 CL   UNL     1       9.043   5.876  13.010  0.00  0.00    +0.000 Cl
ENDBRANCH  15  16
ENDBRANCH  14  15
ENDBRANCH  11  14
ENDBRANCH   1  10
BRANCH   1  24
ATOM     24  P   UNL     1       3.764   3.364  19.107  0.00  0.00    +0.000 P 
ATOM     25  O   UNL     1       2.688   3.330  20.154  0.00  0.00    +0.000 OA
BRANCH  24  26
ATOM     26  O   UNL     1       3.360   2.538  17.777  0.00  0.00    +0.000 OA
ATOM     27  C   UNL     1       2.525   3.209  16.850  0.00  0.00    +0.000 C 
ENDBRANCH  24  26
BRANCH  24  28
ATOM     28  O   UNL     1       5.126   2.622  19.569  0.00  0.00    +0.000 OA
ATOM     29  C   UNL     1       5.056   1.834  20.745  0.00  0.00    +0.000 C 
ENDBRANCH  24  28
ENDBRANCH   1  24
TORSDOF 9
ENDMDL
MODEL 6
REMARK VINA RESULT:      -6.9      0.940      1.833
REMARK  Name = 
REMARK  12 active torsions:
REMARK  status: ('A' for Active; 'I' for Inactive)
REMARK    1  A    between atoms: C_1  and  O_2
REMARK    2  A    between atoms: O_2  and  C_3
REMARK    3  A    between atoms: C_6  and  C_7
REMARK    4  A    between atoms: C_7  and  N_8
REMARK    5  A    between atoms: C_7  and  P_21
REMARK    6  A    between atoms: C_9  and  C_11
REMARK    7  A    between atoms: C_11  and  O_12
REMARK    8  A    between atoms: O_12  and  C_13
REMARK    9  A    between atoms: P_21  and  O_23
REMARK   10  A    between atoms: P_21  and  O_25
REMARK   11  A    between atoms: O_23  and  C_24
REMARK   12  A    between atoms: O_25  and  C_26
REMARK                            x       y       z     vdW  Elec       q    Type
REMARK                         _______ _______ _______ _____ _____    ______ ____
ROOT
ATOM      1  C   UNL     1       4.459   5.623  18.332  0.00  0.00    +0.000 C 
ENDROOT
BRANCH   1   5
ATOM      2  C   UNL     1       1.521   8.724  19.189  0.00  0.00    +0.000 A 
ATOM      3  C   UNL     1       2.190   8.724  17.969  0.00  0.00    +0.000 A 
ATOM      4  C   UNL     1       3.105   7.707  17.670  0.00  0.00    +0.000 A 
ATOM      5  C   UNL     1       3.407   6.699  18.608  0.00  0.00    +0.000 A 
ATOM      6  C   UNL     1       2.730   6.727  19.833  0.00  0.00    +0.000 A 
ATOM      7  C   UNL     1       1.810   7.737  20.121  0.00  0.00    +0.000 A 
BRANCH   2   9
ATOM      8  C   UNL     1       0.988  10.957  18.709  0.00  0.00    +0.000 C 
ATOM      9  O   UNL     1       0.648   9.756  19.401  0.00  0.00    +0.000 OA
ENDBRANCH   2   9
ENDBRANCH   1   5
BRANCH   1  10
ATOM     10  N   UNL     1       5.795   6.060  18.775  0.00  0.00    +0.000 N 
ATOM     11  C   UNL     1       7.011   5.724  18.247  0.00  0.00    +0.000 C 
ATOM     12  O   UNL     1       8.027   6.142  18.820  0.00  0.00    +0.000 OA
ATOM     13  H   UNL     1       5.852   6.663  19.585  0.00  0.00    +0.000 HD
BRANCH  11  14
ATOM     14  C   UNL     1       7.080   4.882  16.972  0.00  0.00    +0.000 C 
BRANCH  14  15
ATOM     15  O   UNL     1       7.218   5.645  15.786  0.00  0.00    +0.000 OA
BRANCH  15  16
ATOM     16  C   UNL     1       6.790   5.025  14.634  0.00  0.00    +0.000 A 
ATOM     17  C   UNL     1       5.651   4.228  14.816  0.00  0.00    +0.000 A 
ATOM     18  C   UNL     1       5.161   3.423  13.780  0.00  0.00    +0.000 A 
ATOM     19  C   UNL     1       5.808   3.415  12.551  0.00  0.00    +0.000 A 
ATOM     20 CL   UNL     1       5.270   2.367  11.298  0.00  0.00    +0.000 Cl
ATOM     21  C   UNL     1       6.917   4.227  12.338  0.00  0.00    +0.000 A 
ATOM     22  C   UNL     1       7.418   5.027  13.374  0.00  0.00    +0.000 A 
ATOM     23 CL   UNL     1       8.861   5.895  12.986  0.00  0.00    +0.000 Cl
ENDBRANCH  15  16
ENDBRANCH  14  15
ENDBRANCH  11  14
ENDBRANCH   1  10
BRANCH   1  24
ATOM     24  P   UNL     1       4.136   3.899  18.922  0.00  0.00    +0.000 P 
ATOM     25  O   UNL     1       5.193   3.268  19.783  0.00  0.00    +0.000 OA
BRANCH  24  26
ATOM     26  O   UNL     1       2.699   3.969  19.659  0.00  0.00    +0.000 OA
ATOM     27  C   UNL     1       2.612   3.348  20.929  0.00  0.00    +0.000 C 
ENDBRANCH  24  26
BRANCH  24  28
ATOM     28  O   UNL     1       3.797   3.037  17.594  0.00  0.00    +0.000 OA
ATOM     29  C   UNL     1       3.483   1.668  17.786  0.00  0.00    +0.000 C 
ENDBRANCH  24  28
ENDBRANCH   1  24
TORSDOF 9
ENDMDL
MODEL 7
REMARK VINA RESULT:      -6.9      1.339      1.724
REMARK  Name = 
REMARK  12 active torsions:
REMARK  status: ('A' for Active; 'I' for Inactive)
REMARK    1  A    between atoms: C_1  and  O_2
REMARK    2  A    between atoms: O_2  and  C_3
REMARK    3  A    between atoms: C_6  and  C_7
REMARK    4  A    between atoms: C_7  and  N_8
REMARK    5  A    between atoms: C_7  and  P_21
REMARK    6  A    between atoms: C_9  and  C_11
REMARK    7  A    between atoms: C_11  and  O_12
REMARK    8  A    between atoms: O_12  and  C_13
REMARK    9  A    between atoms: P_21  and  O_23
REMARK   10  A    between atoms: P_21  and  O_25
REMARK   11  A    between atoms: O_23  and  C_24
REMARK   12  A    between atoms: O_25  and  C_26
REMARK                            x       y       z     vdW  Elec       q    Type
REMARK                         _______ _______ _______ _____ _____    ______ ____
ROOT
ATOM      1  C   UNL     1       3.130   5.424  18.768  0.00  0.00    +0.000 C 
ENDROOT
BRANCH   1   5
ATOM      2  C   UNL     1       1.279   9.318  19.391  0.00  0.00    +0.000 A 
ATOM      3  C   UNL     1       1.394   8.429  20.456  0.00  0.00    +0.000 A 
ATOM      4  C   UNL     1       2.025   7.193  20.272  0.00  0.00    +0.000 A 
ATOM      5  C   UNL     1       2.506   6.801  19.007  0.00  0.00    +0.000 A 
ATOM      6  C   UNL     1       2.369   7.707  17.949  0.00  0.00    +0.000 A 
ATOM      7  C   UNL     1       1.749   8.943  18.140  0.00  0.00    +0.000 A 
BRANCH   2   9
ATOM      8  C   UNL     1      -0.764  10.470  19.430  0.00  0.00    +0.000 C 
ATOM      9  O   UNL     1       0.645  10.502  19.655  0.00  0.00    +0.000 OA
ENDBRANCH   2   9
ENDBRANCH   1   5
BRANCH   1  10
ATOM     10  N   UNL     1       4.389   5.273  19.519  0.00  0.00    +0.000 N 
ATOM     11  C   UNL     1       5.666   5.484  19.076  0.00  0.00    +0.000 C 
ATOM     12  O   UNL     1       6.598   5.224  19.850  0.00  0.00    +0.000 OA
ATOM     13  H   UNL     1       4.335   4.948  20.475  0.00  0.00    +0.000 HD
BRANCH  11  14
ATOM     14  C   UNL     1       5.900   6.051  17.675  0.00  0.00    +0.000 C 
BRANCH  14  15
ATOM     15  O   UNL     1       7.088   5.584  17.058  0.00  0.00    +0.000 OA
BRANCH  15  16
ATOM     16  C   UNL     1       6.915   4.965  15.840  0.00  0.00    +0.000 A 
ATOM     17  C   UNL     1       7.754   5.465  14.833  0.00  0.00    +0.000 A 
ATOM     18  C   UNL     1       7.617   5.042  13.505  0.00  0.00    +0.000 A 
ATOM     19  C   UNL     1       6.640   4.111  13.178  0.00  0.00    +0.000 A 
ATOM     20 CL   UNL     1       6.404   3.647  11.539  0.00  0.00    +0.000 Cl
ATOM     21  C   UNL     1       5.823   3.575  14.168  0.00  0.00    +0.000 A 
ATOM     22  C   UNL     1       5.948   4.001  15.496  0.00  0.00    +0.000 A 
ATOM     23 CL   UNL     1       4.792   3.323  16.588  0.00  0.00    +0.000 Cl
ENDBRANCH  15  16
ENDBRANCH  14  15
ENDBRANCH  11  14
ENDBRANCH   1  10
BRANCH   1  24
ATOM     24  P   UNL     1       2.074   3.922  19.007  0.00  0.00    +0.000 P 
ATOM     25  O   UNL     1       1.211   3.509  17.850  0.00  0.00    +0.000 OA
BRANCH  24  26
ATOM     26  O   UNL     1       3.098   2.757  19.463  0.00  0.00    +0.000 OA
ATOM     27  C   UNL     1       3.125   1.593  18.657  0.00  0.00    +0.000 C 
ENDBRANCH  24  26
BRANCH  24  28
ATOM     28  O   UNL     1       1.234   4.189  20.366  0.00  0.00    +0.000 OA
ATOM     29  C   UNL     1       1.501   3.327  21.460  0.00  0.00    +0.000 C 
ENDBRANCH  24  28
ENDBRANCH   1  24
TORSDOF 9
ENDMDL
MODEL 8
REMARK VINA RESULT:      -6.7      3.969      6.649
REMARK  Name = 
REMARK  12 active torsions:
REMARK  status: ('A' for Active; 'I' for Inactive)
REMARK    1  A    between atoms: C_1  and  O_2
REMARK    2  A    between atoms: O_2  and  C_3
REMARK    3  A    between atoms: C_6  and  C_7
REMARK    4  A    between atoms: C_7  and  N_8
REMARK    5  A    between atoms: C_7  and  P_21
REMARK    6  A    between atoms: C_9  and  C_11
REMARK    7  A    between atoms: C_11  and  O_12
REMARK    8  A    between atoms: O_12  and  C_13
REMARK    9  A    between atoms: P_21  and  O_23
REMARK   10  A    between atoms: P_21  and  O_25
REMARK   11  A    between atoms: O_23  and  C_24
REMARK   12  A    between atoms: O_25  and  C_26
REMARK                            x       y       z     vdW  Elec       q    Type
REMARK                         _______ _______ _______ _____ _____    ______ ____
ROOT
ATOM      1  C   UNL     1      -0.104  10.329  19.474  0.00  0.00    +0.000 C 
ENDROOT
BRANCH   1   5
ATOM      2  C   UNL     1      -4.086  11.204  17.936  0.00  0.00    +0.000 A 
ATOM      3  C   UNL     1      -3.519  12.033  18.901  0.00  0.00    +0.000 A 
ATOM      4  C   UNL     1      -2.223  11.781  19.369  0.00  0.00    +0.000 A 
ATOM      5  C   UNL     1      -1.490  10.665  18.919  0.00  0.00    +0.000 A 
ATOM      6  C   UNL     1      -2.085   9.839  17.957  0.00  0.00    +0.000 A 
ATOM      7  C   UNL     1      -3.373  10.101  17.486  0.00  0.00    +0.000 A 
BRANCH   2   9
ATOM      8  C   UNL     1      -6.380  10.923  18.334  0.00  0.00    +0.000 C 
ATOM      9  O   UNL     1      -5.356  11.519  17.538  0.00  0.00    +0.000 OA
ENDBRANCH   2   9
ENDBRANCH   1   5
BRANCH   1  10
ATOM     10  N   UNL     1       0.960  10.845  18.594  0.00  0.00    +0.000 N 
ATOM     11  C   UNL     1       1.951  10.142  17.966  0.00  0.00    +0.000 C 
ATOM     12  O   UNL     1       2.799  10.781  17.327  0.00  0.00    +0.000 OA
ATOM     13  H   UNL     1       1.005  11.843  18.440  0.00  0.00    +0.000 HD
BRANCH  11  14
ATOM     14  C   UNL     1       1.966   8.614  18.044  0.00  0.00    +0.000 C 
BRANCH  14  15
ATOM     15  O   UNL     1       3.258   8.046  17.919  0.00  0.00    +0.000 OA
BRANCH  15  16
ATOM     16  C   UNL     1       3.285   6.685  17.714  0.00  0.00    +0.000 A 
ATOM     17  C   UNL     1       2.136   6.025  18.175  0.00  0.00    +0.000 A 
ATOM     18  C   UNL     1       2.055   4.627  18.167  0.00  0.00    +0.000 A 
ATOM     19  C   UNL     1       3.125   3.880  17.691  0.00  0.00    +0.000 A 
ATOM     20 CL   UNL     1       3.073   2.162  17.753  0.00  0.00    +0.000 Cl
ATOM     21  C   UNL     1       4.257   4.515  17.194  0.00  0.00    +0.000 A 
ATOM     22  C   UNL     1       4.349   5.913  17.209  0.00  0.00    +0.000 A 
ATOM     23 CL   UNL     1       5.860   6.547  16.659  0.00  0.00    +0.000 Cl
ENDBRANCH  15  16
ENDBRANCH  14  15
ENDBRANCH  11  14
ENDBRANCH   1  10
BRANCH   1  24
ATOM     24  P   UNL     1       0.273  10.761  21.234  0.00  0.00    +0.000 P 
ATOM     25  O   UNL     1       0.691  12.177  21.509  0.00  0.00    +0.000 OA
BRANCH  24  26
ATOM     26  O   UNL     1      -1.047  10.333  22.063  0.00  0.00    +0.000 OA
ATOM     27  C   UNL     1      -1.462  11.222  23.086  0.00  0.00    +0.000 C 
ENDBRANCH  24  26
BRANCH  24  28
ATOM     28  O   UNL     1       1.358   9.668  21.731  0.00  0.00    +0.000 OA
ATOM     29  C   UNL     1       1.074   8.309  21.440  0.00  0.00    +0.000 C 
ENDBRANCH  24  28
ENDBRANCH   1  24
TORSDOF 9
ENDMDL
MODEL 9
REMARK VINA RESULT:      -6.6      4.636      7.682
REMARK  Name = 
REMARK  12 active torsions:
REMARK  status: ('A' for Active; 'I' for Inactive)
REMARK    1  A    between atoms: C_1  and  O_2
REMARK    2  A    between atoms: O_2  and  C_3
REMARK    3  A    between atoms: C_6  and  C_7
REMARK    4  A    between atoms: C_7  and  N_8
REMARK    5  A    between atoms: C_7  and  P_21
REMARK    6  A    between atoms: C_9  and  C_11
REMARK    7  A    between atoms: C_11  and  O_12
REMARK    8  A    between atoms: O_12  and  C_13
REMARK    9  A    between atoms: P_21  and  O_23
REMARK   10  A    between atoms: P_21  and  O_25
REMARK   11  A    between atoms: O_23  and  C_24
REMARK   12  A    between atoms: O_25  and  C_26
REMARK                            x       y       z     vdW  Elec       q    Type
REMARK                         _______ _______ _______ _____ _____    ______ ____
ROOT
ATOM      1  C   UNL     1       0.407  11.205  19.011  0.00  0.00    +0.000 C 
ENDROOT
BRANCH   1   5
ATOM      2  C   UNL     1      -3.869  11.134  18.176  0.00  0.00    +0.000 A 
ATOM      3  C   UNL     1      -3.000  10.370  17.401  0.00  0.00    +0.000 A 
ATOM      4  C   UNL     1      -1.630  10.356  17.691  0.00  0.00    +0.000 A 
ATOM      5  C   UNL     1      -1.096  11.146  18.728  0.00  0.00    +0.000 A 
ATOM      6  C   UNL     1      -1.988  11.916  19.485  0.00  0.00    +0.000 A 
ATOM      7  C   UNL     1      -3.354  11.917  19.200  0.00  0.00    +0.000 A 
BRANCH   2   9
ATOM      8  C   UNL     1      -5.624  12.224  17.067  0.00  0.00    +0.000 C 
ATOM      9  O   UNL     1      -5.190  11.094  17.822  0.00  0.00    +0.000 OA
ENDBRANCH   2   9
ENDBRANCH   1   5
BRANCH   1  10
ATOM     10  N   UNL     1       1.168  10.443  18.003  0.00  0.00    +0.000 N 
ATOM     11  C   UNL     1       1.778   9.228  18.148  0.00  0.00    +0.000 C 
ATOM     12  O   UNL     1       2.436   8.793  17.193  0.00  0.00    +0.000 OA
ATOM     13  H   UNL     1       1.293  10.859  17.091  0.00  0.00    +0.000 HD
BRANCH  11  14
ATOM     14  C   UNL     1       1.609   8.442  19.450  0.00  0.00    +0.000 C 
BRANCH  14  15
ATOM     15  O   UNL     1       2.671   7.544  19.720  0.00  0.00    +0.000 OA
BRANCH  15  16
ATOM     16  C   UNL     1       2.402   6.219  19.458  0.00  0.00    +0.000 A 
ATOM     17  C   UNL     1       1.537   5.627  20.389  0.00  0.00    +0.000 A 
ATOM     18  C   UNL     1       1.265   4.255  20.350  0.00  0.00    +0.000 A 
ATOM     19  C   UNL     1       1.854   3.465  19.371  0.00  0.00    +0.000 A 
ATOM     20 CL   UNL     1       1.596   1.765  19.362  0.00  0.00    +0.000 Cl
ATOM     21  C   UNL     1       2.685   4.038  18.415  0.00  0.00    +0.000 A 
ATOM     22  C   UNL     1       2.970   5.409  18.456  0.00  0.00    +0.000 A 
ATOM     23 CL   UNL     1       4.102   5.950  17.266  0.00  0.00    +0.000 Cl
ENDBRANCH  15  16
ENDBRANCH  14  15
ENDBRANCH  11  14
ENDBRANCH   1  10
BRANCH   1  24
ATOM     24  P   UNL     1       1.194  12.859  19.271  0.00  0.00    +0.000 P 
ATOM     25  O   UNL     1       1.295  13.347  20.688  0.00  0.00    +0.000 OA
BRANCH  24  26
ATOM     26  O   UNL     1       2.636  12.758  18.548  0.00  0.00    +0.000 OA
ATOM     27  C   UNL     1       3.379  13.960  18.456  0.00  0.00    +0.000 C 
ENDBRANCH  24  26
BRANCH  24  28
ATOM     28  O   UNL     1       0.397  13.882  18.301  0.00  0.00    +0.000 OA
ATOM     29  C   UNL     1      -0.117  15.060  18.901  0.00  0.00    +0.000 C 
ENDBRANCH  24  28
ENDBRANCH   1  24
TORSDOF 9
ENDMDL
