MODEL 1
REMARK VINA RESULT:      -6.8      0.000      0.000
REMARK  Name = 
REMARK  15 active torsions:
REMARK  status: ('A' for Active; 'I' for Inactive)
REMARK    1  A    between atoms: C_1  and  C_2
REMARK    2  A    between atoms: C_2  and  C_3
REMARK    3  A    between atoms: C_3  and  C_4
REMARK    4  A    between atoms: C_4  and  C_5
REMARK    5  A    between atoms: C_9  and  C_10
REMARK    6  A    between atoms: N_12  and  C_13
REMARK    7  A    between atoms: N_12  and  C_14
REMARK    8  A    between atoms: C_14  and  C_15
REMARK    9  A    between atoms: C_15  and  C_16
REMARK   10  A    between atoms: C_23  and  O_24
REMARK   11  A    between atoms: C_25  and  C_26
REMARK   12  A    between atoms: C_27  and  O_28
REMARK   13  A    between atoms: O_28  and  C_29
REMARK   14  A    between atoms: C_33  and  O_34
REMARK   15  A    between atoms: O_34  and  C_35
REMARK                            x       y       z     vdW  Elec       q    Type
REMARK                         _______ _______ _______ _____ _____    ______ ____
ROOT
ATOM      1  C   UNL     1      -3.277  12.643  22.873  0.00  0.00    +0.000 A 
ATOM      2  N   UNL     1      -2.246  11.925  23.438  0.00  0.00    +0.000 N 
ATOM      3  C   UNL     1      -1.184  11.390  22.762  0.00  0.00    +0.000 A 
ATOM      4  O   UNL     1      -0.261  10.874  23.385  0.00  0.00    +0.000 OA
ATOM      5  C   UNL     1      -1.213  11.483  21.277  0.00  0.00    +0.000 A 
ATOM      6  C   UNL     1      -2.140  12.323  20.748  0.00  0.00    +0.000 A 
ATOM      7  C   UNL     1      -3.284  12.859  21.534  0.00  0.00    +0.000 A 
ATOM      8  H   UNL     1      -2.211  11.805  24.445  0.00  0.00    +0.000 HD
ENDROOT
BRANCH   7   9
ATOM      9  C   UNL     1      -4.482  13.524  20.924  0.00  0.00    +0.000 A 
ATOM     10  C   UNL     1      -4.417  14.921  20.610  0.00  0.00    +0.000 A 
ATOM     11  C   UNL     1      -5.554  15.606  20.139  0.00  0.00    +0.000 A 
ATOM     12  C   UNL     1      -6.773  14.956  20.020  0.00  0.00    +0.000 A 
ATOM     13  C   UNL     1      -6.859  13.614  20.351  0.00  0.00    +0.000 A 
ATOM     14  C   UNL     1      -5.743  12.884  20.791  0.00  0.00    +0.000 A 
BRANCH  10  15
ATOM     15  O   UNL     1      -3.220  15.564  20.830  0.00  0.00    +0.000 OA
ATOM     16  C   UNL     1      -3.312  16.927  21.266  0.00  0.00    +0.000 C 
ENDBRANCH  10  15
BRANCH  14  17
ATOM     17  O   UNL     1      -6.130  11.617  21.133  0.00  0.00    +0.000 OA
ATOM     18  C   UNL     1      -7.299  11.040  20.583  0.00  0.00    +0.000 C 
ENDBRANCH  14  17
ENDBRANCH   7   9
BRANCH   5  19
ATOM     19  C   UNL     1      -0.195  10.812  20.390  0.00  0.00    +0.000 C 
ATOM     20  O   UNL     1       0.362  11.516  19.538  0.00  0.00    +0.000 OA
ATOM     21  N   UNL     1       0.056   9.431  20.463  0.00  0.00    +0.000 N 
ATOM     22  C   UNL     1      -0.611   8.506  21.379  0.00  0.00    +0.000 C 
BRANCH  21  23
ATOM     23  C   UNL     1       1.245   8.901  19.742  0.00  0.00    +0.000 C 
BRANCH  23  24
ATOM     24  C   UNL     1       2.002   7.761  20.463  0.00  0.00    +0.000 C 
BRANCH  24  25
ATOM     25  C   UNL     1       1.971   6.400  19.798  0.00  0.00    +0.000 A 
ATOM     26  C   UNL     1       2.412   6.255  18.471  0.00  0.00    +0.000 A 
ATOM     27  C   UNL     1       2.483   4.990  17.874  0.00  0.00    +0.000 A 
ATOM     28  C   UNL     1       2.115   3.865  18.601  0.00  0.00    +0.000 A 
ATOM     29 CL   UNL     1       2.225   2.306  17.879  0.00  0.00    +0.000 Cl
ATOM     30  C   UNL     1       1.674   3.991  19.916  0.00  0.00    +0.000 A 
ATOM     31  C   UNL     1       1.603   5.255  20.514  0.00  0.00    +0.000 A 
ENDBRANCH  24  25
ENDBRANCH  23  24
ENDBRANCH  21  23
ENDBRANCH   5  19
BRANCH   6  32
ATOM     32  O   UNL     1      -2.130  12.730  19.424  0.00  0.00    +0.000 OA
ATOM     33  H   UNL     1      -2.104  13.712  19.414  0.00  0.00    +0.000 HD
ENDBRANCH   6  32
BRANCH   1  34
ATOM     34  C   UNL     1      -4.306  13.156  23.862  0.00  0.00    +0.000 C 
BRANCH  34  35
ATOM     35  C   UNL     1      -4.036  14.590  24.325  0.00  0.00    +0.000 C 
BRANCH  35  37
ATOM     36  C   UNL     1      -5.059  16.859  24.696  0.00  0.00    +0.000 C 
ATOM     37  C   UNL     1      -5.249  15.484  24.076  0.00  0.00    +0.000 C 
ENDBRANCH  35  37
ENDBRANCH  34  35
ENDBRANCH   1  34
TORSDOF 11
ENDMDL
MODEL 2
REMARK VINA RESULT:      -6.6      2.418      3.804
REMARK  Name = 
REMARK  15 active torsions:
REMARK  status: ('A' for Active; 'I' for Inactive)
REMARK    1  A    between atoms: C_1  and  C_2
REMARK    2  A    between atoms: C_2  and  C_3
REMARK    3  A    between atoms: C_3  and  C_4
REMARK    4  A    between atoms: C_4  and  C_5
REMARK    5  A    between atoms: C_9  and  C_10
REMARK    6  A    between atoms: N_12  and  C_13
REMARK    7  A    between atoms: N_12  and  C_14
REMARK    8  A    between atoms: C_14  and  C_15
REMARK    9  A    between atoms: C_15  and  C_16
REMARK   10  A    between atoms: C_23  and  O_24
REMARK   11  A    between atoms: C_25  and  C_26
REMARK   12  A    between atoms: C_27  and  O_28
REMARK   13  A    between atoms: O_28  and  C_29
REMARK   14  A    between atoms: C_33  and  O_34
REMARK   15  A    between atoms: O_34  and  C_35
REMARK                            x       y       z     vdW  Elec       q    Type
REMARK                         _______ _______ _______ _____ _____    ______ ____
ROOT
ATOM      1  C   UNL     1      -0.658  13.549  19.497  0.00  0.00    +0.000 A 
ATOM      2  N   UNL     1       0.666  13.437  19.130  0.00  0.00    +0.000 N 
ATOM      3  C   UNL     1       1.312  12.272  18.823  0.00  0.00    +0.000 A 
ATOM      4  O   UNL     1       2.460  12.305  18.391  0.00  0.00    +0.000 OA
ATOM      5  C   UNL     1       0.555  11.007  19.026  0.00  0.00    +0.000 A 
ATOM      6  C   UNL     1      -0.782  11.136  19.230  0.00  0.00    +0.000 A 
ATOM      7  C   UNL     1      -1.423  12.432  19.579  0.00  0.00    +0.000 A 
ATOM      8  H   UNL     1       1.228  14.275  19.019  0.00  0.00    +0.000 HD
ENDROOT
BRANCH   7   9
ATOM      9  C   UNL     1      -2.820  12.561  20.110  0.00  0.00    +0.000 A 
ATOM     10  C   UNL     1      -3.014  12.758  21.516  0.00  0.00    +0.000 A 
ATOM     11  C   UNL     1      -4.310  12.774  22.067  0.00  0.00    +0.000 A 
ATOM     12  C   UNL     1      -5.422  12.547  21.270  0.00  0.00    +0.000 A 
ATOM     13  C   UNL     1      -5.248  12.323  19.915  0.00  0.00    +0.000 A 
ATOM     14  C   UNL     1      -3.976  12.334  19.317  0.00  0.00    +0.000 A 
BRANCH  10  15
ATOM     15  O   UNL     1      -1.889  12.882  22.299  0.00  0.00    +0.000 OA
ATOM     16  C   UNL     1      -1.567  11.750  23.117  0.00  0.00    +0.000 C 
ENDBRANCH  10  15
BRANCH  14  17
ATOM     17  O   UNL     1      -4.089  11.995  17.996  0.00  0.00    +0.000 OA
ATOM     18  C   UNL     1      -5.354  11.750  17.413  0.00  0.00    +0.000 C 
ENDBRANCH  14  17
ENDBRANCH   7   9
BRANCH   5  19
ATOM     19  C   UNL     1       1.176   9.642  18.876  0.00  0.00    +0.000 C 
ATOM     20  O   UNL     1       1.508   9.295  17.735  0.00  0.00    +0.000 OA
ATOM     21  N   UNL     1       1.299   8.760  19.963  0.00  0.00    +0.000 N 
ATOM     22  C   UNL     1       0.862   9.048  21.329  0.00  0.00    +0.000 C 
BRANCH  21  23
ATOM     23  C   UNL     1       2.148   7.550  19.785  0.00  0.00    +0.000 C 
BRANCH  23  24
ATOM     24  C   UNL     1       1.703   6.305  20.589  0.00  0.00    +0.000 C 
BRANCH  24  25
ATOM     25  C   UNL     1       2.234   4.968  20.115  0.00  0.00    +0.000 A 
ATOM     26  C   UNL     1       1.343   3.916  19.837  0.00  0.00    +0.000 A 
ATOM     27  C   UNL     1       1.808   2.707  19.304  0.00  0.00    +0.000 A 
ATOM     28  C   UNL     1       3.163   2.545  19.044  0.00  0.00    +0.000 A 
ATOM     29 CL   UNL     1       3.734   1.069  18.366  0.00  0.00    +0.000 Cl
ATOM     30  C   UNL     1       4.059   3.576  19.317  0.00  0.00    +0.000 A 
ATOM     31  C   UNL     1       3.597   4.785  19.849  0.00  0.00    +0.000 A 
ENDBRANCH  24  25
ENDBRANCH  23  24
ENDBRANCH  21  23
ENDBRANCH   5  19
BRANCH   6  32
ATOM     32  O   UNL     1      -1.667  10.072  19.171  0.00  0.00    +0.000 OA
ATOM     33  H   UNL     1      -2.471  10.324  19.677  0.00  0.00    +0.000 HD
ENDBRANCH   6  32
BRANCH   1  34
ATOM     34  C   UNL     1      -1.126  14.970  19.744  0.00  0.00    +0.000 C 
BRANCH  34  35
ATOM     35  C   UNL     1       0.009  15.996  19.699  0.00  0.00    +0.000 C 
BRANCH  35  37
ATOM     36  C   UNL     1      -0.023  17.606  17.765  0.00  0.00    +0.000 C 
ATOM     37  C   UNL     1      -0.492  17.345  19.187  0.00  0.00    +0.000 C 
ENDBRANCH  35  37
ENDBRANCH  34  35
ENDBRANCH   1  34
TORSDOF 11
ENDMDL
MODEL 3
REMARK VINA RESULT:      -6.6      2.043      4.300
REMARK  Name = 
REMARK  15 active torsions:
REMARK  status: ('A' for Active; 'I' for Inactive)
REMARK    1  A    between atoms: C_1  and  C_2
REMARK    2  A    between atoms: C_2  and  C_3
REMARK    3  A    between atoms: C_3  and  C_4
REMARK    4  A    between atoms: C_4  and  C_5
REMARK    5  A    between atoms: C_9  and  C_10
REMARK    6  A    between atoms: N_12  and  C_13
REMARK    7  A    between atoms: N_12  and  C_14
REMARK    8  A    between atoms: C_14  and  C_15
REMARK    9  A    between atoms: C_15  and  C_16
REMARK   10  A    between atoms: C_23  and  O_24
REMARK   11  A    between atoms: C_25  and  C_26
REMARK   12  A    between atoms: C_27  and  O_28
REMARK   13  A    between atoms: O_28  and  C_29
REMARK   14  A    between atoms: C_33  and  O_34
REMARK   15  A    between atoms: O_34  and  C_35
REMARK                            x       y       z     vdW  Elec       q    Type
REMARK                         _______ _______ _______ _____ _____    ______ ____
ROOT
ATOM      1  C   UNL     1      -2.340  12.690  20.531  0.00  0.00    +0.000 A 
ATOM      2  N   UNL     1      -2.312  11.810  19.471  0.00  0.00    +0.000 N 
ATOM      3  C   UNL     1      -1.568  10.664  19.407  0.00  0.00    +0.000 A 
ATOM      4  O   UNL     1      -1.715   9.893  18.464  0.00  0.00    +0.000 OA
ATOM      5  C   UNL     1      -0.614  10.415  20.522  0.00  0.00    +0.000 A 
ATOM      6  C   UNL     1      -0.766  11.195  21.624  0.00  0.00    +0.000 A 
ATOM      7  C   UNL     1      -1.577  12.441  21.624  0.00  0.00    +0.000 A 
ATOM      8  H   UNL     1      -2.919  11.966  18.674  0.00  0.00    +0.000 HD
ENDROOT
BRANCH   7   9
ATOM      9  C   UNL     1      -1.520  13.479  22.706  0.00  0.00    +0.000 A 
ATOM     10  C   UNL     1      -2.479  13.429  23.769  0.00  0.00    +0.000 A 
ATOM     11  C   UNL     1      -2.528  14.446  24.742  0.00  0.00    +0.000 A 
ATOM     12  C   UNL     1      -1.685  15.544  24.661  0.00  0.00    +0.000 A 
ATOM     13  C   UNL     1      -0.774  15.623  23.621  0.00  0.00    +0.000 A 
ATOM     14  C   UNL     1      -0.667  14.614  22.649  0.00  0.00    +0.000 A 
BRANCH  10  15
ATOM     15  O   UNL     1      -3.369  12.379  23.769  0.00  0.00    +0.000 OA
ATOM     16  C   UNL     1      -4.388  12.422  24.776  0.00  0.00    +0.000 C 
ENDBRANCH  10  15
BRANCH  14  17
ATOM     17  O   UNL     1       0.240  14.991  21.697  0.00  0.00    +0.000 OA
ATOM     18  C   UNL     1       1.564  14.493  21.714  0.00  0.00    +0.000 C 
ENDBRANCH  14  17
ENDBRANCH   7   9
BRANCH   5  19
ATOM     19  C   UNL     1       0.376   9.279  20.520  0.00  0.00    +0.000 C 
ATOM     20  O   UNL     1       0.307   8.468  21.453  0.00  0.00    +0.000 OA
ATOM     21  N   UNL     1       1.393   9.184  19.554  0.00  0.00    +0.000 N 
ATOM     22  C   UNL     1       1.605  10.137  18.465  0.00  0.00    +0.000 C 
BRANCH  21  23
ATOM     23  C   UNL     1       2.157   7.909  19.472  0.00  0.00    +0.000 C 
BRANCH  23  24
ATOM     24  C   UNL     1       2.400   7.374  18.040  0.00  0.00    +0.000 C 
BRANCH  24  25
ATOM     25  C   UNL     1       2.690   5.893  17.912  0.00  0.00    +0.000 A 
ATOM     26  C   UNL     1       3.984   5.455  17.582  0.00  0.00    +0.000 A 
ATOM     27  C   UNL     1       4.293   4.088  17.556  0.00  0.00    +0.000 A 
ATOM     28  C   UNL     1       3.310   3.155  17.862  0.00  0.00    +0.000 A 
ATOM     29 CL   UNL     1       3.693   1.477  17.857  0.00  0.00    +0.000 Cl
ATOM     30  C   UNL     1       2.022   3.572  18.189  0.00  0.00    +0.000 A 
ATOM     31  C   UNL     1       1.712   4.937  18.216  0.00  0.00    +0.000 A 
ENDBRANCH  24  25
ENDBRANCH  23  24
ENDBRANCH  21  23
ENDBRANCH   5  19
BRANCH   6  32
ATOM     32  O   UNL     1      -0.152  10.925  22.836  0.00  0.00    +0.000 OA
ATOM     33  H   UNL     1       0.225  11.769  23.173  0.00  0.00    +0.000 HD
ENDBRANCH   6  32
BRANCH   1  34
ATOM     34  C   UNL     1      -3.286  13.862  20.353  0.00  0.00    +0.000 C 
BRANCH  34  35
ATOM     35  C   UNL     1      -4.728  13.540  20.754  0.00  0.00    +0.000 C 
BRANCH  35  37
ATOM     36  C   UNL     1      -6.691  12.333  19.743  0.00  0.00    +0.000 C 
ATOM     37  C   UNL     1      -5.618  13.388  19.522  0.00  0.00    +0.000 C 
ENDBRANCH  35  37
ENDBRANCH  34  35
ENDBRANCH   1  34
TORSDOF 11
ENDMDL
MODEL 4
REMARK VINA RESULT:      -6.6      0.675      1.142
REMARK  Name = 
REMARK  15 active torsions:
REMARK  status: ('A' for Active; 'I' for Inactive)
REMARK    1  A    between atoms: C_1  and  C_2
REMARK    2  A    between atoms: C_2  and  C_3
REMARK    3  A    between atoms: C_3  and  C_4
REMARK    4  A    between atoms: C_4  and  C_5
REMARK    5  A    between atoms: C_9  and  C_10
REMARK    6  A    between atoms: N_12  and  C_13
REMARK    7  A    between atoms: N_12  and  C_14
REMARK    8  A    between atoms: C_14  and  C_15
REMARK    9  A    between atoms: C_15  and  C_16
REMARK   10  A    between atoms: C_23  and  O_24
REMARK   11  A    between atoms: C_25  and  C_26
REMARK   12  A    between atoms: C_27  and  O_28
REMARK   13  A    between atoms: O_28  and  C_29
REMARK   14  A    between atoms: C_33  and  O_34
REMARK   15  A    between atoms: O_34  and  C_35
REMARK                            x       y       z     vdW  Elec       q    Type
REMARK                         _______ _______ _______ _____ _____    ______ ____
ROOT
ATOM      1  C   UNL     1      -3.289  12.624  22.916  0.00  0.00    +0.000 A 
ATOM      2  N   UNL     1      -2.272  11.884  23.476  0.00  0.00    +0.000 N 
ATOM      3  C   UNL     1      -1.208  11.352  22.801  0.00  0.00    +0.000 A 
ATOM      4  O   UNL     1      -0.297  10.814  23.423  0.00  0.00    +0.000 OA
ATOM      5  C   UNL     1      -1.218  11.478  21.319  0.00  0.00    +0.000 A 
ATOM      6  C   UNL     1      -2.131  12.339  20.798  0.00  0.00    +0.000 A 
ATOM      7  C   UNL     1      -3.278  12.869  21.582  0.00  0.00    +0.000 A 
ATOM      8  H   UNL     1      -2.250  11.741  24.481  0.00  0.00    +0.000 HD
ENDROOT
BRANCH   7   9
ATOM      9  C   UNL     1      -4.462  13.560  20.973  0.00  0.00    +0.000 A 
ATOM     10  C   UNL     1      -4.462  14.990  20.882  0.00  0.00    +0.000 A 
ATOM     11  C   UNL     1      -5.598  15.682  20.419  0.00  0.00    +0.000 A 
ATOM     12  C   UNL     1      -6.759  14.997  20.092  0.00  0.00    +0.000 A 
ATOM     13  C   UNL     1      -6.786  13.617  20.206  0.00  0.00    +0.000 A 
ATOM     14  C   UNL     1      -5.664  12.885  20.630  0.00  0.00    +0.000 A 
BRANCH  10  15
ATOM     15  O   UNL     1      -3.332  15.651  21.306  0.00  0.00    +0.000 OA
ATOM     16  C   UNL     1      -2.611  16.371  20.297  0.00  0.00    +0.000 C 
ENDBRANCH  10  15
BRANCH  14  17
ATOM     17  O   UNL     1      -5.996  11.562  20.739  0.00  0.00    +0.000 OA
ATOM     18  C   UNL     1      -7.012  10.998  19.933  0.00  0.00    +0.000 C 
ENDBRANCH  14  17
ENDBRANCH   7   9
BRANCH   5  19
ATOM     19  C   UNL     1      -0.197  10.817  20.428  0.00  0.00    +0.000 C 
ATOM     20  O   UNL     1       0.407  11.542  19.627  0.00  0.00    +0.000 OA
ATOM     21  N   UNL     1       0.006   9.426  20.440  0.00  0.00    +0.000 N 
ATOM     22  C   UNL     1      -0.717   8.481  21.291  0.00  0.00    +0.000 C 
BRANCH  21  23
ATOM     23  C   UNL     1       1.198   8.892  19.727  0.00  0.00    +0.000 C 
BRANCH  23  24
ATOM     24  C   UNL     1       2.008   7.824  20.500  0.00  0.00    +0.000 C 
BRANCH  24  25
ATOM     25  C   UNL     1       2.119   6.458  19.853  0.00  0.00    +0.000 A 
ATOM     26  C   UNL     1       1.723   5.311  20.561  0.00  0.00    +0.000 A 
ATOM     27  C   UNL     1       1.726   4.052  19.944  0.00  0.00    +0.000 A 
ATOM     28  C   UNL     1       2.121   3.938  18.618  0.00  0.00    +0.000 A 
ATOM     29 CL   UNL     1       2.101   2.398  17.849  0.00  0.00    +0.000 Cl
ATOM     30  C   UNL     1       2.518   5.065  17.902  0.00  0.00    +0.000 A 
ATOM     31  C   UNL     1       2.516   6.323  18.517  0.00  0.00    +0.000 A 
ENDBRANCH  24  25
ENDBRANCH  23  24
ENDBRANCH  21  23
ENDBRANCH   5  19
BRANCH   6  32
ATOM     32  O   UNL     1      -2.102  12.775  19.483  0.00  0.00    +0.000 OA
ATOM     33  H   UNL     1      -3.015  12.704  19.126  0.00  0.00    +0.000 HD
ENDBRANCH   6  32
BRANCH   1  34
ATOM     34  C   UNL     1      -4.324  13.125  23.905  0.00  0.00    +0.000 C 
BRANCH  34  35
ATOM     35  C   UNL     1      -3.707  13.765  25.151  0.00  0.00    +0.000 C 
BRANCH  35  37
ATOM     36  C   UNL     1      -1.916  15.461  25.649  0.00  0.00    +0.000 C 
ATOM     37  C   UNL     1      -3.169  15.161  24.842  0.00  0.00    +0.000 C 
ENDBRANCH  35  37
ENDBRANCH  34  35
ENDBRANCH   1  34
TORSDOF 11
ENDMDL
MODEL 5
REMARK VINA RESULT:      -6.5      5.545      8.285
REMARK  Name = 
REMARK  15 active torsions:
REMARK  status: ('A' for Active; 'I' for Inactive)
REMARK    1  A    between atoms: C_1  and  C_2
REMARK    2  A    between atoms: C_2  and  C_3
REMARK    3  A    between atoms: C_3  and  C_4
REMARK    4  A    between atoms: C_4  and  C_5
REMARK    5  A    between atoms: C_9  and  C_10
REMARK    6  A    between atoms: N_12  and  C_13
REMARK    7  A    between atoms: N_12  and  C_14
REMARK    8  A    between atoms: C_14  and  C_15
REMARK    9  A    between atoms: C_15  and  C_16
REMARK   10  A    between atoms: C_23  and  O_24
REMARK   11  A    between atoms: C_25  and  C_26
REMARK   12  A    between atoms: C_27  and  O_28
REMARK   13  A    between atoms: O_28  and  C_29
REMARK   14  A    between atoms: C_33  and  O_34
REMARK   15  A    between atoms: O_34  and  C_35
REMARK                            x       y       z     vdW  Elec       q    Type
REMARK                         _______ _______ _______ _____ _____    ______ ____
ROOT
ATOM      1  C   UNL     1      -0.841  12.777  19.170  0.00  0.00    +0.000 A 
ATOM      2  N   UNL     1      -1.020  14.081  18.764  0.00  0.00    +0.000 N 
ATOM      3  C   UNL     1      -0.104  15.089  18.894  0.00  0.00    +0.000 A 
ATOM      4  O   UNL     1      -0.324  16.184  18.386  0.00  0.00    +0.000 OA
ATOM      5  C   UNL     1       1.139  14.777  19.650  0.00  0.00    +0.000 A 
ATOM      6  C   UNL     1       1.373  13.463  19.901  0.00  0.00    +0.000 A 
ATOM      7  C   UNL     1       0.327  12.416  19.757  0.00  0.00    +0.000 A 
ATOM      8  H   UNL     1      -1.871  14.343  18.279  0.00  0.00    +0.000 HD
ENDROOT
BRANCH   7   9
ATOM      9  C   UNL     1       0.448  11.028  20.312  0.00  0.00    +0.000 A 
ATOM     10  C   UNL     1       0.159  10.804  21.697  0.00  0.00    +0.000 A 
ATOM     11  C   UNL     1       0.366   9.539  22.280  0.00  0.00    +0.000 A 
ATOM     12  C   UNL     1       0.904   8.497  21.539  0.00  0.00    +0.000 A 
ATOM     13  C   UNL     1       1.219   8.707  20.207  0.00  0.00    +0.000 A 
ATOM     14  C   UNL     1       0.996   9.943  19.576  0.00  0.00    +0.000 A 
BRANCH  10  15
ATOM     15  O   UNL     1      -0.281  11.881  22.434  0.00  0.00    +0.000 OA
ATOM     16  C   UNL     1      -1.623  11.795  22.928  0.00  0.00    +0.000 C 
ENDBRANCH  10  15
BRANCH  14  17
ATOM     17  O   UNL     1       1.481   9.898  18.298  0.00  0.00    +0.000 OA
ATOM     18  C   UNL     1       2.101   8.730  17.795  0.00  0.00    +0.000 C 
ENDBRANCH  14  17
ENDBRANCH   7   9
BRANCH   5  19
ATOM     19  C   UNL     1       2.170  15.819  20.005  0.00  0.00    +0.000 C 
ATOM     20  O   UNL     1       2.042  16.393  21.094  0.00  0.00    +0.000 OA
ATOM     21  N   UNL     1       3.187  16.190  19.108  0.00  0.00    +0.000 N 
ATOM     22  C   UNL     1       3.369  15.628  17.769  0.00  0.00    +0.000 C 
BRANCH  21  23
ATOM     23  C   UNL     1       4.302  17.026  19.628  0.00  0.00    +0.000 C 
BRANCH  23  24
ATOM     24  C   UNL     1       5.703  16.685  19.067  0.00  0.00    +0.000 C 
BRANCH  24  25
ATOM     25  C   UNL     1       6.492  15.628  19.812  0.00  0.00    +0.000 A 
ATOM     26  C   UNL     1       7.681  15.120  19.261  0.00  0.00    +0.000 A 
ATOM     27  C   UNL     1       8.474  14.216  19.981  0.00  0.00    +0.000 A 
ATOM     28  C   UNL     1       8.084  13.819  21.253  0.00  0.00    +0.000 A 
ATOM     29 CL   UNL     1       9.068  12.729  22.150  0.00  0.00    +0.000 Cl
ATOM     30  C   UNL     1       6.907  14.312  21.813  0.00  0.00    +0.000 A 
ATOM     31  C   UNL     1       6.114  15.216  21.096  0.00  0.00    +0.000 A 
ENDBRANCH  24  25
ENDBRANCH  23  24
ENDBRANCH  21  23
ENDBRANCH   5  19
BRANCH   6  32
ATOM     32  O   UNL     1       2.592  12.980  20.349  0.00  0.00    +0.000 OA
ATOM     33  H   UNL     1       2.948  12.381  19.656  0.00  0.00    +0.000 HD
ENDBRANCH   6  32
BRANCH   1  34
ATOM     34  C   UNL     1      -2.007  11.857  18.868  0.00  0.00    +0.000 C 
BRANCH  34  35
ATOM     35  C   UNL     1      -1.888  11.156  17.511  0.00  0.00    +0.000 C 
BRANCH  35  37
ATOM     36  C   UNL     1      -3.109  10.762  15.347  0.00  0.00    +0.000 C 
ATOM     37  C   UNL     1      -3.252  11.033  16.836  0.00  0.00    +0.000 C 
ENDBRANCH  35  37
ENDBRANCH  34  35
ENDBRANCH   1  34
TORSDOF 11
ENDMDL
MODEL 6
REMARK VINA RESULT:      -6.5      6.131      8.547
REMARK  Name = 
REMARK  15 active torsions:
REMARK  status: ('A' for Active; 'I' for Inactive)
REMARK    1  A    between atoms: C_1  and  C_2
REMARK    2  A    between atoms: C_2  and  C_3
REMARK    3  A    between atoms: C_3  and  C_4
REMARK    4  A    between atoms: C_4  and  C_5
REMARK    5  A    between atoms: C_9  and  C_10
REMARK    6  A    between atoms: N_12  and  C_13
REMARK    7  A    between atoms: N_12  and  C_14
REMARK    8  A    between atoms: C_14  and  C_15
REMARK    9  A    between atoms: C_15  and  C_16
REMARK   10  A    between atoms: C_23  and  O_24
REMARK   11  A    between atoms: C_25  and  C_26
REMARK   12  A    between atoms: C_27  and  O_28
REMARK   13  A    between atoms: O_28  and  C_29
REMARK   14  A    between atoms: C_33  and  O_34
REMARK   15  A    between atoms: O_34  and  C_35
REMARK                            x       y       z     vdW  Elec       q    Type
REMARK                         _______ _______ _______ _____ _____    ______ ____
ROOT
ATOM      1  C   UNL     1      -1.034  13.018  19.693  0.00  0.00    +0.000 A 
ATOM      2  N   UNL     1      -1.054  14.246  19.069  0.00  0.00    +0.000 N 
ATOM      3  C   UNL     1      -0.044  15.167  19.092  0.00  0.00    +0.000 A 
ATOM      4  O   UNL     1      -0.122  16.177  18.398  0.00  0.00    +0.000 OA
ATOM      5  C   UNL     1       1.120  14.871  19.970  0.00  0.00    +0.000 A 
ATOM      6  C   UNL     1       1.202  13.602  20.447  0.00  0.00    +0.000 A 
ATOM      7  C   UNL     1       0.059  12.651  20.408  0.00  0.00    +0.000 A 
ATOM      8  H   UNL     1      -1.848  14.502  18.492  0.00  0.00    +0.000 HD
ENDROOT
BRANCH   7   9
ATOM      9  C   UNL     1       0.005  11.372  21.189  0.00  0.00    +0.000 A 
ATOM     10  C   UNL     1       0.408  10.152  20.554  0.00  0.00    +0.000 A 
ATOM     11  C   UNL     1       0.268   8.917  21.216  0.00  0.00    +0.000 A 
ATOM     12  C   UNL     1      -0.311   8.849  22.474  0.00  0.00    +0.000 A 
ATOM     13  C   UNL     1      -0.736  10.016  23.087  0.00  0.00    +0.000 A 
ATOM     14  C   UNL     1      -0.584  11.273  22.478  0.00  0.00    +0.000 A 
BRANCH  10  15
ATOM     15  O   UNL     1       0.888  10.237  19.267  0.00  0.00    +0.000 OA
ATOM     16  C   UNL     1       1.569   9.076  18.775  0.00  0.00    +0.000 C 
ENDBRANCH  10  15
BRANCH  14  17
ATOM     17  O   UNL     1      -1.169  12.233  23.258  0.00  0.00    +0.000 OA
ATOM     18  C   UNL     1      -2.575  12.380  23.298  0.00  0.00    +0.000 C 
ENDBRANCH  14  17
ENDBRANCH   7   9
BRANCH   5  19
ATOM     19  C   UNL     1       2.238  15.853  20.216  0.00  0.00    +0.000 C 
ATOM     20  O   UNL     1       2.170  16.540  21.243  0.00  0.00    +0.000 OA
ATOM     21  N   UNL     1       3.271  16.049  19.283  0.00  0.00    +0.000 N 
ATOM     22  C   UNL     1       3.391  15.346  18.006  0.00  0.00    +0.000 C 
BRANCH  21  23
ATOM     23  C   UNL     1       4.457  16.838  19.714  0.00  0.00    +0.000 C 
BRANCH  23  24
ATOM     24  C   UNL     1       5.688  16.002  20.141  0.00  0.00    +0.000 C 
BRANCH  24  25
ATOM     25  C   UNL     1       6.907  16.087  19.246  0.00  0.00    +0.000 A 
ATOM     26  C   UNL     1       7.472  17.338  18.945  0.00  0.00    +0.000 A 
ATOM     27  C   UNL     1       8.657  17.428  18.201  0.00  0.00    +0.000 A 
ATOM     28  C   UNL     1       9.281  16.269  17.758  0.00  0.00    +0.000 A 
ATOM     29 CL   UNL     1      10.749  16.375  16.866  0.00  0.00    +0.000 Cl
ATOM     30  C   UNL     1       8.732  15.021  18.047  0.00  0.00    +0.000 A 
ATOM     31  C   UNL     1       7.550  14.930  18.790  0.00  0.00    +0.000 A 
ENDBRANCH  24  25
ENDBRANCH  23  24
ENDBRANCH  21  23
ENDBRANCH   5  19
BRANCH   6  32
ATOM     32  O   UNL     1       2.339  13.087  21.047  0.00  0.00    +0.000 OA
ATOM     33  H   UNL     1       2.094  12.807  21.958  0.00  0.00    +0.000 HD
ENDBRANCH   6  32
BRANCH   1  34
ATOM     34  C   UNL     1      -2.275  12.176  19.470  0.00  0.00    +0.000 C 
BRANCH  34  35
ATOM     35  C   UNL     1      -2.276  11.448  18.123  0.00  0.00    +0.000 C 
BRANCH  35  37
ATOM     36  C   UNL     1      -3.642  10.986  16.061  0.00  0.00    +0.000 C 
ATOM     37  C   UNL     1      -3.679  11.411  17.520  0.00  0.00    +0.000 C 
ENDBRANCH  35  37
ENDBRANCH  34  35
ENDBRANCH   1  34
TORSDOF 11
ENDMDL
MODEL 7
REMARK VINA RESULT:      -6.5      2.616      4.172
REMARK  Name = 
REMARK  15 active torsions:
REMARK  status: ('A' for Active; 'I' for Inactive)
REMARK    1  A    between atoms: C_1  and  C_2
REMARK    2  A    between atoms: C_2  and  C_3
REMARK    3  A    between atoms: C_3  and  C_4
REMARK    4  A    between atoms: C_4  and  C_5
REMARK    5  A    between atoms: C_9  and  C_10
REMARK    6  A    between atoms: N_12  and  C_13
REMARK    7  A    between atoms: N_12  and  C_14
REMARK    8  A    between atoms: C_14  and  C_15
REMARK    9  A    between atoms: C_15  and  C_16
REMARK   10  A    between atoms: C_23  and  O_24
REMARK   11  A    between atoms: C_25  and  C_26
REMARK   12  A    between atoms: C_27  and  O_28
REMARK   13  A    between atoms: O_28  and  C_29
REMARK   14  A    between atoms: C_33  and  O_34
REMARK   15  A    between atoms: O_34  and  C_35
REMARK                            x       y       z     vdW  Elec       q    Type
REMARK                         _______ _______ _______ _____ _____    ______ ____
ROOT
ATOM      1  C   UNL     1      -0.337  13.187  19.093  0.00  0.00    +0.000 A 
ATOM      2  N   UNL     1       0.987  13.101  18.720  0.00  0.00    +0.000 N 
ATOM      3  C   UNL     1       1.666  11.944  18.455  0.00  0.00    +0.000 A 
ATOM      4  O   UNL     1       2.809  11.994  18.012  0.00  0.00    +0.000 OA
ATOM      5  C   UNL     1       0.950  10.666  18.715  0.00  0.00    +0.000 A 
ATOM      6  C   UNL     1      -0.389  10.763  18.925  0.00  0.00    +0.000 A 
ATOM      7  C   UNL     1      -1.067  12.052  19.226  0.00  0.00    +0.000 A 
ATOM      8  H   UNL     1       1.522  13.950  18.570  0.00  0.00    +0.000 HD
ENDROOT
BRANCH   7   9
ATOM      9  C   UNL     1      -2.463  12.160  19.763  0.00  0.00    +0.000 A 
ATOM     10  C   UNL     1      -3.567  12.037  18.858  0.00  0.00    +0.000 A 
ATOM     11  C   UNL     1      -4.888  12.242  19.303  0.00  0.00    +0.000 A 
ATOM     12  C   UNL     1      -5.143  12.619  20.613  0.00  0.00    +0.000 A 
ATOM     13  C   UNL     1      -4.084  12.773  21.491  0.00  0.00    +0.000 A 
ATOM     14  C   UNL     1      -2.754  12.545  21.099  0.00  0.00    +0.000 A 
BRANCH  10  15
ATOM     15  O   UNL     1      -3.279  11.759  17.541  0.00  0.00    +0.000 OA
ATOM     16  C   UNL     1      -4.398  11.418  16.714  0.00  0.00    +0.000 C 
ENDBRANCH  10  15
BRANCH  14  17
ATOM     17  O   UNL     1      -1.912  12.860  22.131  0.00  0.00    +0.000 OA
ATOM     18  C   UNL     1      -1.473  11.869  23.040  0.00  0.00    +0.000 C 
ENDBRANCH  14  17
ENDBRANCH   7   9
BRANCH   5  19
ATOM     19  C   UNL     1       1.612   9.315  18.615  0.00  0.00    +0.000 C 
ATOM     20  O   UNL     1       2.001   8.959  17.496  0.00  0.00    +0.000 OA
ATOM     21  N   UNL     1       1.710   8.455  19.722  0.00  0.00    +0.000 N 
ATOM     22  C   UNL     1       1.207   8.753  21.063  0.00  0.00    +0.000 C 
BRANCH  21  23
ATOM     23  C   UNL     1       2.596   7.265  19.602  0.00  0.00    +0.000 C 
BRANCH  23  24
ATOM     24  C   UNL     1       2.067   6.135  18.686  0.00  0.00    +0.000 C 
BRANCH  24  25
ATOM     25  C   UNL     1       3.067   5.510  17.735  0.00  0.00    +0.000 A 
ATOM     26  C   UNL     1       4.094   6.294  17.180  0.00  0.00    +0.000 A 
ATOM     27  C   UNL     1       5.085   5.712  16.378  0.00  0.00    +0.000 A 
ATOM     28  C   UNL     1       5.055   4.345  16.131  0.00  0.00    +0.000 A 
ATOM     29 CL   UNL     1       6.285   3.622  15.168  0.00  0.00    +0.000 Cl
ATOM     30  C   UNL     1       4.044   3.555  16.672  0.00  0.00    +0.000 A 
ATOM     31  C   UNL     1       3.053   4.135  17.474  0.00  0.00    +0.000 A 
ENDBRANCH  24  25
ENDBRANCH  23  24
ENDBRANCH  21  23
ENDBRANCH   5  19
BRANCH   6  32
ATOM     32  O   UNL     1      -1.241   9.670  18.916  0.00  0.00    +0.000 OA
ATOM     33  H   UNL     1      -2.155  10.007  18.785  0.00  0.00    +0.000 HD
ENDBRANCH   6  32
BRANCH   1  34
ATOM     34  C   UNL     1      -0.847  14.602  19.286  0.00  0.00    +0.000 C 
BRANCH  34  35
ATOM     35  C   UNL     1      -0.117  15.360  20.398  0.00  0.00    +0.000 C 
BRANCH  35  37
ATOM     36  C   UNL     1      -2.497  16.139  20.641  0.00  0.00    +0.000 C 
ATOM     37  C   UNL     1      -1.091  16.207  21.214  0.00  0.00    +0.000 C 
ENDBRANCH  35  37
ENDBRANCH  34  35
ENDBRANCH   1  34
TORSDOF 11
ENDMDL
MODEL 8
REMARK VINA RESULT:      -6.5      5.760      8.381
REMARK  Name = 
REMARK  15 active torsions:
REMARK  status: ('A' for Active; 'I' for Inactive)
REMARK    1  A    between atoms: C_1  and  C_2
REMARK    2  A    between atoms: C_2  and  C_3
REMARK    3  A    between atoms: C_3  and  C_4
REMARK    4  A    between atoms: C_4  and  C_5
REMARK    5  A    between atoms: C_9  and  C_10
REMARK    6  A    between atoms: N_12  and  C_13
REMARK    7  A    between atoms: N_12  and  C_14
REMARK    8  A    between atoms: C_14  and  C_15
REMARK    9  A    between atoms: C_15  and  C_16
REMARK   10  A    between atoms: C_23  and  O_24
REMARK   11  A    between atoms: C_25  and  C_26
REMARK   12  A    between atoms: C_27  and  O_28
REMARK   13  A    between atoms: O_28  and  C_29
REMARK   14  A    between atoms: C_33  and  O_34
REMARK   15  A    between atoms: O_34  and  C_35
REMARK                            x       y       z     vdW  Elec       q    Type
REMARK                         _______ _______ _______ _____ _____    ______ ____
ROOT
ATOM      1  C   UNL     1      -0.863  12.770  19.320  0.00  0.00    +0.000 A 
ATOM      2  N   UNL     1      -1.026  14.071  18.898  0.00  0.00    +0.000 N 
ATOM      3  C   UNL     1      -0.098  15.069  19.014  0.00  0.00    +0.000 A 
ATOM      4  O   UNL     1      -0.306  16.160  18.493  0.00  0.00    +0.000 OA
ATOM      5  C   UNL     1       1.141  14.752  19.774  0.00  0.00    +0.000 A 
ATOM      6  C   UNL     1       1.360  13.439  20.041  0.00  0.00    +0.000 A 
ATOM      7  C   UNL     1       0.301  12.402  19.911  0.00  0.00    +0.000 A 
ATOM      8  H   UNL     1      -1.875  14.337  18.410  0.00  0.00    +0.000 HD
ENDROOT
BRANCH   7   9
ATOM      9  C   UNL     1       0.406  11.020  20.483  0.00  0.00    +0.000 A 
ATOM     10  C   UNL     1       0.124  10.818  21.873  0.00  0.00    +0.000 A 
ATOM     11  C   UNL     1       0.317   9.558  22.471  0.00  0.00    +0.000 A 
ATOM     12  C   UNL     1       0.834   8.499  21.740  0.00  0.00    +0.000 A 
ATOM     13  C   UNL     1       1.143   8.687  20.403  0.00  0.00    +0.000 A 
ATOM     14  C   UNL     1       0.933   9.917  19.758  0.00  0.00    +0.000 A 
BRANCH  10  15
ATOM     15  O   UNL     1      -0.295  11.911  22.599  0.00  0.00    +0.000 OA
ATOM     16  C   UNL     1      -1.635  11.852  23.101  0.00  0.00    +0.000 C 
ENDBRANCH  10  15
BRANCH  14  17
ATOM     17  O   UNL     1       1.408   9.849  18.477  0.00  0.00    +0.000 OA
ATOM     18  C   UNL     1       2.031   8.674  17.993  0.00  0.00    +0.000 C 
ENDBRANCH  14  17
ENDBRANCH   7   9
BRANCH   5  19
ATOM     19  C   UNL     1       2.185  15.786  20.115  0.00  0.00    +0.000 C 
ATOM     20  O   UNL     1       2.054  16.389  21.188  0.00  0.00    +0.000 OA
ATOM     21  N   UNL     1       3.217  16.118  19.221  0.00  0.00    +0.000 N 
ATOM     22  C   UNL     1       3.406  15.521  17.899  0.00  0.00    +0.000 C 
BRANCH  21  23
ATOM     23  C   UNL     1       4.340  16.950  19.733  0.00  0.00    +0.000 C 
BRANCH  23  24
ATOM     24  C   UNL     1       5.405  16.189  20.558  0.00  0.00    +0.000 C 
BRANCH  24  25
ATOM     25  C   UNL     1       6.616  15.684  19.799  0.00  0.00    +0.000 A 
ATOM     26  C   UNL     1       6.966  16.265  18.568  0.00  0.00    +0.000 A 
ATOM     27  C   UNL     1       8.137  15.879  17.902  0.00  0.00    +0.000 A 
ATOM     28  C   UNL     1       8.962  14.914  18.464  0.00  0.00    +0.000 A 
ATOM     29 CL   UNL     1      10.414  14.456  17.661  0.00  0.00    +0.000 Cl
ATOM     30  C   UNL     1       8.628  14.327  19.683  0.00  0.00    +0.000 A 
ATOM     31  C   UNL     1       7.459  14.712  20.350  0.00  0.00    +0.000 A 
ENDBRANCH  24  25
ENDBRANCH  23  24
ENDBRANCH  21  23
ENDBRANCH   5  19
BRANCH   6  32
ATOM     32  O   UNL     1       2.573  12.947  20.495  0.00  0.00    +0.000 OA
ATOM     33  H   UNL     1       2.382  12.219  21.127  0.00  0.00    +0.000 HD
ENDBRANCH   6  32
BRANCH   1  34
ATOM     34  C   UNL     1      -2.040  11.859  19.030  0.00  0.00    +0.000 C 
BRANCH  34  35
ATOM     35  C   UNL     1      -1.961  11.191  17.655  0.00  0.00    +0.000 C 
BRANCH  35  37
ATOM     36  C   UNL     1      -4.416  10.655  17.796  0.00  0.00    +0.000 C 
ATOM     37  C   UNL     1      -3.028  10.106  17.510  0.00  0.00    +0.000 C 
ENDBRANCH  35  37
ENDBRANCH  34  35
ENDBRANCH   1  34
TORSDOF 11
ENDMDL
MODEL 9
REMARK VINA RESULT:      -6.5      2.205      3.839
REMARK  Name = 
REMARK  15 active torsions:
REMARK  status: ('A' for Active; 'I' for Inactive)
REMARK    1  A    between atoms: C_1  and  C_2
REMARK    2  A    between atoms: C_2  and  C_3
REMARK    3  A    between atoms: C_3  and  C_4
REMARK    4  A    between atoms: C_4  and  C_5
REMARK    5  A    between atoms: C_9  and  C_10
REMARK    6  A    between atoms: N_12  and  C_13
REMARK    7  A    between atoms: N_12  and  C_14
REMARK    8  A    between atoms: C_14  and  C_15
REMARK    9  A    between atoms: C_15  and  C_16
REMARK   10  A    between atoms: C_23  and  O_24
REMARK   11  A    between atoms: C_25  and  C_26
REMARK   12  A    between atoms: C_27  and  O_28
REMARK   13  A    between atoms: O_28  and  C_29
REMARK   14  A    between atoms: C_33  and  O_34
REMARK   15  A    between atoms: O_34  and  C_35
REMARK                            x       y       z     vdW  Elec       q    Type
REMARK                         _______ _______ _______ _____ _____    ______ ____
ROOT
ATOM      1  C   UNL     1      -2.831  13.803  21.063  0.00  0.00    +0.000 A 
ATOM      2  N   UNL     1      -2.792  13.068  19.899  0.00  0.00    +0.000 N 
ATOM      3  C   UNL     1      -2.088  11.910  19.712  0.00  0.00    +0.000 A 
ATOM      4  O   UNL     1      -2.224  11.274  18.671  0.00  0.00    +0.000 OA
ATOM      5  C   UNL     1      -1.191  11.479  20.818  0.00  0.00    +0.000 A 
ATOM      6  C   UNL     1      -1.359  12.114  22.006  0.00  0.00    +0.000 A 
ATOM      7  C   UNL     1      -2.123  13.383  22.141  0.00  0.00    +0.000 A 
ATOM      8  H   UNL     1      -3.359  13.351  19.107  0.00  0.00    +0.000 HD
ENDROOT
BRANCH   7   9
ATOM      9  C   UNL     1      -2.073  14.268  23.351  0.00  0.00    +0.000 A 
ATOM     10  C   UNL     1      -0.863  14.979  23.643  0.00  0.00    +0.000 A 
ATOM     11  C   UNL     1      -0.740  15.732  24.827  0.00  0.00    +0.000 A 
ATOM     12  C   UNL     1      -1.766  15.759  25.759  0.00  0.00    +0.000 A 
ATOM     13  C   UNL     1      -2.928  15.050  25.507  0.00  0.00    +0.000 A 
ATOM     14  C   UNL     1      -3.108  14.315  24.323  0.00  0.00    +0.000 A 
BRANCH  10  15
ATOM     15  O   UNL     1       0.175  14.856  22.748  0.00  0.00    +0.000 OA
ATOM     16  C   UNL     1       1.031  15.998  22.621  0.00  0.00    +0.000 C 
ENDBRANCH  10  15
BRANCH  14  17
ATOM     17  O   UNL     1      -4.299  13.644  24.377  0.00  0.00    +0.000 OA
ATOM     18  C   UNL     1      -4.355  12.292  24.787  0.00  0.00    +0.000 C 
ENDBRANCH  14  17
ENDBRANCH   7   9
BRANCH   5  19
ATOM     19  C   UNL     1      -0.243  10.312  20.702  0.00  0.00    +0.000 C 
ATOM     20  O   UNL     1      -0.472   9.326  21.416  0.00  0.00    +0.000 OA
ATOM     21  N   UNL     1       0.901  10.364  19.888  0.00  0.00    +0.000 N 
ATOM     22  C   UNL     1       1.298  11.514  19.075  0.00  0.00    +0.000 C 
BRANCH  21  23
ATOM     23  C   UNL     1       1.633   9.094  19.634  0.00  0.00    +0.000 C 
BRANCH  23  24
ATOM     24  C   UNL     1       1.681   8.642  18.155  0.00  0.00    +0.000 C 
BRANCH  24  25
ATOM     25  C   UNL     1       2.540   7.433  17.844  0.00  0.00    +0.000 A 
ATOM     26  C   UNL     1       3.842   7.605  17.345  0.00  0.00    +0.000 A 
ATOM     27  C   UNL     1       4.685   6.503  17.146  0.00  0.00    +0.000 A 
ATOM     28  C   UNL     1       4.229   5.226  17.448  0.00  0.00    +0.000 A 
ATOM     29 CL   UNL     1       5.270   3.872  17.229  0.00  0.00    +0.000 Cl
ATOM     30  C   UNL     1       2.940   5.038  17.941  0.00  0.00    +0.000 A 
ATOM     31  C   UNL     1       2.098   6.138  18.141  0.00  0.00    +0.000 A 
ENDBRANCH  24  25
ENDBRANCH  23  24
ENDBRANCH  21  23
ENDBRANCH   5  19
BRANCH   6  32
ATOM     32  O   UNL     1      -0.806  11.664  23.194  0.00  0.00    +0.000 OA
ATOM     33  H   UNL     1       0.002  12.197  23.367  0.00  0.00    +0.000 HD
ENDBRANCH   6  32
BRANCH   1  34
ATOM     34  C   UNL     1      -3.725  15.026  21.007  0.00  0.00    +0.000 C 
BRANCH  34  35
ATOM     35  C   UNL     1      -5.123  14.727  20.460  0.00  0.00    +0.000 C 
BRANCH  35  37
ATOM     36  C   UNL     1      -6.549  12.875  21.394  0.00  0.00    +0.000 C 
ATOM     37  C   UNL     1      -6.072  14.306  21.581  0.00  0.00    +0.000 C 
ENDBRANCH  35  37
ENDBRANCH  34  35
ENDBRANCH   1  34
TORSDOF 11
ENDMDL
