MODEL 1
REMARK VINA RESULT:      -9.3      0.000      0.000
REMARK  Name = 
REMARK  8 active torsions:
REMARK  status: ('A' for Active; 'I' for Inactive)
REMARK    1  A    between atoms: C_1  and  C_2
REMARK    2  A    between atoms: C_2  and  C_3
REMARK    3  A    between atoms: C_2  and  N_5
REMARK    4  A    between atoms: C_3  and  O_4
REMARK    5  A    between atoms: N_5  and  S_6
REMARK    6  A    between atoms: S_6  and  C_9
REMARK    7  A    between atoms: C_14  and  C_15
REMARK    8  A    between atoms: C_18  and  C_19
REMARK                            x       y       z     vdW  Elec       q    Type
REMARK                         _______ _______ _______ _____ _____    ______ ____
ROOT
ATOM      1  C   UNL     1       3.088   7.052  18.136  0.00  0.00    +0.000 A 
ATOM      2  C   UNL     1       2.721   8.255  17.537  0.00  0.00    +0.000 A 
ATOM      3  C   UNL     1       1.844   9.159  18.139  0.00  0.00    +0.000 A 
ATOM      4  C   UNL     1       1.363   8.968  19.438  0.00  0.00    +0.000 A 
ATOM      5  C   UNL     1       1.815   7.821  20.096  0.00  0.00    +0.000 A 
ATOM      6  F   UNL     1       1.479   7.590  21.374  0.00  0.00    +0.000 F 
ATOM      7  C   UNL     1       2.633   6.876  19.457  0.00  0.00    +0.000 A 
ENDROOT
BRANCH   4   8
ATOM      8  C   UNL     1       0.471   9.975  20.040  0.00  0.00    +0.000 A 
ATOM      9  C   UNL     1       0.753  10.616  21.252  0.00  0.00    +0.000 A 
ATOM     10  N   UNL     1       0.036  11.616  21.835  0.00  0.00    +0.000 NA
ATOM     11  C   UNL     1      -1.028  11.982  21.100  0.00  0.00    +0.000 A 
ATOM     12  N   UNL     1      -1.892  12.992  21.428  0.00  0.00    +0.000 N 
ATOM     13  C   UNL     1      -2.846  13.124  20.451  0.00  0.00    +0.000 A 
ATOM     14  C   UNL     1      -2.599  12.169  19.486  0.00  0.00    +0.000 A 
ATOM     15  C   UNL     1      -1.450  11.444  19.894  0.00  0.00    +0.000 A 
ATOM     16  C   UNL     1      -0.692  10.391  19.364  0.00  0.00    +0.000 A 
ATOM     17  H   UNL     1      -1.802  13.551  22.263  0.00  0.00    +0.000 HD
ENDBRANCH   4   8
BRANCH   1  23
ATOM     18  C   UNL     1       3.739   4.694  17.217  0.00  0.00    +0.000 A 
ATOM     19  C   UNL     1       4.693   3.914  16.520  0.00  0.00    +0.000 A 
ATOM     20  C   UNL     1       5.913   4.443  16.112  0.00  0.00    +0.000 A 
ATOM     21  C   UNL     1       6.189   5.773  16.363  0.00  0.00    +0.000 A 
ATOM     22  C   UNL     1       5.236   6.570  17.001  0.00  0.00    +0.000 A 
ATOM     23  C   UNL     1       3.986   6.074  17.462  0.00  0.00    +0.000 A 
BRANCH  18  24
ATOM     24  S   UNL     1       2.329   3.732  17.824  0.00  0.00    +0.000 S 
ATOM     25  O   UNL     1       2.576   2.344  17.520  0.00  0.00    +0.000 OA
ATOM     26  O   UNL     1       1.105   4.342  17.360  0.00  0.00    +0.000 OA
BRANCH  24  27
ATOM     27  N   UNL     1       2.406   3.869  19.528  0.00  0.00    +0.000 NA
ATOM     28  H   UNL     1       3.080   4.586  19.801  0.00  0.00    +0.000 HD
BRANCH  27  30
ATOM     29  C   UNL     1       1.697   2.566  21.500  0.00  0.00    +0.000 C 
ATOM     30  C   UNL     1       2.605   2.581  20.269  0.00  0.00    +0.000 C 
BRANCH  30  31
ATOM     31  C   UNL     1       4.073   2.380  20.678  0.00  0.00    +0.000 C 
BRANCH  31  32
ATOM     32  O   UNL     1       4.873   2.001  19.559  0.00  0.00    +0.000 OA
ATOM     33  H   UNL     1       4.730   2.641  18.844  0.00  0.00    +0.000 HD
ENDBRANCH  31  32
ENDBRANCH  30  31
ENDBRANCH  27  30
ENDBRANCH  24  27
ENDBRANCH  18  24
ENDBRANCH   1  23
TORSDOF 7
ENDMDL
MODEL 2
REMARK VINA RESULT:      -9.3      0.789      1.243
REMARK  Name = 
REMARK  8 active torsions:
REMARK  status: ('A' for Active; 'I' for Inactive)
REMARK    1  A    between atoms: C_1  and  C_2
REMARK    2  A    between atoms: C_2  and  C_3
REMARK    3  A    between atoms: C_2  and  N_5
REMARK    4  A    between atoms: C_3  and  O_4
REMARK    5  A    between atoms: N_5  and  S_6
REMARK    6  A    between atoms: S_6  and  C_9
REMARK    7  A    between atoms: C_14  and  C_15
REMARK    8  A    between atoms: C_18  and  C_19
REMARK                            x       y       z     vdW  Elec       q    Type
REMARK                         _______ _______ _______ _____ _____    ______ ____
ROOT
ATOM      1  C   UNL     1       3.061   7.065  18.156  0.00  0.00    +0.000 A 
ATOM      2  C   UNL     1       2.658   8.230  17.509  0.00  0.00    +0.000 A 
ATOM      3  C   UNL     1       1.757   9.133  18.076  0.00  0.00    +0.000 A 
ATOM      4  C   UNL     1       1.285   8.983  19.384  0.00  0.00    +0.000 A 
ATOM      5  C   UNL     1       1.772   7.878  20.088  0.00  0.00    +0.000 A 
ATOM      6  F   UNL     1       1.445   7.691  21.375  0.00  0.00    +0.000 F 
ATOM      7  C   UNL     1       2.614   6.931  19.486  0.00  0.00    +0.000 A 
ENDROOT
BRANCH   4   8
ATOM      8  C   UNL     1       0.366   9.988  19.947  0.00  0.00    +0.000 A 
ATOM      9  C   UNL     1      -0.423  10.830  19.155  0.00  0.00    +0.000 A 
ATOM     10  N   UNL     1      -1.358  11.720  19.587  0.00  0.00    +0.000 NA
ATOM     11  C   UNL     1      -1.491  11.719  20.925  0.00  0.00    +0.000 A 
ATOM     12  N   UNL     1      -2.391  12.482  21.619  0.00  0.00    +0.000 N 
ATOM     13  C   UNL     1      -2.286  12.217  22.962  0.00  0.00    +0.000 A 
ATOM     14  C   UNL     1      -1.289  11.279  23.132  0.00  0.00    +0.000 A 
ATOM     15  C   UNL     1      -0.784  10.961  21.845  0.00  0.00    +0.000 A 
ATOM     16  C   UNL     1       0.193  10.091  21.341  0.00  0.00    +0.000 A 
ATOM     17  H   UNL     1      -3.035  13.121  21.178  0.00  0.00    +0.000 HD
ENDBRANCH   4   8
BRANCH   1  23
ATOM     18  C   UNL     1       3.752   4.703  17.276  0.00  0.00    +0.000 A 
ATOM     19  C   UNL     1       4.732   3.922  16.618  0.00  0.00    +0.000 A 
ATOM     20  C   UNL     1       5.964   4.452  16.249  0.00  0.00    +0.000 A 
ATOM     21  C   UNL     1       6.226   5.786  16.500  0.00  0.00    +0.000 A 
ATOM     22  C   UNL     1       5.249   6.583  17.100  0.00  0.00    +0.000 A 
ATOM     23  C   UNL     1       3.985   6.085  17.521  0.00  0.00    +0.000 A 
BRANCH  18  24
ATOM     24  S   UNL     1       2.325   3.740  17.840  0.00  0.00    +0.000 S 
ATOM     25  O   UNL     1       2.579   2.353  17.539  0.00  0.00    +0.000 OA
ATOM     26  O   UNL     1       1.115   4.352  17.344  0.00  0.00    +0.000 OA
BRANCH  24  27
ATOM     27  N   UNL     1       2.353   3.872  19.546  0.00  0.00    +0.000 NA
ATOM     28  H   UNL     1       2.990   4.614  19.839  0.00  0.00    +0.000 HD
BRANCH  27  30
ATOM     29  C   UNL     1       1.681   2.551  21.520  0.00  0.00    +0.000 C 
ATOM     30  C   UNL     1       2.587   2.589  20.287  0.00  0.00    +0.000 C 
BRANCH  30  31
ATOM     31  C   UNL     1       4.060   2.427  20.694  0.00  0.00    +0.000 C 
BRANCH  31  32
ATOM     32  O   UNL     1       4.858   2.011  19.586  0.00  0.00    +0.000 OA
ATOM     33  H   UNL     1       5.786   1.977  19.868  0.00  0.00    +0.000 HD
ENDBRANCH  31  32
ENDBRANCH  30  31
ENDBRANCH  27  30
ENDBRANCH  24  27
ENDBRANCH  18  24
ENDBRANCH   1  23
TORSDOF 7
ENDMDL
MODEL 3
REMARK VINA RESULT:      -9.1      1.097      1.422
REMARK  Name = 
REMARK  8 active torsions:
REMARK  status: ('A' for Active; 'I' for Inactive)
REMARK    1  A    between atoms: C_1  and  C_2
REMARK    2  A    between atoms: C_2  and  C_3
REMARK    3  A    between atoms: C_2  and  N_5
REMARK    4  A    between atoms: C_3  and  O_4
REMARK    5  A    between atoms: N_5  and  S_6
REMARK    6  A    between atoms: S_6  and  C_9
REMARK    7  A    between atoms: C_14  and  C_15
REMARK    8  A    between atoms: C_18  and  C_19
REMARK                            x       y       z     vdW  Elec       q    Type
REMARK                         _______ _______ _______ _____ _____    ______ ____
ROOT
ATOM      1  C   UNL     1       2.964   6.970  18.473  0.00  0.00    +0.000 A 
ATOM      2  C   UNL     1       2.584   6.703  19.786  0.00  0.00    +0.000 A 
ATOM      3  C   UNL     1       1.815   7.589  20.543  0.00  0.00    +0.000 A 
ATOM      4  C   UNL     1       1.277   8.756  19.991  0.00  0.00    +0.000 A 
ATOM      5  C   UNL     1       1.554   8.979  18.639  0.00  0.00    +0.000 A 
ATOM      6  F   UNL     1       1.015  10.026  17.996  0.00  0.00    +0.000 F 
ATOM      7  C   UNL     1       2.393   8.127  17.907  0.00  0.00    +0.000 A 
ENDROOT
BRANCH   4   8
ATOM      8  C   UNL     1       0.437   9.636  20.824  0.00  0.00    +0.000 A 
ATOM      9  C   UNL     1       0.490   9.641  22.223  0.00  0.00    +0.000 A 
ATOM     10  N   UNL     1      -0.180  10.476  23.063  0.00  0.00    +0.000 NA
ATOM     11  C   UNL     1      -0.936  11.372  22.405  0.00  0.00    +0.000 A 
ATOM     12  N   UNL     1      -1.675  12.357  23.003  0.00  0.00    +0.000 N 
ATOM     13  C   UNL     1      -2.301  13.114  22.045  0.00  0.00    +0.000 A 
ATOM     14  C   UNL     1      -1.969  12.595  20.810  0.00  0.00    +0.000 A 
ATOM     15  C   UNL     1      -1.105  11.492  21.035  0.00  0.00    +0.000 A 
ATOM     16  C   UNL     1      -0.419  10.579  20.223  0.00  0.00    +0.000 A 
ATOM     17  H   UNL     1      -1.719  12.491  24.001  0.00  0.00    +0.000 HD
ENDBRANCH   4   8
BRANCH   1  23
ATOM     18  C   UNL     1       3.517   4.713  17.278  0.00  0.00    +0.000 A 
ATOM     19  C   UNL     1       4.443   3.978  16.500  0.00  0.00    +0.000 A 
ATOM     20  C   UNL     1       5.693   4.492  16.172  0.00  0.00    +0.000 A 
ATOM     21  C   UNL     1       6.028   5.767  16.586  0.00  0.00    +0.000 A 
ATOM     22  C   UNL     1       5.104   6.525  17.308  0.00  0.00    +0.000 A 
ATOM     23  C   UNL     1       3.825   6.039  17.693  0.00  0.00    +0.000 A 
BRANCH  18  24
ATOM     24  S   UNL     1       2.054   3.754  17.748  0.00  0.00    +0.000 S 
ATOM     25  O   UNL     1       2.300   2.374  17.410  0.00  0.00    +0.000 OA
ATOM     26  O   UNL     1       0.874   4.402  17.224  0.00  0.00    +0.000 OA
BRANCH  24  27
ATOM     27  N   UNL     1       2.012   3.828  19.458  0.00  0.00    +0.000 NA
ATOM     28  H   UNL     1       2.506   4.655  19.794  0.00  0.00    +0.000 HD
BRANCH  27  30
ATOM     29  C   UNL     1       1.771   2.528  21.542  0.00  0.00    +0.000 C 
ATOM     30  C   UNL     1       2.439   2.577  20.166  0.00  0.00    +0.000 C 
BRANCH  30  31
ATOM     31  C   UNL     1       3.967   2.494  20.305  0.00  0.00    +0.000 C 
BRANCH  31  32
ATOM     32  O   UNL     1       4.535   1.675  19.283  0.00  0.00    +0.000 OA
ATOM     33  H   UNL     1       4.958   2.249  18.624  0.00  0.00    +0.000 HD
ENDBRANCH  31  32
ENDBRANCH  30  31
ENDBRANCH  27  30
ENDBRANCH  24  27
ENDBRANCH  18  24
ENDBRANCH   1  23
TORSDOF 7
ENDMDL
MODEL 4
REMARK VINA RESULT:      -9.0      1.229      1.785
REMARK  Name = 
REMARK  8 active torsions:
REMARK  status: ('A' for Active; 'I' for Inactive)
REMARK    1  A    between atoms: C_1  and  C_2
REMARK    2  A    between atoms: C_2  and  C_3
REMARK    3  A    between atoms: C_2  and  N_5
REMARK    4  A    between atoms: C_3  and  O_4
REMARK    5  A    between atoms: N_5  and  S_6
REMARK    6  A    between atoms: S_6  and  C_9
REMARK    7  A    between atoms: C_14  and  C_15
REMARK    8  A    between atoms: C_18  and  C_19
REMARK                            x       y       z     vdW  Elec       q    Type
REMARK                         _______ _______ _______ _____ _____    ______ ____
ROOT
ATOM      1  C   UNL     1       3.229   6.944  18.162  0.00  0.00    +0.000 A 
ATOM      2  C   UNL     1       2.672   6.781  19.428  0.00  0.00    +0.000 A 
ATOM      3  C   UNL     1       1.870   7.754  20.028  0.00  0.00    +0.000 A 
ATOM      4  C   UNL     1       1.481   8.912  19.348  0.00  0.00    +0.000 A 
ATOM      5  C   UNL     1       1.939   9.034  18.034  0.00  0.00    +0.000 A 
ATOM      6  F   UNL     1       1.553  10.067  17.269  0.00  0.00    +0.000 F 
ATOM      7  C   UNL     1       2.809   8.092  17.464  0.00  0.00    +0.000 A 
ENDROOT
BRANCH   4   8
ATOM      8  C   UNL     1       0.601   9.888  20.016  0.00  0.00    +0.000 A 
ATOM      9  C   UNL     1      -0.049  10.922  19.332  0.00  0.00    +0.000 A 
ATOM     10  N   UNL     1      -0.944  11.809  19.848  0.00  0.00    +0.000 NA
ATOM     11  C   UNL     1      -1.190  11.592  21.152  0.00  0.00    +0.000 A 
ATOM     12  N   UNL     1      -2.082  12.305  21.906  0.00  0.00    +0.000 N 
ATOM     13  C   UNL     1      -2.113  11.808  23.184  0.00  0.00    +0.000 A 
ATOM     14  C   UNL     1      -1.212  10.765  23.255  0.00  0.00    +0.000 A 
ATOM     15  C   UNL     1      -0.626  10.626  21.971  0.00  0.00    +0.000 A 
ATOM     16  C   UNL     1       0.318   9.768  21.390  0.00  0.00    +0.000 A 
ATOM     17  H   UNL     1      -2.633  13.067  21.542  0.00  0.00    +0.000 HD
ENDBRANCH   4   8
BRANCH   1  23
ATOM     18  C   UNL     1       3.826   4.549  17.302  0.00  0.00    +0.000 A 
ATOM     19  C   UNL     1       4.784   3.719  16.672  0.00  0.00    +0.000 A 
ATOM     20  C   UNL     1       6.051   4.187  16.338  0.00  0.00    +0.000 A 
ATOM     21  C   UNL     1       6.372   5.506  16.596  0.00  0.00    +0.000 A 
ATOM     22  C   UNL     1       5.420   6.352  17.168  0.00  0.00    +0.000 A 
ATOM     23  C   UNL     1       4.122   5.918  17.553  0.00  0.00    +0.000 A 
BRANCH  18  24
ATOM     24  S   UNL     1       2.338   3.659  17.826  0.00  0.00    +0.000 S 
ATOM     25  O   UNL     1       2.539   2.258  17.549  0.00  0.00    +0.000 OA
ATOM     26  O   UNL     1       1.175   4.320  17.282  0.00  0.00    +0.000 OA
BRANCH  24  27
ATOM     27  N   UNL     1       2.314   3.810  19.531  0.00  0.00    +0.000 NA
ATOM     28  H   UNL     1       2.886   4.601  19.830  0.00  0.00    +0.000 HD
BRANCH  27  30
ATOM     29  C   UNL     1       1.786   2.526  21.571  0.00  0.00    +0.000 C 
ATOM     30  C   UNL     1       2.625   2.556  20.292  0.00  0.00    +0.000 C 
BRANCH  30  31
ATOM     31  C   UNL     1       4.121   2.448  20.626  0.00  0.00    +0.000 C 
BRANCH  31  32
ATOM     32  O   UNL     1       4.836   1.787  19.583  0.00  0.00    +0.000 OA
ATOM     33  H   UNL     1       5.417   2.432  19.147  0.00  0.00    +0.000 HD
ENDBRANCH  31  32
ENDBRANCH  30  31
ENDBRANCH  27  30
ENDBRANCH  24  27
ENDBRANCH  18  24
ENDBRANCH   1  23
TORSDOF 7
ENDMDL
MODEL 5
REMARK VINA RESULT:      -8.8      1.020      1.073
REMARK  Name = 
REMARK  8 active torsions:
REMARK  status: ('A' for Active; 'I' for Inactive)
REMARK    1  A    between atoms: C_1  and  C_2
REMARK    2  A    between atoms: C_2  and  C_3
REMARK    3  A    between atoms: C_2  and  N_5
REMARK    4  A    between atoms: C_3  and  O_4
REMARK    5  A    between atoms: N_5  and  S_6
REMARK    6  A    between atoms: S_6  and  C_9
REMARK    7  A    between atoms: C_14  and  C_15
REMARK    8  A    between atoms: C_18  and  C_19
REMARK                            x       y       z     vdW  Elec       q    Type
REMARK                         _______ _______ _______ _____ _____    ______ ____
ROOT
ATOM      1  C   UNL     1       3.348   6.888  17.942  0.00  0.00    +0.000 A 
ATOM      2  C   UNL     1       2.990   8.111  17.381  0.00  0.00    +0.000 A 
ATOM      3  C   UNL     1       2.089   8.985  17.993  0.00  0.00    +0.000 A 
ATOM      4  C   UNL     1       1.571   8.738  19.268  0.00  0.00    +0.000 A 
ATOM      5  C   UNL     1       2.013   7.568  19.893  0.00  0.00    +0.000 A 
ATOM      6  F   UNL     1       1.641   7.283  21.150  0.00  0.00    +0.000 F 
ATOM      7  C   UNL     1       2.856   6.655  19.241  0.00  0.00    +0.000 A 
ENDROOT
BRANCH   4   8
ATOM      8  C   UNL     1       0.655   9.714  19.884  0.00  0.00    +0.000 A 
ATOM      9  C   UNL     1       0.867  10.265  21.153  0.00  0.00    +0.000 A 
ATOM     10  N   UNL     1       0.125  11.232  21.760  0.00  0.00    +0.000 NA
ATOM     11  C   UNL     1      -0.887  11.664  20.988  0.00  0.00    +0.000 A 
ATOM     12  N   UNL     1      -1.758  12.662  21.333  0.00  0.00    +0.000 N 
ATOM     13  C   UNL     1      -2.648  12.876  20.310  0.00  0.00    +0.000 A 
ATOM     14  C   UNL     1      -2.351  11.987  19.298  0.00  0.00    +0.000 A 
ATOM     15  C   UNL     1      -1.238  11.218  19.724  0.00  0.00    +0.000 A 
ATOM     16  C   UNL     1      -0.460  10.194  19.169  0.00  0.00    +0.000 A 
ATOM     17  H   UNL     1      -1.714  13.160  22.209  0.00  0.00    +0.000 HD
ENDBRANCH   4   8
BRANCH   1  23
ATOM     18  C   UNL     1       4.094   4.546  17.053  0.00  0.00    +0.000 A 
ATOM     19  C   UNL     1       5.063   3.802  16.337  0.00  0.00    +0.000 A 
ATOM     20  C   UNL     1       6.236   4.386  15.870  0.00  0.00    +0.000 A 
ATOM     21  C   UNL     1       6.446   5.736  16.078  0.00  0.00    +0.000 A 
ATOM     22  C   UNL     1       5.476   6.495  16.735  0.00  0.00    +0.000 A 
ATOM     23  C   UNL     1       4.273   5.943  17.256  0.00  0.00    +0.000 A 
BRANCH  18  24
ATOM     24  S   UNL     1       2.764   3.524  17.736  0.00  0.00    +0.000 S 
ATOM     25  O   UNL     1       3.044   2.150  17.400  0.00  0.00    +0.000 OA
ATOM     26  O   UNL     1       1.491   4.091  17.359  0.00  0.00    +0.000 OA
BRANCH  24  27
ATOM     27  N   UNL     1       2.945   3.648  19.434  0.00  0.00    +0.000 NA
ATOM     28  H   UNL     1       3.875   3.340  19.720  0.00  0.00    +0.000 HD
BRANCH  27  30
ATOM     29  C   UNL     1       0.716   4.016  20.428  0.00  0.00    +0.000 C 
ATOM     30  C   UNL     1       1.855   3.011  20.245  0.00  0.00    +0.000 C 
BRANCH  30  31
ATOM     31  C   UNL     1       2.371   2.525  21.608  0.00  0.00    +0.000 C 
BRANCH  31  32
ATOM     32  O   UNL     1       1.291   2.268  22.506  0.00  0.00    +0.000 OA
ATOM     33  H   UNL     1       1.569   1.586  23.139  0.00  0.00    +0.000 HD
ENDBRANCH  31  32
ENDBRANCH  30  31
ENDBRANCH  27  30
ENDBRANCH  24  27
ENDBRANCH  18  24
ENDBRANCH   1  23
TORSDOF 7
ENDMDL
MODEL 6
REMARK VINA RESULT:      -8.6      1.142      1.689
REMARK  Name = 
REMARK  8 active torsions:
REMARK  status: ('A' for Active; 'I' for Inactive)
REMARK    1  A    between atoms: C_1  and  C_2
REMARK    2  A    between atoms: C_2  and  C_3
REMARK    3  A    between atoms: C_2  and  N_5
REMARK    4  A    between atoms: C_3  and  O_4
REMARK    5  A    between atoms: N_5  and  S_6
REMARK    6  A    between atoms: S_6  and  C_9
REMARK    7  A    between atoms: C_14  and  C_15
REMARK    8  A    between atoms: C_18  and  C_19
REMARK                            x       y       z     vdW  Elec       q    Type
REMARK                         _______ _______ _______ _____ _____    ______ ____
ROOT
ATOM      1  C   UNL     1       3.269   7.055  18.058  0.00  0.00    +0.000 A 
ATOM      2  C   UNL     1       2.890   8.253  17.456  0.00  0.00    +0.000 A 
ATOM      3  C   UNL     1       1.957   9.120  18.028  0.00  0.00    +0.000 A 
ATOM      4  C   UNL     1       1.425   8.896  19.302  0.00  0.00    +0.000 A 
ATOM      5  C   UNL     1       1.886   7.757  19.967  0.00  0.00    +0.000 A 
ATOM      6  F   UNL     1       1.500   7.499  21.226  0.00  0.00    +0.000 F 
ATOM      7  C   UNL     1       2.762   6.847  19.355  0.00  0.00    +0.000 A 
ENDROOT
BRANCH   4   8
ATOM      8  C   UNL     1       0.475   9.866  19.875  0.00  0.00    +0.000 A 
ATOM      9  C   UNL     1      -0.396  10.635  19.094  0.00  0.00    +0.000 A 
ATOM     10  N   UNL     1      -1.361  11.484  19.540  0.00  0.00    +0.000 NA
ATOM     11  C   UNL     1      -1.437  11.519  20.882  0.00  0.00    +0.000 A 
ATOM     12  N   UNL     1      -2.348  12.252  21.592  0.00  0.00    +0.000 N 
ATOM     13  C   UNL     1      -2.171  12.039  22.937  0.00  0.00    +0.000 A 
ATOM     14  C   UNL     1      -1.114  11.165  23.090  0.00  0.00    +0.000 A 
ATOM     15  C   UNL     1      -0.647  10.834  21.792  0.00  0.00    +0.000 A 
ATOM     16  C   UNL     1       0.355  10.005  21.272  0.00  0.00    +0.000 A 
ATOM     17  H   UNL     1      -3.047  12.839  21.162  0.00  0.00    +0.000 HD
ENDBRANCH   4   8
BRANCH   1  23
ATOM     18  C   UNL     1       4.032   4.736  17.125  0.00  0.00    +0.000 A 
ATOM     19  C   UNL     1       5.043   3.997  16.466  0.00  0.00    +0.000 A 
ATOM     20  C   UNL     1       6.270   4.565  16.139  0.00  0.00    +0.000 A 
ATOM     21  C   UNL     1       6.497   5.896  16.434  0.00  0.00    +0.000 A 
ATOM     22  C   UNL     1       5.490   6.653  17.036  0.00  0.00    +0.000 A 
ATOM     23  C   UNL     1       4.229   6.116  17.414  0.00  0.00    +0.000 A 
BRANCH  18  24
ATOM     24  S   UNL     1       2.616   3.726  17.630  0.00  0.00    +0.000 S 
ATOM     25  O   UNL     1       2.797   2.404  17.081  0.00  0.00    +0.000 OA
ATOM     26  O   UNL     1       1.396   4.442  17.340  0.00  0.00    +0.000 OA
BRANCH  24  27
ATOM     27  N   UNL     1       2.775   3.565  19.326  0.00  0.00    +0.000 NA
ATOM     28  H   UNL     1       3.531   2.919  19.557  0.00  0.00    +0.000 HD
BRANCH  27  30
ATOM     29  C   UNL     1       1.769   3.342  21.569  0.00  0.00    +0.000 C 
ATOM     30  C   UNL     1       1.507   3.251  20.064  0.00  0.00    +0.000 C 
BRANCH  30  31
ATOM     31  C   UNL     1       0.961   1.863  19.694  0.00  0.00    +0.000 C 
BRANCH  31  32
ATOM     32  O   UNL     1       0.227   1.907  18.470  0.00  0.00    +0.000 OA
ATOM     33  H   UNL     1      -0.581   2.426  18.611  0.00  0.00    +0.000 HD
ENDBRANCH  31  32
ENDBRANCH  30  31
ENDBRANCH  27  30
ENDBRANCH  24  27
ENDBRANCH  18  24
ENDBRANCH   1  23
TORSDOF 7
ENDMDL
MODEL 7
REMARK VINA RESULT:      -8.6      3.893      8.755
REMARK  Name = 
REMARK  8 active torsions:
REMARK  status: ('A' for Active; 'I' for Inactive)
REMARK    1  A    between atoms: C_1  and  C_2
REMARK    2  A    between atoms: C_2  and  C_3
REMARK    3  A    between atoms: C_2  and  N_5
REMARK    4  A    between atoms: C_3  and  O_4
REMARK    5  A    between atoms: N_5  and  S_6
REMARK    6  A    between atoms: S_6  and  C_9
REMARK    7  A    between atoms: C_14  and  C_15
REMARK    8  A    between atoms: C_18  and  C_19
REMARK                            x       y       z     vdW  Elec       q    Type
REMARK                         _______ _______ _______ _____ _____    ______ ____
ROOT
ATOM      1  C   UNL     1       1.501  10.289  18.855  0.00  0.00    +0.000 A 
ATOM      2  C   UNL     1       2.061   9.698  17.725  0.00  0.00    +0.000 A 
ATOM      3  C   UNL     1       2.554   8.392  17.724  0.00  0.00    +0.000 A 
ATOM      4  C   UNL     1       2.414   7.549  18.831  0.00  0.00    +0.000 A 
ATOM      5  C   UNL     1       1.749   8.092  19.935  0.00  0.00    +0.000 A 
ATOM      6  F   UNL     1       1.491   7.339  21.014  0.00  0.00    +0.000 F 
ATOM      7  C   UNL     1       1.328   9.430  19.958  0.00  0.00    +0.000 A 
ENDROOT
BRANCH   4   8
ATOM      8  C   UNL     1       2.916   6.165  18.762  0.00  0.00    +0.000 A 
ATOM      9  C   UNL     1       4.177   5.787  19.238  0.00  0.00    +0.000 A 
ATOM     10  N   UNL     1       4.684   4.525  19.295  0.00  0.00    +0.000 NA
ATOM     11  C   UNL     1       3.818   3.600  18.847  0.00  0.00    +0.000 A 
ATOM     12  N   UNL     1       4.052   2.252  18.836  0.00  0.00    +0.000 N 
ATOM     13  C   UNL     1       2.954   1.592  18.345  0.00  0.00    +0.000 A 
ATOM     14  C   UNL     1       2.003   2.538  18.020  0.00  0.00    +0.000 A 
ATOM     15  C   UNL     1       2.546   3.809  18.336  0.00  0.00    +0.000 A 
ATOM     16  C   UNL     1       2.095   5.134  18.267  0.00  0.00    +0.000 A 
ATOM     17  H   UNL     1       4.910   1.835  19.165  0.00  0.00    +0.000 HD
ENDBRANCH   4   8
BRANCH   1  23
ATOM     18  C   UNL     1      -0.318  12.162  18.745  0.00  0.00    +0.000 A 
ATOM     19  C   UNL     1      -0.601  13.547  18.807  0.00  0.00    +0.000 A 
ATOM     20  C   UNL     1       0.411  14.496  18.914  0.00  0.00    +0.000 A 
ATOM     21  C   UNL     1       1.725  14.074  18.996  0.00  0.00    +0.000 A 
ATOM     22  C   UNL     1       2.015  12.709  18.990  0.00  0.00    +0.000 A 
ATOM     23  C   UNL     1       1.023  11.700  18.856  0.00  0.00    +0.000 A 
BRANCH  18  24
ATOM     24  S   UNL     1      -1.778  11.147  18.396  0.00  0.00    +0.000 S 
ATOM     25  O   UNL     1      -2.866  11.642  19.202  0.00  0.00    +0.000 OA
ATOM     26  O   UNL     1      -1.417   9.751  18.490  0.00  0.00    +0.000 OA
BRANCH  24  27
ATOM     27  N   UNL     1      -2.183  11.506  16.773  0.00  0.00    +0.000 NA
ATOM     28  H   UNL     1      -2.285  12.513  16.642  0.00  0.00    +0.000 HD
BRANCH  27  30
ATOM     29  C   UNL     1      -2.963  10.196  14.831  0.00  0.00    +0.000 C 
ATOM     30  C   UNL     1      -3.341  10.734  16.213  0.00  0.00    +0.000 C 
BRANCH  30  31
ATOM     31  C   UNL     1      -4.611  11.596  16.127  0.00  0.00    +0.000 C 
BRANCH  31  32
ATOM     32  O   UNL     1      -4.877  12.248  17.369  0.00  0.00    +0.000 OA
ATOM     33  H   UNL     1      -4.600  13.176  17.297  0.00  0.00    +0.000 HD
ENDBRANCH  31  32
ENDBRANCH  30  31
ENDBRANCH  27  30
ENDBRANCH  24  27
ENDBRANCH  18  24
ENDBRANCH   1  23
TORSDOF 7
ENDMDL
MODEL 8
REMARK VINA RESULT:      -8.5      1.356      1.814
REMARK  Name = 
REMARK  8 active torsions:
REMARK  status: ('A' for Active; 'I' for Inactive)
REMARK    1  A    between atoms: C_1  and  C_2
REMARK    2  A    between atoms: C_2  and  C_3
REMARK    3  A    between atoms: C_2  and  N_5
REMARK    4  A    between atoms: C_3  and  O_4
REMARK    5  A    between atoms: N_5  and  S_6
REMARK    6  A    between atoms: S_6  and  C_9
REMARK    7  A    between atoms: C_14  and  C_15
REMARK    8  A    between atoms: C_18  and  C_19
REMARK                            x       y       z     vdW  Elec       q    Type
REMARK                         _______ _______ _______ _____ _____    ______ ____
ROOT
ATOM      1  C   UNL     1       3.164   7.094  18.297  0.00  0.00    +0.000 A 
ATOM      2  C   UNL     1       2.760   6.727  19.578  0.00  0.00    +0.000 A 
ATOM      3  C   UNL     1       1.954   7.541  20.375  0.00  0.00    +0.000 A 
ATOM      4  C   UNL     1       1.404   8.734  19.895  0.00  0.00    +0.000 A 
ATOM      5  C   UNL     1       1.708   9.058  18.569  0.00  0.00    +0.000 A 
ATOM      6  F   UNL     1       1.162  10.137  17.989  0.00  0.00    +0.000 F 
ATOM      7  C   UNL     1       2.583   8.277  17.799  0.00  0.00    +0.000 A 
ENDROOT
BRANCH   4   8
ATOM      8  C   UNL     1       0.526   9.535  20.766  0.00  0.00    +0.000 A 
ATOM      9  C   UNL     1       0.602   9.502  22.163  0.00  0.00    +0.000 A 
ATOM     10  N   UNL     1      -0.104  10.269  23.039  0.00  0.00    +0.000 NA
ATOM     11  C   UNL     1      -0.924  11.135  22.420  0.00  0.00    +0.000 A 
ATOM     12  N   UNL     1      -1.713  12.054  23.058  0.00  0.00    +0.000 N 
ATOM     13  C   UNL     1      -2.400  12.799  22.133  0.00  0.00    +0.000 A 
ATOM     14  C   UNL     1      -2.057  12.338  20.879  0.00  0.00    +0.000 A 
ATOM     15  C   UNL     1      -1.124  11.285  21.057  0.00  0.00    +0.000 A 
ATOM     16  C   UNL     1      -0.397  10.440  20.207  0.00  0.00    +0.000 A 
ATOM     17  H   UNL     1      -1.747  12.156  24.061  0.00  0.00    +0.000 HD
ENDBRANCH   4   8
BRANCH   1  23
ATOM     18  C   UNL     1       3.856   4.886  17.082  0.00  0.00    +0.000 A 
ATOM     19  C   UNL     1       4.803   4.232  16.258  0.00  0.00    +0.000 A 
ATOM     20  C   UNL     1       5.981   4.855  15.860  0.00  0.00    +0.000 A 
ATOM     21  C   UNL     1       6.219   6.159  16.250  0.00  0.00    +0.000 A 
ATOM     22  C   UNL     1       5.271   6.836  17.019  0.00  0.00    +0.000 A 
ATOM     23  C   UNL     1       4.064   6.238  17.475  0.00  0.00    +0.000 A 
BRANCH  18  24
ATOM     24  S   UNL     1       2.515   3.802  17.636  0.00  0.00    +0.000 S 
ATOM     25  O   UNL     1       2.726   2.501  17.051  0.00  0.00    +0.000 OA
ATOM     26  O   UNL     1       1.251   4.467  17.423  0.00  0.00    +0.000 OA
BRANCH  24  27
ATOM     27  N   UNL     1       2.766   3.617  19.318  0.00  0.00    +0.000 NA
ATOM     28  H   UNL     1       3.558   2.998  19.498  0.00  0.00    +0.000 HD
BRANCH  27  30
ATOM     29  C   UNL     1       1.913   3.220  21.600  0.00  0.00    +0.000 C 
ATOM     30  C   UNL     1       1.552   3.240  20.113  0.00  0.00    +0.000 C 
BRANCH  30  31
ATOM     31  C   UNL     1       0.985   1.880  19.677  0.00  0.00    +0.000 C 
BRANCH  31  32
ATOM     32  O   UNL     1       0.123   2.019  18.548  0.00  0.00    +0.000 OA
ATOM     33  H   UNL     1       0.302   1.292  17.930  0.00  0.00    +0.000 HD
ENDBRANCH  31  32
ENDBRANCH  30  31
ENDBRANCH  27  30
ENDBRANCH  24  27
ENDBRANCH  18  24
ENDBRANCH   1  23
TORSDOF 7
ENDMDL
MODEL 9
REMARK VINA RESULT:      -8.3      2.724      3.970
REMARK  Name = 
REMARK  8 active torsions:
REMARK  status: ('A' for Active; 'I' for Inactive)
REMARK    1  A    between atoms: C_1  and  C_2
REMARK    2  A    between atoms: C_2  and  C_3
REMARK    3  A    between atoms: C_2  and  N_5
REMARK    4  A    between atoms: C_3  and  O_4
REMARK    5  A    between atoms: N_5  and  S_6
REMARK    6  A    between atoms: S_6  and  C_9
REMARK    7  A    between atoms: C_14  and  C_15
REMARK    8  A    between atoms: C_18  and  C_19
REMARK                            x       y       z     vdW  Elec       q    Type
REMARK                         _______ _______ _______ _____ _____    ______ ____
ROOT
ATOM      1  C   UNL     1       2.238   6.146  18.870  0.00  0.00    +0.000 A 
ATOM      2  C   UNL     1       2.229   6.978  17.753  0.00  0.00    +0.000 A 
ATOM      3  C   UNL     1       1.873   8.327  17.822  0.00  0.00    +0.000 A 
ATOM      4  C   UNL     1       1.612   8.960  19.041  0.00  0.00    +0.000 A 
ATOM      5  C   UNL     1       1.731   8.163  20.183  0.00  0.00    +0.000 A 
ATOM      6  F   UNL     1       1.583   8.696  21.406  0.00  0.00    +0.000 F 
ATOM      7  C   UNL     1       2.010   6.791  20.101  0.00  0.00    +0.000 A 
ENDROOT
BRANCH   4   8
ATOM      8  C   UNL     1       1.280  10.396  19.060  0.00  0.00    +0.000 A 
ATOM      9  C   UNL     1       0.173  10.915  19.740  0.00  0.00    +0.000 A 
ATOM     10  N   UNL     1      -0.158  12.228  19.884  0.00  0.00    +0.000 NA
ATOM     11  C   UNL     1       0.731  13.049  19.300  0.00  0.00    +0.000 A 
ATOM     12  N   UNL     1       0.667  14.416  19.332  0.00  0.00    +0.000 N 
ATOM     13  C   UNL     1       1.743  14.948  18.666  0.00  0.00    +0.000 A 
ATOM     14  C   UNL     1       2.503  13.901  18.185  0.00  0.00    +0.000 A 
ATOM     15  C   UNL     1       1.865  12.699  18.583  0.00  0.00    +0.000 A 
ATOM     16  C   UNL     1       2.130  11.331  18.437  0.00  0.00    +0.000 A 
ATOM     17  H   UNL     1      -0.066  14.928  19.800  0.00  0.00    +0.000 HD
ENDBRANCH   4   8
BRANCH   1  23
ATOM     18  C   UNL     1       3.867   4.107  18.734  0.00  0.00    +0.000 A 
ATOM     19  C   UNL     1       4.004   2.699  18.685  0.00  0.00    +0.000 A 
ATOM     20  C   UNL     1       2.898   1.858  18.613  0.00  0.00    +0.000 A 
ATOM     21  C   UNL     1       1.630   2.409  18.623  0.00  0.00    +0.000 A 
ATOM     22  C   UNL     1       1.478   3.793  18.725  0.00  0.00    +0.000 A 
ATOM     23  C   UNL     1       2.573   4.698  18.775  0.00  0.00    +0.000 A 
BRANCH  18  24
ATOM     24  S   UNL     1       5.445   4.987  18.610  0.00  0.00    +0.000 S 
ATOM     25  O   UNL     1       6.161   4.789  19.847  0.00  0.00    +0.000 OA
ATOM     26  O   UNL     1       5.201   6.334  18.151  0.00  0.00    +0.000 OA
BRANCH  24  27
ATOM     27  N   UNL     1       6.324   4.143  17.408  0.00  0.00    +0.000 NA
ATOM     28  H   UNL     1       7.317   4.112  17.645  0.00  0.00    +0.000 HD
BRANCH  27  30
ATOM     29  C   UNL     1       5.754   3.378  15.132  0.00  0.00    +0.000 C 
ATOM     30  C   UNL     1       6.084   4.595  15.999  0.00  0.00    +0.000 C 
BRANCH  30  31
ATOM     31  C   UNL     1       7.295   5.351  15.429  0.00  0.00    +0.000 C 
BRANCH  31  32
ATOM     32  O   UNL     1       7.599   6.504  16.213  0.00  0.00    +0.000 OA
ATOM     33  H   UNL     1       7.292   6.352  17.121  0.00  0.00    +0.000 HD
ENDBRANCH  31  32
ENDBRANCH  30  31
ENDBRANCH  27  30
ENDBRANCH  24  27
ENDBRANCH  18  24
ENDBRANCH   1  23
TORSDOF 7
ENDMDL
