MODEL 1
REMARK VINA RESULT:      -7.2      0.000      0.000
REMARK  Name = 
REMARK  11 active torsions:
REMARK  status: ('A' for Active; 'I' for Inactive)
REMARK    1  A    between atoms: C_1  and  O_2
REMARK    2  A    between atoms: O_2  and  C_3
REMARK    3  A    between atoms: C_5  and  N_6
REMARK    4  A    between atoms: N_6  and  C_7
REMARK    5  A    between atoms: C_7  and  C_8
REMARK    6  A    between atoms: C_8  and  C_9
REMARK    7  A    between atoms: C_9  and  C_10
REMARK    8  A    between atoms: C_10  and  C_11
REMARK    9  A    between atoms: C_11  and  C_12
REMARK   10  A    between atoms: C_12  and  C_13
REMARK   11  A    between atoms: C_13  and  C_14
REMARK                            x       y       z     vdW  Elec       q    Type
REMARK                         _______ _______ _______ _____ _____    ______ ____
ROOT
ATOM      1  N   UNL     1       4.516   5.114  16.950  0.00  0.00    +0.000 N 
ATOM      2  H   UNL     1       4.103   4.442  16.306  0.00  0.00    +0.000 HD
ENDROOT
BRANCH   1   5
ATOM      3  C   UNL     1       2.363   7.345  19.014  0.00  0.00    +0.000 A 
ATOM      4  C   UNL     1       3.182   6.882  17.992  0.00  0.00    +0.000 A 
ATOM      5  C   UNL     1       3.661   5.558  17.970  0.00  0.00    +0.000 A 
ATOM      6  C   UNL     1       3.343   4.686  19.028  0.00  0.00    +0.000 A 
ATOM      7  N   UNL     1       3.799   3.412  19.015  0.00  0.00    +0.000 NA
ATOM      8  C   UNL     1       3.487   2.606  20.051  0.00  0.00    +0.000 A 
ATOM      9  C   UNL     1       2.723   3.002  21.129  0.00  0.00    +0.000 A 
ATOM     10  C   UNL     1       2.245   4.306  21.145  0.00  0.00    +0.000 A 
ATOM     11  C   UNL     1       2.546   5.176  20.088  0.00  0.00    +0.000 A 
ATOM     12  C   UNL     1       2.067   6.497  20.073  0.00  0.00    +0.000 A 
BRANCH   3  14
ATOM     13  C   UNL     1       1.953   9.375  17.878  0.00  0.00    +0.000 C 
ATOM     14  O   UNL     1       1.845   8.610  19.080  0.00  0.00    +0.000 OA
ENDBRANCH   3  14
ENDBRANCH   1   5
BRANCH   1  15
ATOM     15  C   UNL     1       5.763   5.778  16.665  0.00  0.00    +0.000 C 
BRANCH  15  16
ATOM     16  C   UNL     1       6.848   5.460  17.685  0.00  0.00    +0.000 C 
BRANCH  16  17
ATOM     17  C   UNL     1       7.506   6.747  18.209  0.00  0.00    +0.000 C 
BRANCH  17  18
ATOM     18  C   UNL     1       7.548   7.843  17.145  0.00  0.00    +0.000 C 
BRANCH  18  19
ATOM     19  C   UNL     1       8.047   9.184  17.673  0.00  0.00    +0.000 C 
BRANCH  19  20
ATOM     20  C   UNL     1       8.775   8.948  18.996  0.00  0.00    +0.000 C 
BRANCH  20  21
ATOM     21  C   UNL     1       9.463  10.210  19.513  0.00  0.00    +0.000 C 
BRANCH  21  22
ATOM     22  C   UNL     1       9.523  11.360  18.487  0.00  0.00    +0.000 C 
ATOM     23  C   UNL     1      10.967  11.735  18.117  0.00  0.00    +0.000 C 
ATOM     24  C   UNL     1      11.002  12.878  17.108  0.00  0.00    +0.000 C 
ATOM     25  C   UNL     1      10.175  14.057  17.612  0.00  0.00    +0.000 C 
ATOM     26  C   UNL     1       8.767  13.615  18.006  0.00  0.00    +0.000 C 
ATOM     27  N   UNL     1       8.800  12.536  18.993  0.00  0.00    +0.000 NA
ATOM     28  H   UNL     1       7.846  12.273  19.237  0.00  0.00    +0.000 HD
ENDBRANCH  21  22
ENDBRANCH  20  21
ENDBRANCH  19  20
ENDBRANCH  18  19
ENDBRANCH  17  18
ENDBRANCH  16  17
ENDBRANCH  15  16
ENDBRANCH   1  15
TORSDOF 10
ENDMDL
MODEL 2
REMARK VINA RESULT:      -7.2      1.155      1.525
REMARK  Name = 
REMARK  11 active torsions:
REMARK  status: ('A' for Active; 'I' for Inactive)
REMARK    1  A    between atoms: C_1  and  O_2
REMARK    2  A    between atoms: O_2  and  C_3
REMARK    3  A    between atoms: C_5  and  N_6
REMARK    4  A    between atoms: N_6  and  C_7
REMARK    5  A    between atoms: C_7  and  C_8
REMARK    6  A    between atoms: C_8  and  C_9
REMARK    7  A    between atoms: C_9  and  C_10
REMARK    8  A    between atoms: C_10  and  C_11
REMARK    9  A    between atoms: C_11  and  C_12
REMARK   10  A    between atoms: C_12  and  C_13
REMARK   11  A    between atoms: C_13  and  C_14
REMARK                            x       y       z     vdW  Elec       q    Type
REMARK                         _______ _______ _______ _____ _____    ______ ____
ROOT
ATOM      1  N   UNL     1       4.613   4.632  17.313  0.00  0.00    +0.000 N 
ATOM      2  H   UNL     1       4.950   3.708  17.580  0.00  0.00    +0.000 HD
ENDROOT
BRANCH   1   5
ATOM      3  C   UNL     1       2.470   7.123  19.065  0.00  0.00    +0.000 A 
ATOM      4  C   UNL     1       3.399   6.565  18.198  0.00  0.00    +0.000 A 
ATOM      5  C   UNL     1       3.646   5.178  18.170  0.00  0.00    +0.000 A 
ATOM      6  C   UNL     1       2.970   4.333  19.070  0.00  0.00    +0.000 A 
ATOM      7  N   UNL     1       3.201   3.000  19.050  0.00  0.00    +0.000 NA
ATOM      8  C   UNL     1       2.545   2.221  19.935  0.00  0.00    +0.000 A 
ATOM      9  C   UNL     1       1.646   2.702  20.864  0.00  0.00    +0.000 A 
ATOM     10  C   UNL     1       1.398   4.068  20.884  0.00  0.00    +0.000 A 
ATOM     11  C   UNL     1       2.058   4.913  19.981  0.00  0.00    +0.000 A 
ATOM     12  C   UNL     1       1.818   6.298  19.973  0.00  0.00    +0.000 A 
BRANCH   3  14
ATOM     13  C   UNL     1       1.868   9.067  17.867  0.00  0.00    +0.000 C 
ATOM     14  O   UNL     1       2.166   8.456  19.123  0.00  0.00    +0.000 OA
ENDBRANCH   3  14
ENDBRANCH   1   5
BRANCH   1  15
ATOM     15  C   UNL     1       4.877   5.194  16.013  0.00  0.00    +0.000 C 
BRANCH  15  16
ATOM     16  C   UNL     1       6.312   5.682  15.860  0.00  0.00    +0.000 C 
BRANCH  16  17
ATOM     17  C   UNL     1       7.133   5.382  17.125  0.00  0.00    +0.000 C 
BRANCH  17  18
ATOM     18  C   UNL     1       7.148   6.567  18.091  0.00  0.00    +0.000 C 
BRANCH  18  19
ATOM     19  C   UNL     1       7.735   7.837  17.485  0.00  0.00    +0.000 C 
BRANCH  19  20
ATOM     20  C   UNL     1       8.540   8.565  18.562  0.00  0.00    +0.000 C 
BRANCH  20  21
ATOM     21  C   UNL     1       8.612  10.071  18.314  0.00  0.00    +0.000 C 
BRANCH  21  22
ATOM     22  C   UNL     1       9.969  10.705  18.681  0.00  0.00    +0.000 C 
ATOM     23  C   UNL     1       9.935  11.401  20.050  0.00  0.00    +0.000 C 
ATOM     24  C   UNL     1      11.285  12.027  20.387  0.00  0.00    +0.000 C 
ATOM     25  C   UNL     1      11.747  12.935  19.252  0.00  0.00    +0.000 C 
ATOM     26  C   UNL     1      11.716  12.204  17.912  0.00  0.00    +0.000 C 
ATOM     27  N   UNL     1      10.392  11.648  17.634  0.00  0.00    +0.000 NA
ATOM     28  H   UNL     1      10.406  11.176  16.731  0.00  0.00    +0.000 HD
ENDBRANCH  21  22
ENDBRANCH  20  21
ENDBRANCH  19  20
ENDBRANCH  18  19
ENDBRANCH  17  18
ENDBRANCH  16  17
ENDBRANCH  15  16
ENDBRANCH   1  15
TORSDOF 10
ENDMDL
MODEL 3
REMARK VINA RESULT:      -7.1      1.049      1.178
REMARK  Name = 
REMARK  11 active torsions:
REMARK  status: ('A' for Active; 'I' for Inactive)
REMARK    1  A    between atoms: C_1  and  O_2
REMARK    2  A    between atoms: O_2  and  C_3
REMARK    3  A    between atoms: C_5  and  N_6
REMARK    4  A    between atoms: N_6  and  C_7
REMARK    5  A    between atoms: C_7  and  C_8
REMARK    6  A    between atoms: C_8  and  C_9
REMARK    7  A    between atoms: C_9  and  C_10
REMARK    8  A    between atoms: C_10  and  C_11
REMARK    9  A    between atoms: C_11  and  C_12
REMARK   10  A    between atoms: C_12  and  C_13
REMARK   11  A    between atoms: C_13  and  C_14
REMARK                            x       y       z     vdW  Elec       q    Type
REMARK                         _______ _______ _______ _____ _____    ______ ____
ROOT
ATOM      1  N   UNL     1       3.893   4.102  16.728  0.00  0.00    +0.000 N 
ATOM      2  H   UNL     1       3.358   3.943  15.875  0.00  0.00    +0.000 HD
ENDROOT
BRANCH   1   5
ATOM      3  C   UNL     1       2.602   7.010  18.663  0.00  0.00    +0.000 A 
ATOM      4  C   UNL     1       3.226   6.257  17.677  0.00  0.00    +0.000 A 
ATOM      5  C   UNL     1       3.229   4.850  17.712  0.00  0.00    +0.000 A 
ATOM      6  C   UNL     1       2.624   4.179  18.792  0.00  0.00    +0.000 A 
ATOM      7  N   UNL     1       2.622   2.827  18.833  0.00  0.00    +0.000 NA
ATOM      8  C   UNL     1       2.044   2.216  19.888  0.00  0.00    +0.000 A 
ATOM      9  C   UNL     1       1.449   2.891  20.935  0.00  0.00    +0.000 A 
ATOM     10  C   UNL     1       1.441   4.279  20.894  0.00  0.00    +0.000 A 
ATOM     11  C   UNL     1       2.029   4.952  19.815  0.00  0.00    +0.000 A 
ATOM     12  C   UNL     1       2.026   6.356  19.744  0.00  0.00    +0.000 A 
BRANCH   3  14
ATOM     13  C   UNL     1       1.452   8.933  19.412  0.00  0.00    +0.000 C 
ATOM     14  O   UNL     1       2.542   8.378  18.673  0.00  0.00    +0.000 OA
ENDBRANCH   3  14
ENDBRANCH   1   5
BRANCH   1  15
ATOM     15  C   UNL     1       5.309   3.846  16.799  0.00  0.00    +0.000 C 
BRANCH  15  16
ATOM     16  C   UNL     1       6.140   4.943  16.146  0.00  0.00    +0.000 C 
BRANCH  16  17
ATOM     17  C   UNL     1       7.179   5.507  17.129  0.00  0.00    +0.000 C 
BRANCH  17  18
ATOM     18  C   UNL     1       7.004   7.010  17.346  0.00  0.00    +0.000 C 
BRANCH  18  19
ATOM     19  C   UNL     1       8.075   7.623  18.243  0.00  0.00    +0.000 C 
BRANCH  19  20
ATOM     20  C   UNL     1       8.178   9.115  17.930  0.00  0.00    +0.000 C 
BRANCH  20  21
ATOM     21  C   UNL     1       9.072   9.856  18.923  0.00  0.00    +0.000 C 
BRANCH  21  22
ATOM     22  C   UNL     1       9.285  11.346  18.589  0.00  0.00    +0.000 C 
ATOM     23  C   UNL     1      10.567  11.584  17.776  0.00  0.00    +0.000 C 
ATOM     24  C   UNL     1      10.760  13.065  17.465  0.00  0.00    +0.000 C 
ATOM     25  C   UNL     1      10.687  13.890  18.745  0.00  0.00    +0.000 C 
ATOM     26  C   UNL     1       9.416  13.579  19.532  0.00  0.00    +0.000 C 
ATOM     27  N   UNL     1       9.300  12.150  19.821  0.00  0.00    +0.000 NA
ATOM     28  H   UNL     1       8.447  11.980  20.352  0.00  0.00    +0.000 HD
ENDBRANCH  21  22
ENDBRANCH  20  21
ENDBRANCH  19  20
ENDBRANCH  18  19
ENDBRANCH  17  18
ENDBRANCH  16  17
ENDBRANCH  15  16
ENDBRANCH   1  15
TORSDOF 10
ENDMDL
MODEL 4
REMARK VINA RESULT:      -7.0      4.176      7.214
REMARK  Name = 
REMARK  11 active torsions:
REMARK  status: ('A' for Active; 'I' for Inactive)
REMARK    1  A    between atoms: C_1  and  O_2
REMARK    2  A    between atoms: O_2  and  C_3
REMARK    3  A    between atoms: C_5  and  N_6
REMARK    4  A    between atoms: N_6  and  C_7
REMARK    5  A    between atoms: C_7  and  C_8
REMARK    6  A    between atoms: C_8  and  C_9
REMARK    7  A    between atoms: C_9  and  C_10
REMARK    8  A    between atoms: C_10  and  C_11
REMARK    9  A    between atoms: C_11  and  C_12
REMARK   10  A    between atoms: C_12  and  C_13
REMARK   11  A    between atoms: C_13  and  C_14
REMARK                            x       y       z     vdW  Elec       q    Type
REMARK                         _______ _______ _______ _____ _____    ______ ____
ROOT
ATOM      1  N   UNL     1       4.542   2.670  17.486  0.00  0.00    +0.000 N 
ATOM      2  H   UNL     1       5.034   2.067  18.142  0.00  0.00    +0.000 HD
ENDROOT
BRANCH   1   5
ATOM      3  C   UNL     1       6.330   4.263  14.634  0.00  0.00    +0.000 A 
ATOM      4  C   UNL     1       5.495   3.426  15.361  0.00  0.00    +0.000 A 
ATOM      5  C   UNL     1       5.362   3.546  16.758  0.00  0.00    +0.000 A 
ATOM      6  C   UNL     1       6.122   4.508  17.449  0.00  0.00    +0.000 A 
ATOM      7  N   UNL     1       6.000   4.631  18.792  0.00  0.00    +0.000 NA
ATOM      8  C   UNL     1       6.753   5.554  19.424  0.00  0.00    +0.000 A 
ATOM      9  C   UNL     1       7.644   6.390  18.783  0.00  0.00    +0.000 A 
ATOM     10  C   UNL     1       7.768   6.275  17.404  0.00  0.00    +0.000 A 
ATOM     11  C   UNL     1       7.003   5.328  16.708  0.00  0.00    +0.000 A 
ATOM     12  C   UNL     1       7.102   5.198  15.312  0.00  0.00    +0.000 A 
BRANCH   3  14
ATOM     13  C   UNL     1       7.566   4.991  12.757  0.00  0.00    +0.000 C 
ATOM     14  O   UNL     1       6.484   4.215  13.274  0.00  0.00    +0.000 OA
ENDBRANCH   3  14
ENDBRANCH   1   5
BRANCH   1  15
ATOM     15  C   UNL     1       3.110   2.827  17.518  0.00  0.00    +0.000 C 
BRANCH  15  16
ATOM     16  C   UNL     1       2.426   1.815  18.430  0.00  0.00    +0.000 C 
BRANCH  16  17
ATOM     17  C   UNL     1       1.008   2.278  18.802  0.00  0.00    +0.000 C 
BRANCH  17  18
ATOM     18  C   UNL     1       1.005   3.683  19.405  0.00  0.00    +0.000 C 
BRANCH  18  19
ATOM     19  C   UNL     1       1.348   3.707  20.891  0.00  0.00    +0.000 C 
BRANCH  19  20
ATOM     20  C   UNL     1       2.304   4.871  21.152  0.00  0.00    +0.000 C 
BRANCH  20  21
ATOM     21  C   UNL     1       2.811   5.506  19.859  0.00  0.00    +0.000 C 
BRANCH  21  22
ATOM     22  C   UNL     1       2.033   6.766  19.429  0.00  0.00    +0.000 C 
ATOM     23  C   UNL     1       2.685   7.474  18.230  0.00  0.00    +0.000 C 
ATOM     24  C   UNL     1       1.903   8.720  17.829  0.00  0.00    +0.000 C 
ATOM     25  C   UNL     1       1.696   9.629  19.036  0.00  0.00    +0.000 C 
ATOM     26  C   UNL     1       1.089   8.862  20.207  0.00  0.00    +0.000 C 
ATOM     27  N   UNL     1       1.895   7.694  20.561  0.00  0.00    +0.000 NA
ATOM     28  H   UNL     1       1.465   7.213  21.350  0.00  0.00    +0.000 HD
ENDBRANCH  21  22
ENDBRANCH  20  21
ENDBRANCH  19  20
ENDBRANCH  18  19
ENDBRANCH  17  18
ENDBRANCH  16  17
ENDBRANCH  15  16
ENDBRANCH   1  15
TORSDOF 10
ENDMDL
MODEL 5
REMARK VINA RESULT:      -7.0      3.845      7.076
REMARK  Name = 
REMARK  11 active torsions:
REMARK  status: ('A' for Active; 'I' for Inactive)
REMARK    1  A    between atoms: C_1  and  O_2
REMARK    2  A    between atoms: O_2  and  C_3
REMARK    3  A    between atoms: C_5  and  N_6
REMARK    4  A    between atoms: N_6  and  C_7
REMARK    5  A    between atoms: C_7  and  C_8
REMARK    6  A    between atoms: C_8  and  C_9
REMARK    7  A    between atoms: C_9  and  C_10
REMARK    8  A    between atoms: C_10  and  C_11
REMARK    9  A    between atoms: C_11  and  C_12
REMARK   10  A    between atoms: C_12  and  C_13
REMARK   11  A    between atoms: C_13  and  C_14
REMARK                            x       y       z     vdW  Elec       q    Type
REMARK                         _______ _______ _______ _____ _____    ______ ____
ROOT
ATOM      1  N   UNL     1       4.868   3.006  19.202  0.00  0.00    +0.000 N 
ATOM      2  H   UNL     1       4.719   3.519  20.069  0.00  0.00    +0.000 HD
ENDROOT
BRANCH   1   5
ATOM      3  C   UNL     1       5.323   4.263  15.726  0.00  0.00    +0.000 A 
ATOM      4  C   UNL     1       4.870   3.521  16.809  0.00  0.00    +0.000 A 
ATOM      5  C   UNL     1       5.306   3.786  18.121  0.00  0.00    +0.000 A 
ATOM      6  C   UNL     1       6.256   4.800  18.347  0.00  0.00    +0.000 A 
ATOM      7  N   UNL     1       6.680   5.063  19.605  0.00  0.00    +0.000 NA
ATOM      8  C   UNL     1       7.601   6.032  19.785  0.00  0.00    +0.000 A 
ATOM      9  C   UNL     1       8.139   6.780  18.758  0.00  0.00    +0.000 A 
ATOM     10  C   UNL     1       7.702   6.521  17.465  0.00  0.00    +0.000 A 
ATOM     11  C   UNL     1       6.746   5.523  17.235  0.00  0.00    +0.000 A 
ATOM     12  C   UNL     1       6.279   5.247  15.938  0.00  0.00    +0.000 A 
BRANCH   3  14
ATOM     13  C   UNL     1       5.974   3.859  13.491  0.00  0.00    +0.000 C 
ATOM     14  O   UNL     1       4.919   4.071  14.432  0.00  0.00    +0.000 OA
ENDBRANCH   3  14
ENDBRANCH   1   5
BRANCH   1  15
ATOM     15  C   UNL     1       4.383   1.662  19.018  0.00  0.00    +0.000 C 
BRANCH  15  16
ATOM     16  C   UNL     1       2.983   1.617  18.420  0.00  0.00    +0.000 C 
BRANCH  16  17
ATOM     17  C   UNL     1       1.950   2.217  19.388  0.00  0.00    +0.000 C 
BRANCH  17  18
ATOM     18  C   UNL     1       0.911   3.069  18.660  0.00  0.00    +0.000 C 
BRANCH  18  19
ATOM     19  C   UNL     1       1.506   4.289  17.964  0.00  0.00    +0.000 C 
BRANCH  19  20
ATOM     20  C   UNL     1       2.025   5.254  19.030  0.00  0.00    +0.000 C 
BRANCH  20  21
ATOM     21  C   UNL     1       2.836   6.401  18.428  0.00  0.00    +0.000 C 
BRANCH  21  22
ATOM     22  C   UNL     1       2.387   7.801  18.894  0.00  0.00    +0.000 C 
ATOM     23  C   UNL     1       1.619   7.754  20.224  0.00  0.00    +0.000 C 
ATOM     24  C   UNL     1       1.179   9.148  20.659  0.00  0.00    +0.000 C 
ATOM     25  C   UNL     1       0.412   9.838  19.536  0.00  0.00    +0.000 C 
ATOM     26  C   UNL     1       1.204   9.813  18.230  0.00  0.00    +0.000 C 
ATOM     27  N   UNL     1       1.575   8.450  17.853  0.00  0.00    +0.000 NA
ATOM     28  H   UNL     1       2.093   8.471  16.976  0.00  0.00    +0.000 HD
ENDBRANCH  21  22
ENDBRANCH  20  21
ENDBRANCH  19  20
ENDBRANCH  18  19
ENDBRANCH  17  18
ENDBRANCH  16  17
ENDBRANCH  15  16
ENDBRANCH   1  15
TORSDOF 10
ENDMDL
MODEL 6
REMARK VINA RESULT:      -6.9      4.482      7.267
REMARK  Name = 
REMARK  11 active torsions:
REMARK  status: ('A' for Active; 'I' for Inactive)
REMARK    1  A    between atoms: C_1  and  O_2
REMARK    2  A    between atoms: O_2  and  C_3
REMARK    3  A    between atoms: C_5  and  N_6
REMARK    4  A    between atoms: N_6  and  C_7
REMARK    5  A    between atoms: C_7  and  C_8
REMARK    6  A    between atoms: C_8  and  C_9
REMARK    7  A    between atoms: C_9  and  C_10
REMARK    8  A    between atoms: C_10  and  C_11
REMARK    9  A    between atoms: C_11  and  C_12
REMARK   10  A    between atoms: C_12  and  C_13
REMARK   11  A    between atoms: C_13  and  C_14
REMARK                            x       y       z     vdW  Elec       q    Type
REMARK                         _______ _______ _______ _____ _____    ______ ____
ROOT
ATOM      1  N   UNL     1       3.499   3.448  17.107  0.00  0.00    +0.000 N 
ATOM      2  H   UNL     1       2.678   4.030  16.949  0.00  0.00    +0.000 HD
ENDROOT
BRANCH   1   5
ATOM      3  C   UNL     1       6.231   4.277  14.717  0.00  0.00    +0.000 A 
ATOM      4  C   UNL     1       5.033   3.802  15.233  0.00  0.00    +0.000 A 
ATOM      5  C   UNL     1       4.697   3.963  16.591  0.00  0.00    +0.000 A 
ATOM      6  C   UNL     1       5.612   4.582  17.465  0.00  0.00    +0.000 A 
ATOM      7  N   UNL     1       5.297   4.741  18.772  0.00  0.00    +0.000 NA
ATOM      8  C   UNL     1       6.201   5.326  19.584  0.00  0.00    +0.000 A 
ATOM      9  C   UNL     1       7.435   5.778  19.162  0.00  0.00    +0.000 A 
ATOM     10  C   UNL     1       7.760   5.625  17.820  0.00  0.00    +0.000 A 
ATOM     11  C   UNL     1       6.848   5.023  16.942  0.00  0.00    +0.000 A 
ATOM     12  C   UNL     1       7.148   4.865  15.578  0.00  0.00    +0.000 A 
BRANCH   3  14
ATOM     13  C   UNL     1       5.758   3.357  12.593  0.00  0.00    +0.000 C 
ATOM     14  O   UNL     1       6.604   4.175  13.404  0.00  0.00    +0.000 OA
ENDBRANCH   3  14
ENDBRANCH   1   5
BRANCH   1  15
ATOM     15  C   UNL     1       3.392   2.081  17.552  0.00  0.00    +0.000 C 
BRANCH  15  16
ATOM     16  C   UNL     1       3.068   1.967  19.035  0.00  0.00    +0.000 C 
BRANCH  16  17
ATOM     17  C   UNL     1       1.803   2.767  19.388  0.00  0.00    +0.000 C 
BRANCH  17  18
ATOM     18  C   UNL     1       1.757   3.141  20.869  0.00  0.00    +0.000 C 
BRANCH  18  19
ATOM     19  C   UNL     1       2.074   4.608  21.135  0.00  0.00    +0.000 C 
BRANCH  19  20
ATOM     20  C   UNL     1       1.906   5.388  19.831  0.00  0.00    +0.000 C 
BRANCH  20  21
ATOM     21  C   UNL     1       2.460   6.809  19.930  0.00  0.00    +0.000 C 
BRANCH  21  22
ATOM     22  C   UNL     1       1.438   7.850  20.431  0.00  0.00    +0.000 C 
ATOM     23  C   UNL     1       1.287   9.032  19.461  0.00  0.00    +0.000 C 
ATOM     24  C   UNL     1       0.279  10.051  19.982  0.00  0.00    +0.000 C 
ATOM     25  C   UNL     1       0.633  10.470  21.405  0.00  0.00    +0.000 C 
ATOM     26  C   UNL     1       0.815   9.254  22.310  0.00  0.00    +0.000 C 
ATOM     27  N   UNL     1       1.811   8.328  21.771  0.00  0.00    +0.000 NA
ATOM     28  H   UNL     1       1.911   7.534  22.403  0.00  0.00    +0.000 HD
ENDBRANCH  21  22
ENDBRANCH  20  21
ENDBRANCH  19  20
ENDBRANCH  18  19
ENDBRANCH  17  18
ENDBRANCH  16  17
ENDBRANCH  15  16
ENDBRANCH   1  15
TORSDOF 10
ENDMDL
MODEL 7
REMARK VINA RESULT:      -6.9      1.409      1.682
REMARK  Name = 
REMARK  11 active torsions:
REMARK  status: ('A' for Active; 'I' for Inactive)
REMARK    1  A    between atoms: C_1  and  O_2
REMARK    2  A    between atoms: O_2  and  C_3
REMARK    3  A    between atoms: C_5  and  N_6
REMARK    4  A    between atoms: N_6  and  C_7
REMARK    5  A    between atoms: C_7  and  C_8
REMARK    6  A    between atoms: C_8  and  C_9
REMARK    7  A    between atoms: C_9  and  C_10
REMARK    8  A    between atoms: C_10  and  C_11
REMARK    9  A    between atoms: C_11  and  C_12
REMARK   10  A    between atoms: C_12  and  C_13
REMARK   11  A    between atoms: C_13  and  C_14
REMARK                            x       y       z     vdW  Elec       q    Type
REMARK                         _______ _______ _______ _____ _____    ______ ____
ROOT
ATOM      1  N   UNL     1       3.806   5.486  17.168  0.00  0.00    +0.000 N 
ATOM      2  H   UNL     1       3.386   4.848  16.494  0.00  0.00    +0.000 HD
ENDROOT
BRANCH   1   5
ATOM      3  C   UNL     1       1.998   7.318  19.860  0.00  0.00    +0.000 A 
ATOM      4  C   UNL     1       2.738   7.054  18.715  0.00  0.00    +0.000 A 
ATOM      5  C   UNL     1       3.028   5.738  18.308  0.00  0.00    +0.000 A 
ATOM      6  C   UNL     1       2.597   4.655  19.098  0.00  0.00    +0.000 A 
ATOM      7  N   UNL     1       2.870   3.386  18.714  0.00  0.00    +0.000 NA
ATOM      8  C   UNL     1       2.453   2.373  19.500  0.00  0.00    +0.000 A 
ATOM      9  C   UNL     1       1.759   2.550  20.679  0.00  0.00    +0.000 A 
ATOM     10  C   UNL     1       1.468   3.850  21.075  0.00  0.00    +0.000 A 
ATOM     11  C   UNL     1       1.882   4.931  20.285  0.00  0.00    +0.000 A 
ATOM     12  C   UNL     1       1.592   6.256  20.657  0.00  0.00    +0.000 A 
BRANCH   3  14
ATOM     13  C   UNL     1       0.996   8.619  21.558  0.00  0.00    +0.000 C 
ATOM     14  O   UNL     1       1.662   8.572  20.295  0.00  0.00    +0.000 OA
ENDBRANCH   3  14
ENDBRANCH   1   5
BRANCH   1  15
ATOM     15  C   UNL     1       4.954   6.294  16.842  0.00  0.00    +0.000 C 
BRANCH  15  16
ATOM     16  C   UNL     1       6.019   6.271  17.931  0.00  0.00    +0.000 C 
BRANCH  16  17
ATOM     17  C   UNL     1       7.409   6.572  17.348  0.00  0.00    +0.000 C 
BRANCH  17  18
ATOM     18  C   UNL     1       8.204   7.533  18.232  0.00  0.00    +0.000 C 
BRANCH  18  19
ATOM     19  C   UNL     1       8.009   9.000  17.863  0.00  0.00    +0.000 C 
BRANCH  19  20
ATOM     20  C   UNL     1       8.800   9.860  18.848  0.00  0.00    +0.000 C 
BRANCH  20  21
ATOM     21  C   UNL     1       9.700  10.873  18.141  0.00  0.00    +0.000 C 
BRANCH  21  22
ATOM     22  C   UNL     1       9.955  12.161  18.950  0.00  0.00    +0.000 C 
ATOM     23  C   UNL     1       9.960  11.906  20.466  0.00  0.00    +0.000 C 
ATOM     24  C   UNL     1      10.206  13.195  21.243  0.00  0.00    +0.000 C 
ATOM     25  C   UNL     1       9.219  14.274  20.809  0.00  0.00    +0.000 C 
ATOM     26  C   UNL     1       9.226  14.450  19.292  0.00  0.00    +0.000 C 
ATOM     27  N   UNL     1       8.961  13.188  18.604  0.00  0.00    +0.000 NA
ATOM     28  H   UNL     1       8.965  13.344  17.597  0.00  0.00    +0.000 HD
ENDBRANCH  21  22
ENDBRANCH  20  21
ENDBRANCH  19  20
ENDBRANCH  18  19
ENDBRANCH  17  18
ENDBRANCH  16  17
ENDBRANCH  15  16
ENDBRANCH   1  15
TORSDOF 10
ENDMDL
MODEL 8
REMARK VINA RESULT:      -6.9      3.845      6.678
REMARK  Name = 
REMARK  11 active torsions:
REMARK  status: ('A' for Active; 'I' for Inactive)
REMARK    1  A    between atoms: C_1  and  O_2
REMARK    2  A    between atoms: O_2  and  C_3
REMARK    3  A    between atoms: C_5  and  N_6
REMARK    4  A    between atoms: N_6  and  C_7
REMARK    5  A    between atoms: C_7  and  C_8
REMARK    6  A    between atoms: C_8  and  C_9
REMARK    7  A    between atoms: C_9  and  C_10
REMARK    8  A    between atoms: C_10  and  C_11
REMARK    9  A    between atoms: C_11  and  C_12
REMARK   10  A    between atoms: C_12  and  C_13
REMARK   11  A    between atoms: C_13  and  C_14
REMARK                            x       y       z     vdW  Elec       q    Type
REMARK                         _______ _______ _______ _____ _____    ______ ____
ROOT
ATOM      1  N   UNL     1       2.332   6.178  20.448  0.00  0.00    +0.000 N 
ATOM      2  H   UNL     1       3.263   6.266  20.045  0.00  0.00    +0.000 HD
ENDROOT
BRANCH   1   5
ATOM      3  C   UNL     1       0.081   8.791  21.855  0.00  0.00    +0.000 A 
ATOM      4  C   UNL     1       0.803   7.613  21.711  0.00  0.00    +0.000 A 
ATOM      5  C   UNL     1       1.636   7.387  20.598  0.00  0.00    +0.000 A 
ATOM      6  C   UNL     1       1.713   8.355  19.579  0.00  0.00    +0.000 A 
ATOM      7  N   UNL     1       2.511   8.146  18.506  0.00  0.00    +0.000 NA
ATOM      8  C   UNL     1       2.552   9.089  17.542  0.00  0.00    +0.000 A 
ATOM      9  C   UNL     1       1.827  10.262  17.583  0.00  0.00    +0.000 A 
ATOM     10  C   UNL     1       1.012  10.486  18.685  0.00  0.00    +0.000 A 
ATOM     11  C   UNL     1       0.942   9.532  19.710  0.00  0.00    +0.000 A 
ATOM     12  C   UNL     1       0.133   9.738  20.841  0.00  0.00    +0.000 A 
BRANCH   3  14
ATOM     13  C   UNL     1      -0.974  10.471  23.136  0.00  0.00    +0.000 C 
ATOM     14  O   UNL     1      -0.724   9.081  22.923  0.00  0.00    +0.000 OA
ENDBRANCH   3  14
ENDBRANCH   1   5
BRANCH   1  15
ATOM     15  C   UNL     1       1.887   4.965  21.085  0.00  0.00    +0.000 C 
BRANCH  15  16
ATOM     16  C   UNL     1       0.814   4.237  20.286  0.00  0.00    +0.000 C 
BRANCH  16  17
ATOM     17  C   UNL     1       1.247   2.797  19.965  0.00  0.00    +0.000 C 
BRANCH  17  18
ATOM     18  C   UNL     1       1.369   2.558  18.460  0.00  0.00    +0.000 C 
BRANCH  18  19
ATOM     19  C   UNL     1       2.742   2.046  18.035  0.00  0.00    +0.000 C 
BRANCH  19  20
ATOM     20  C   UNL     1       3.793   3.085  18.427  0.00  0.00    +0.000 C 
BRANCH  20  21
ATOM     21  C   UNL     1       3.694   4.356  17.584  0.00  0.00    +0.000 C 
BRANCH  21  22
ATOM     22  C   UNL     1       5.053   5.020  17.283  0.00  0.00    +0.000 C 
ATOM     23  C   UNL     1       6.205   4.369  18.066  0.00  0.00    +0.000 C 
ATOM     24  C   UNL     1       7.536   5.047  17.759  0.00  0.00    +0.000 C 
ATOM     25  C   UNL     1       7.427   6.554  17.973  0.00  0.00    +0.000 C 
ATOM     26  C   UNL     1       6.240   7.135  17.209  0.00  0.00    +0.000 C 
ATOM     27  N   UNL     1       4.991   6.462  17.564  0.00  0.00    +0.000 NA
ATOM     28  H   UNL     1       4.221   6.880  17.043  0.00  0.00    +0.000 HD
ENDBRANCH  21  22
ENDBRANCH  20  21
ENDBRANCH  19  20
ENDBRANCH  18  19
ENDBRANCH  17  18
ENDBRANCH  16  17
ENDBRANCH  15  16
ENDBRANCH   1  15
TORSDOF 10
ENDMDL
MODEL 9
REMARK VINA RESULT:      -6.9      4.646      7.264
REMARK  Name = 
REMARK  11 active torsions:
REMARK  status: ('A' for Active; 'I' for Inactive)
REMARK    1  A    between atoms: C_1  and  O_2
REMARK    2  A    between atoms: O_2  and  C_3
REMARK    3  A    between atoms: C_5  and  N_6
REMARK    4  A    between atoms: N_6  and  C_7
REMARK    5  A    between atoms: C_7  and  C_8
REMARK    6  A    between atoms: C_8  and  C_9
REMARK    7  A    between atoms: C_9  and  C_10
REMARK    8  A    between atoms: C_10  and  C_11
REMARK    9  A    between atoms: C_11  and  C_12
REMARK   10  A    between atoms: C_12  and  C_13
REMARK   11  A    between atoms: C_13  and  C_14
REMARK                            x       y       z     vdW  Elec       q    Type
REMARK                         _______ _______ _______ _____ _____    ______ ____
ROOT
ATOM      1  N   UNL     1       1.783   8.571  19.306  0.00  0.00    +0.000 N 
ATOM      2  H   UNL     1       2.096   8.116  20.162  0.00  0.00    +0.000 HD
ENDROOT
BRANCH   1   5
ATOM      3  C   UNL     1      -0.878  11.052  18.513  0.00  0.00    +0.000 A 
ATOM      4  C   UNL     1       0.154  10.136  18.363  0.00  0.00    +0.000 A 
ATOM      5  C   UNL     1       0.718   9.468  19.468  0.00  0.00    +0.000 A 
ATOM      6  C   UNL     1       0.259   9.763  20.766  0.00  0.00    +0.000 A 
ATOM      7  N   UNL     1       0.795   9.126  21.833  0.00  0.00    +0.000 NA
ATOM      8  C   UNL     1       0.342   9.441  23.064  0.00  0.00    +0.000 A 
ATOM      9  C   UNL     1      -0.643  10.377  23.304  0.00  0.00    +0.000 A 
ATOM     10  C   UNL     1      -1.203  11.028  22.212  0.00  0.00    +0.000 A 
ATOM     11  C   UNL     1      -0.761  10.729  20.916  0.00  0.00    +0.000 A 
ATOM     12  C   UNL     1      -1.317  11.366  19.793  0.00  0.00    +0.000 A 
BRANCH   3  14
ATOM     13  C   UNL     1      -2.872  11.425  17.304  0.00  0.00    +0.000 C 
ATOM     14  O   UNL     1      -1.485  11.714  17.480  0.00  0.00    +0.000 OA
ENDBRANCH   3  14
ENDBRANCH   1   5
BRANCH   1  15
ATOM     15  C   UNL     1       2.192   8.109  18.003  0.00  0.00    +0.000 C 
BRANCH  15  16
ATOM     16  C   UNL     1       3.114   6.899  18.069  0.00  0.00    +0.000 C 
BRANCH  16  17
ATOM     17  C   UNL     1       2.874   6.091  19.354  0.00  0.00    +0.000 C 
BRANCH  17  18
ATOM     18  C   UNL     1       1.902   4.932  19.129  0.00  0.00    +0.000 C 
BRANCH  18  19
ATOM     19  C   UNL     1       1.976   4.342  17.725  0.00  0.00    +0.000 C 
BRANCH  19  20
ATOM     20  C   UNL     1       2.247   2.842  17.840  0.00  0.00    +0.000 C 
BRANCH  20  21
ATOM     21  C   UNL     1       3.733   2.510  17.713  0.00  0.00    +0.000 C 
BRANCH  21  22
ATOM     22  C   UNL     1       4.642   3.744  17.544  0.00  0.00    +0.000 C 
ATOM     23  C   UNL     1       5.267   3.819  16.142  0.00  0.00    +0.000 C 
ATOM     24  C   UNL     1       6.168   5.042  16.002  0.00  0.00    +0.000 C 
ATOM     25  C   UNL     1       7.193   5.080  17.130  0.00  0.00    +0.000 C 
ATOM     26  C   UNL     1       6.517   4.956  18.494  0.00  0.00    +0.000 C 
ATOM     27  N   UNL     1       5.689   3.754  18.576  0.00  0.00    +0.000 NA
ATOM     28  H   UNL     1       5.262   3.700  19.499  0.00  0.00    +0.000 HD
ENDBRANCH  21  22
ENDBRANCH  20  21
ENDBRANCH  19  20
ENDBRANCH  18  19
ENDBRANCH  17  18
ENDBRANCH  16  17
ENDBRANCH  15  16
ENDBRANCH   1  15
TORSDOF 10
ENDMDL
