MODEL 1
REMARK VINA RESULT:      -8.8      0.000      0.000
REMARK  Name = 
REMARK  6 active torsions:
REMARK  status: ('A' for Active; 'I' for Inactive)
REMARK    1  A    between atoms: C_1  and  C_2
REMARK    2  A    between atoms: C_6  and  N_7
REMARK    3  A    between atoms: N_7  and  C_8
REMARK    4  A    between atoms: N_7  and  C_9
REMARK    5  A    between atoms: C_9  and  C_10
REMARK    6  A    between atoms: C_15  and  C_16
REMARK                            x       y       z     vdW  Elec       q    Type
REMARK                         _______ _______ _______ _____ _____    ______ ____
ROOT
ATOM      1  C   UNL     1       1.760   8.799  19.003  0.00  0.00    +0.000 C 
ATOM      2  C   UNL     1       2.346   8.677  17.517  0.00  0.00    +0.000 C 
ATOM      3  C   UNL     1       3.138   7.681  18.046  0.00  0.00    +0.000 C 
ATOM      4  C   UNL     1       3.873   6.541  17.897  0.00  0.00    +0.000 C 
ATOM      5  C   UNL     1       3.669   5.939  19.269  0.00  0.00    +0.000 C 
ATOM      6  C   UNL     1       4.782   5.109  18.760  0.00  0.00    +0.000 C 
ATOM      7  C   UNL     1       2.186   7.072  19.865  0.00  0.00    +0.000 C 
ATOM      8  O   UNL     1       1.421   6.636  20.735  0.00  0.00    +0.000 OA
ENDROOT
BRANCH   6   9
ATOM      9  C   UNL     1       5.585   4.870  17.151  0.00  0.00    +0.000 A 
ATOM     10  C   UNL     1       6.906   5.234  16.703  0.00  0.00    +0.000 A 
ATOM     11  C   UNL     1       7.413   4.928  15.348  0.00  0.00    +0.000 A 
ATOM     12  C   UNL     1       6.658   4.270  14.380  0.00  0.00    +0.000 A 
ATOM     13  C   UNL     1       5.384   3.947  14.746  0.00  0.00    +0.000 A 
ATOM     14  C   UNL     1       4.888   4.267  16.052  0.00  0.00    +0.000 A 
ENDBRANCH   6   9
BRANCH   1  15
ATOM     15  C   UNL     1       0.632   9.834  18.353  0.00  0.00    +0.000 C 
BRANCH  15  16
ATOM     16  N   UNL     1      -0.635  10.285  18.964  0.00  0.00    +0.000 N 
ATOM     17  C   UNL     1      -0.601  10.350  20.402  0.00  0.00    +0.000 C 
BRANCH  16  23
ATOM     18  C   UNL     1      -3.303  10.076  14.631  0.00  0.00    +0.000 C 
ATOM     19  C   UNL     1      -3.159  10.487  16.075  0.00  0.00    +0.000 A 
ATOM     20  C   UNL     1      -4.210  11.180  16.671  0.00  0.00    +0.000 A 
ATOM     21  C   UNL     1      -4.076  11.576  17.989  0.00  0.00    +0.000 A 
ATOM     22  C   UNL     1      -2.901  11.281  18.718  0.00  0.00    +0.000 A 
ATOM     23  C   UNL     1      -1.795  10.569  18.196  0.00  0.00    +0.000 A 
ATOM     24  C   UNL     1      -1.979  10.188  16.837  0.00  0.00    +0.000 A 
ENDBRANCH  16  23
ENDBRANCH  15  16
ENDBRANCH   1  15
TORSDOF 4
ENDMDL
MODEL 2
REMARK VINA RESULT:      -8.8      0.461      1.052
REMARK  Name = 
REMARK  6 active torsions:
REMARK  status: ('A' for Active; 'I' for Inactive)
REMARK    1  A    between atoms: C_1  and  C_2
REMARK    2  A    between atoms: C_6  and  N_7
REMARK    3  A    between atoms: N_7  and  C_8
REMARK    4  A    between atoms: N_7  and  C_9
REMARK    5  A    between atoms: C_9  and  C_10
REMARK    6  A    between atoms: C_15  and  C_16
REMARK                            x       y       z     vdW  Elec       q    Type
REMARK                         _______ _______ _______ _____ _____    ______ ____
ROOT
ATOM      1  C   UNL     1       1.560   9.122  19.078  0.00  0.00    +0.000 C 
ATOM      2  C   UNL     1       2.118   8.846  17.602  0.00  0.00    +0.000 C 
ATOM      3  C   UNL     1       2.855   7.849  18.203  0.00  0.00    +0.000 C 
ATOM      4  C   UNL     1       3.517   6.657  18.141  0.00  0.00    +0.000 C 
ATOM      5  C   UNL     1       3.295   6.181  19.559  0.00  0.00    +0.000 C 
ATOM      6  C   UNL     1       4.348   5.245  19.110  0.00  0.00    +0.000 C 
ATOM      7  C   UNL     1       1.892   7.447  20.074  0.00  0.00    +0.000 C 
ATOM      8  O   UNL     1       1.113   7.131  20.983  0.00  0.00    +0.000 OA
ENDROOT
BRANCH   6   9
ATOM      9  C   UNL     1       5.114   4.828  17.519  0.00  0.00    +0.000 A 
ATOM     10  C   UNL     1       4.548   4.224  16.339  0.00  0.00    +0.000 A 
ATOM     11  C   UNL     1       5.323   3.984  15.103  0.00  0.00    +0.000 A 
ATOM     12  C   UNL     1       6.670   4.310  14.969  0.00  0.00    +0.000 A 
ATOM     13  C   UNL     1       7.260   4.843  16.079  0.00  0.00    +0.000 A 
ATOM     14  C   UNL     1       6.511   5.052  17.283  0.00  0.00    +0.000 A 
ENDBRANCH   6   9
BRANCH   1  15
ATOM     15  C   UNL     1       0.489  10.169  18.356  0.00  0.00    +0.000 C 
BRANCH  15  16
ATOM     16  N   UNL     1      -0.792  10.664  18.899  0.00  0.00    +0.000 N 
ATOM     17  C   UNL     1      -0.764  10.934  20.313  0.00  0.00    +0.000 C 
BRANCH  16  23
ATOM     18  C   UNL     1      -3.313  10.087  14.512  0.00  0.00    +0.000 C 
ATOM     19  C   UNL     1      -3.252  10.532  15.952  0.00  0.00    +0.000 A 
ATOM     20  C   UNL     1      -4.390  11.108  16.512  0.00  0.00    +0.000 A 
ATOM     21  C   UNL     1      -4.335  11.536  17.826  0.00  0.00    +0.000 A 
ATOM     22  C   UNL     1      -3.151  11.388  18.586  0.00  0.00    +0.000 A 
ATOM     23  C   UNL     1      -1.958  10.802  18.101  0.00  0.00    +0.000 A 
ATOM     24  C   UNL     1      -2.064  10.382  16.744  0.00  0.00    +0.000 A 
ENDBRANCH  16  23
ENDBRANCH  15  16
ENDBRANCH   1  15
TORSDOF 4
ENDMDL
MODEL 3
REMARK VINA RESULT:      -8.5      3.545      5.703
REMARK  Name = 
REMARK  6 active torsions:
REMARK  status: ('A' for Active; 'I' for Inactive)
REMARK    1  A    between atoms: C_1  and  C_2
REMARK    2  A    between atoms: C_6  and  N_7
REMARK    3  A    between atoms: N_7  and  C_8
REMARK    4  A    between atoms: N_7  and  C_9
REMARK    5  A    between atoms: C_9  and  C_10
REMARK    6  A    between atoms: C_15  and  C_16
REMARK                            x       y       z     vdW  Elec       q    Type
REMARK                         _______ _______ _______ _____ _____    ______ ____
ROOT
ATOM      1  C   UNL     1       5.040   5.218  18.128  0.00  0.00    +0.000 C 
ATOM      2  C   UNL     1       4.185   4.213  17.220  0.00  0.00    +0.000 C 
ATOM      3  C   UNL     1       5.084   4.542  16.230  0.00  0.00    +0.000 C 
ATOM      4  C   UNL     1       5.742   4.240  15.073  0.00  0.00    +0.000 C 
ATOM      5  C   UNL     1       7.024   5.003  15.316  0.00  0.00    +0.000 C 
ATOM      6  C   UNL     1       7.147   4.701  13.874  0.00  0.00    +0.000 C 
ATOM      7  C   UNL     1       6.796   5.352  17.230  0.00  0.00    +0.000 C 
ATOM      8  O   UNL     1       7.804   5.550  17.920  0.00  0.00    +0.000 OA
ENDROOT
BRANCH   6   9
ATOM      9  C   UNL     1       6.266   3.636  12.697  0.00  0.00    +0.000 A 
ATOM     10  C   UNL     1       6.659   2.388  12.093  0.00  0.00    +0.000 A 
ATOM     11  C   UNL     1       5.789   1.630  11.167  0.00  0.00    +0.000 A 
ATOM     12  C   UNL     1       4.519   2.058  10.788  0.00  0.00    +0.000 A 
ATOM     13  C   UNL     1       4.125   3.259  11.302  0.00  0.00    +0.000 A 
ATOM     14  C   UNL     1       4.980   4.002  12.180  0.00  0.00    +0.000 A 
ENDBRANCH   6   9
BRANCH   1  15
ATOM     15  C   UNL     1       4.123   4.670  19.403  0.00  0.00    +0.000 C 
BRANCH  15  16
ATOM     16  N   UNL     1       2.846   5.223  19.897  0.00  0.00    +0.000 N 
ATOM     17  C   UNL     1       2.082   4.304  20.701  0.00  0.00    +0.000 C 
BRANCH  16  23
ATOM     18  C   UNL     1       0.702   9.682  21.104  0.00  0.00    +0.000 C 
ATOM     19  C   UNL     1       1.344   8.752  20.105  0.00  0.00    +0.000 A 
ATOM     20  C   UNL     1       1.488   9.194  18.792  0.00  0.00    +0.000 A 
ATOM     21  C   UNL     1       2.058   8.340  17.866  0.00  0.00    +0.000 A 
ATOM     22  C   UNL     1       2.489   7.047  18.244  0.00  0.00    +0.000 A 
ATOM     23  C   UNL     1       2.394   6.525  19.556  0.00  0.00    +0.000 A 
ATOM     24  C   UNL     1       1.797   7.439  20.470  0.00  0.00    +0.000 A 
ENDBRANCH  16  23
ENDBRANCH  15  16
ENDBRANCH   1  15
TORSDOF 4
ENDMDL
MODEL 4
REMARK VINA RESULT:      -8.5      3.416      5.549
REMARK  Name = 
REMARK  6 active torsions:
REMARK  status: ('A' for Active; 'I' for Inactive)
REMARK    1  A    between atoms: C_1  and  C_2
REMARK    2  A    between atoms: C_6  and  N_7
REMARK    3  A    between atoms: N_7  and  C_8
REMARK    4  A    between atoms: N_7  and  C_9
REMARK    5  A    between atoms: C_9  and  C_10
REMARK    6  A    between atoms: C_15  and  C_16
REMARK                            x       y       z     vdW  Elec       q    Type
REMARK                         _______ _______ _______ _____ _____    ______ ____
ROOT
ATOM      1  C   UNL     1       5.128   5.651  18.108  0.00  0.00    +0.000 C 
ATOM      2  C   UNL     1       4.132   4.749  17.236  0.00  0.00    +0.000 C 
ATOM      3  C   UNL     1       5.063   4.911  16.234  0.00  0.00    +0.000 C 
ATOM      4  C   UNL     1       5.663   4.479  15.087  0.00  0.00    +0.000 C 
ATOM      5  C   UNL     1       7.043   5.057  15.302  0.00  0.00    +0.000 C 
ATOM      6  C   UNL     1       7.111   4.691  13.871  0.00  0.00    +0.000 C 
ATOM      7  C   UNL     1       6.879   5.501  17.203  0.00  0.00    +0.000 C 
ATOM      8  O   UNL     1       7.910   5.575  17.884  0.00  0.00    +0.000 OA
ENDROOT
BRANCH   6   9
ATOM      9  C   UNL     1       6.080   3.725  12.733  0.00  0.00    +0.000 A 
ATOM     10  C   UNL     1       4.747   3.973  12.241  0.00  0.00    +0.000 A 
ATOM     11  C   UNL     1       4.062   3.082  11.280  0.00  0.00    +0.000 A 
ATOM     12  C   UNL     1       4.637   1.920  10.770  0.00  0.00    +0.000 A 
ATOM     13  C   UNL     1       5.882   1.622  11.245  0.00  0.00    +0.000 A 
ATOM     14  C   UNL     1       6.532   2.475  12.195  0.00  0.00    +0.000 A 
ENDBRANCH   6   9
BRANCH   1  15
ATOM     15  C   UNL     1       4.150   5.283  19.402  0.00  0.00    +0.000 C 
BRANCH  15  16
ATOM     16  N   UNL     1       2.728   5.636  19.585  0.00  0.00    +0.000 N 
ATOM     17  C   UNL     1       1.883   4.515  19.906  0.00  0.00    +0.000 C 
BRANCH  16  23
ATOM     18  C   UNL     1       0.590   9.910  21.343  0.00  0.00    +0.000 C 
ATOM     19  C   UNL     1       1.188   9.097  20.223  0.00  0.00    +0.000 A 
ATOM     20  C   UNL     1       1.251   9.668  18.954  0.00  0.00    +0.000 A 
ATOM     21  C   UNL     1       1.780   8.920  17.918  0.00  0.00    +0.000 A 
ATOM     22  C   UNL     1       2.251   7.605  18.142  0.00  0.00    +0.000 A 
ATOM     23  C   UNL     1       2.238   6.955  19.399  0.00  0.00    +0.000 A 
ATOM     24  C   UNL     1       1.681   7.764  20.430  0.00  0.00    +0.000 A 
ENDBRANCH  16  23
ENDBRANCH  15  16
ENDBRANCH   1  15
TORSDOF 4
ENDMDL
MODEL 5
REMARK VINA RESULT:      -8.4      0.695      1.182
REMARK  Name = 
REMARK  6 active torsions:
REMARK  status: ('A' for Active; 'I' for Inactive)
REMARK    1  A    between atoms: C_1  and  C_2
REMARK    2  A    between atoms: C_6  and  N_7
REMARK    3  A    between atoms: N_7  and  C_8
REMARK    4  A    between atoms: N_7  and  C_9
REMARK    5  A    between atoms: C_9  and  C_10
REMARK    6  A    between atoms: C_15  and  C_16
REMARK                            x       y       z     vdW  Elec       q    Type
REMARK                         _______ _______ _______ _____ _____    ______ ____
ROOT
ATOM      1  C   UNL     1       2.155   8.320  19.095  0.00  0.00    +0.000 C 
ATOM      2  C   UNL     1       2.644   8.352  17.570  0.00  0.00    +0.000 C 
ATOM      3  C   UNL     1       3.385   7.243  17.916  0.00  0.00    +0.000 C 
ATOM      4  C   UNL     1       4.019   6.084  17.576  0.00  0.00    +0.000 C 
ATOM      5  C   UNL     1       3.848   5.324  18.872  0.00  0.00    +0.000 C 
ATOM      6  C   UNL     1       4.861   4.491  18.190  0.00  0.00    +0.000 C 
ATOM      7  C   UNL     1       2.494   6.470  19.704  0.00  0.00    +0.000 C 
ATOM      8  O   UNL     1       1.748   5.979  20.561  0.00  0.00    +0.000 OA
ENDROOT
BRANCH   6   9
ATOM      9  C   UNL     1       5.551   4.408  16.514  0.00  0.00    +0.000 A 
ATOM     10  C   UNL     1       4.970   3.919  15.288  0.00  0.00    +0.000 A 
ATOM     11  C   UNL     1       5.674   3.958  13.988  0.00  0.00    +0.000 A 
ATOM     12  C   UNL     1       6.964   4.461  13.832  0.00  0.00    +0.000 A 
ATOM     13  C   UNL     1       7.570   4.893  14.976  0.00  0.00    +0.000 A 
ATOM     14  C   UNL     1       6.893   4.831  16.238  0.00  0.00    +0.000 A 
ENDBRANCH   6   9
BRANCH   1  15
ATOM     15  C   UNL     1       1.076   9.507  18.657  0.00  0.00    +0.000 C 
BRANCH  15  16
ATOM     16  N   UNL     1      -0.189   9.867  19.329  0.00  0.00    +0.000 N 
ATOM     17  C   UNL     1      -0.193   9.615  20.747  0.00  0.00    +0.000 C 
BRANCH  16  23
ATOM     18  C   UNL     1      -3.207   9.981  15.228  0.00  0.00    +0.000 C 
ATOM     19  C   UNL     1      -2.846  10.450  16.615  0.00  0.00    +0.000 A 
ATOM     20  C   UNL     1      -3.653  11.413  17.217  0.00  0.00    +0.000 A 
ATOM     21  C   UNL     1      -3.315  11.860  18.481  0.00  0.00    +0.000 A 
ATOM     22  C   UNL     1      -2.179  11.349  19.151  0.00  0.00    +0.000 A 
ATOM     23  C   UNL     1      -1.316  10.361  18.620  0.00  0.00    +0.000 A 
ATOM     24  C   UNL     1      -1.703   9.936  17.317  0.00  0.00    +0.000 A 
ENDBRANCH  16  23
ENDBRANCH  15  16
ENDBRANCH   1  15
TORSDOF 4
ENDMDL
MODEL 6
REMARK VINA RESULT:      -8.4      3.551      9.163
REMARK  Name = 
REMARK  6 active torsions:
REMARK  status: ('A' for Active; 'I' for Inactive)
REMARK    1  A    between atoms: C_1  and  C_2
REMARK    2  A    between atoms: C_6  and  N_7
REMARK    3  A    between atoms: N_7  and  C_8
REMARK    4  A    between atoms: N_7  and  C_9
REMARK    5  A    between atoms: C_9  and  C_10
REMARK    6  A    between atoms: C_15  and  C_16
REMARK                            x       y       z     vdW  Elec       q    Type
REMARK                         _______ _______ _______ _____ _____    ______ ____
ROOT
ATOM      1  C   UNL     1       4.016   5.647  17.434  0.00  0.00    +0.000 C 
ATOM      2  C   UNL     1       3.734   7.224  17.458  0.00  0.00    +0.000 C 
ATOM      3  C   UNL     1       2.856   6.924  18.477  0.00  0.00    +0.000 C 
ATOM      4  C   UNL     1       2.168   7.285  19.598  0.00  0.00    +0.000 C 
ATOM      5  C   UNL     1       2.098   5.940  20.285  0.00  0.00    +0.000 C 
ATOM      6  C   UNL     1       1.110   6.708  21.072  0.00  0.00    +0.000 C 
ATOM      7  C   UNL     1       3.432   4.994  19.206  0.00  0.00    +0.000 C 
ATOM      8  O   UNL     1       4.011   4.019  19.702  0.00  0.00    +0.000 OA
ENDROOT
BRANCH   6   9
ATOM      9  C   UNL     1       0.640   8.456  21.204  0.00  0.00    +0.000 A 
ATOM     10  C   UNL     1       0.669   9.508  20.218  0.00  0.00    +0.000 A 
ATOM     11  C   UNL     1       0.212  10.887  20.495  0.00  0.00    +0.000 A 
ATOM     12  C   UNL     1      -0.279  11.296  21.733  0.00  0.00    +0.000 A 
ATOM     13  C   UNL     1      -0.281  10.343  22.710  0.00  0.00    +0.000 A 
ATOM     14  C   UNL     1       0.186   9.014  22.444  0.00  0.00    +0.000 A 
ENDBRANCH   6   9
BRANCH   1  15
ATOM     15  C   UNL     1       5.247   5.996  16.372  0.00  0.00    +0.000 C 
BRANCH  15  16
ATOM     16  N   UNL     1       6.347   5.109  15.944  0.00  0.00    +0.000 N 
ATOM     17  C   UNL     1       7.183   4.649  17.024  0.00  0.00    +0.000 C 
BRANCH  16  23
ATOM     18  C   UNL     1       5.319   2.470  11.711  0.00  0.00    +0.000 C 
ATOM     19  C   UNL     1       6.112   3.515  12.457  0.00  0.00    +0.000 A 
ATOM     20  C   UNL     1       7.125   4.185  11.775  0.00  0.00    +0.000 A 
ATOM     21  C   UNL     1       7.868   5.130  12.459  0.00  0.00    +0.000 A 
ATOM     22  C   UNL     1       7.604   5.413  13.819  0.00  0.00    +0.000 A 
ATOM     23  C   UNL     1       6.586   4.791  14.582  0.00  0.00    +0.000 A 
ATOM     24  C   UNL     1       5.854   3.824  13.835  0.00  0.00    +0.000 A 
ENDBRANCH  16  23
ENDBRANCH  15  16
ENDBRANCH   1  15
TORSDOF 4
ENDMDL
MODEL 7
REMARK VINA RESULT:      -8.4      3.615      8.714
REMARK  Name = 
REMARK  6 active torsions:
REMARK  status: ('A' for Active; 'I' for Inactive)
REMARK    1  A    between atoms: C_1  and  C_2
REMARK    2  A    between atoms: C_6  and  N_7
REMARK    3  A    between atoms: N_7  and  C_8
REMARK    4  A    between atoms: N_7  and  C_9
REMARK    5  A    between atoms: C_9  and  C_10
REMARK    6  A    between atoms: C_15  and  C_16
REMARK                            x       y       z     vdW  Elec       q    Type
REMARK                         _______ _______ _______ _____ _____    ______ ____
ROOT
ATOM      1  C   UNL     1       4.081   3.736  17.358  0.00  0.00    +0.000 C 
ATOM      2  C   UNL     1       3.845   5.267  16.948  0.00  0.00    +0.000 C 
ATOM      3  C   UNL     1       3.127   5.340  18.121  0.00  0.00    +0.000 C 
ATOM      4  C   UNL     1       2.627   6.060  19.167  0.00  0.00    +0.000 C 
ATOM      5  C   UNL     1       2.630   4.983  20.227  0.00  0.00    +0.000 C 
ATOM      6  C   UNL     1       1.793   6.014  20.877  0.00  0.00    +0.000 C 
ATOM      7  C   UNL     1       3.759   3.672  19.307  0.00  0.00    +0.000 C 
ATOM      8  O   UNL     1       4.383   2.847  19.987  0.00  0.00    +0.000 OA
ENDROOT
BRANCH   6   9
ATOM      9  C   UNL     1       1.392   7.752  20.544  0.00  0.00    +0.000 A 
ATOM     10  C   UNL     1       1.601   8.548  19.360  0.00  0.00    +0.000 A 
ATOM     11  C   UNL     1       1.176   9.960  19.251  0.00  0.00    +0.000 A 
ATOM     12  C   UNL     1       0.546  10.651  20.284  0.00  0.00    +0.000 A 
ATOM     13  C   UNL     1       0.370   9.949  21.440  0.00  0.00    +0.000 A 
ATOM     14  C   UNL     1       0.804   8.587  21.550  0.00  0.00    +0.000 A 
ENDBRANCH   6   9
BRANCH   1  15
ATOM     15  C   UNL     1       5.143   3.674  16.080  0.00  0.00    +0.000 C 
BRANCH  15  16
ATOM     16  N   UNL     1       6.307   4.549  15.833  0.00  0.00    +0.000 N 
ATOM     17  C   UNL     1       6.788   4.514  14.476  0.00  0.00    +0.000 C 
BRANCH  16  23
ATOM     18  C   UNL     1       8.004   8.949  17.755  0.00  0.00    +0.000 C 
ATOM     19  C   UNL     1       7.776   7.462  17.861  0.00  0.00    +0.000 A 
ATOM     20  C   UNL     1       8.201   6.810  19.017  0.00  0.00    +0.000 A 
ATOM     21  C   UNL     1       8.013   5.444  19.112  0.00  0.00    +0.000 A 
ATOM     22  C   UNL     1       7.399   4.723  18.061  0.00  0.00    +0.000 A 
ATOM     23  C   UNL     1       6.926   5.306  16.862  0.00  0.00    +0.000 A 
ATOM     24  C   UNL     1       7.146   6.712  16.810  0.00  0.00    +0.000 A 
ENDBRANCH  16  23
ENDBRANCH  15  16
ENDBRANCH   1  15
TORSDOF 4
ENDMDL
MODEL 8
REMARK VINA RESULT:      -8.4      3.564      5.551
REMARK  Name = 
REMARK  6 active torsions:
REMARK  status: ('A' for Active; 'I' for Inactive)
REMARK    1  A    between atoms: C_1  and  C_2
REMARK    2  A    between atoms: C_6  and  N_7
REMARK    3  A    between atoms: N_7  and  C_8
REMARK    4  A    between atoms: N_7  and  C_9
REMARK    5  A    between atoms: C_9  and  C_10
REMARK    6  A    between atoms: C_15  and  C_16
REMARK                            x       y       z     vdW  Elec       q    Type
REMARK                         _______ _______ _______ _____ _____    ______ ____
ROOT
ATOM      1  C   UNL     1       4.932   5.242  18.216  0.00  0.00    +0.000 C 
ATOM      2  C   UNL     1       4.099   4.233  17.292  0.00  0.00    +0.000 C 
ATOM      3  C   UNL     1       5.007   4.577  16.314  0.00  0.00    +0.000 C 
ATOM      4  C   UNL     1       5.682   4.290  15.164  0.00  0.00    +0.000 C 
ATOM      5  C   UNL     1       6.952   5.066  15.427  0.00  0.00    +0.000 C 
ATOM      6  C   UNL     1       7.096   4.773  13.985  0.00  0.00    +0.000 C 
ATOM      7  C   UNL     1       6.697   5.402  17.340  0.00  0.00    +0.000 C 
ATOM      8  O   UNL     1       7.694   5.607  18.043  0.00  0.00    +0.000 OA
ENDROOT
BRANCH   6   9
ATOM      9  C   UNL     1       6.242   3.705  12.792  0.00  0.00    +0.000 A 
ATOM     10  C   UNL     1       6.680   2.498  12.137  0.00  0.00    +0.000 A 
ATOM     11  C   UNL     1       5.828   1.729  11.205  0.00  0.00    +0.000 A 
ATOM     12  C   UNL     1       4.530   2.105  10.868  0.00  0.00    +0.000 A 
ATOM     13  C   UNL     1       4.090   3.269  11.429  0.00  0.00    +0.000 A 
ATOM     14  C   UNL     1       4.928   4.024  12.313  0.00  0.00    +0.000 A 
ENDBRANCH   6   9
BRANCH   1  15
ATOM     15  C   UNL     1       4.006   4.676  19.476  0.00  0.00    +0.000 C 
BRANCH  15  16
ATOM     16  N   UNL     1       2.605   5.022  19.791  0.00  0.00    +0.000 N 
ATOM     17  C   UNL     1       1.741   3.881  19.951  0.00  0.00    +0.000 C 
BRANCH  16  23
ATOM     18  C   UNL     1       1.925   9.646  17.768  0.00  0.00    +0.000 C 
ATOM     19  C   UNL     1       1.783   8.670  18.909  0.00  0.00    +0.000 A 
ATOM     20  C   UNL     1       1.184   9.113  20.086  0.00  0.00    +0.000 A 
ATOM     21  C   UNL     1       1.069   8.228  21.142  0.00  0.00    +0.000 A 
ATOM     22  C   UNL     1       1.544   6.901  21.029  0.00  0.00    +0.000 A 
ATOM     23  C   UNL     1       2.149   6.364  19.867  0.00  0.00    +0.000 A 
ATOM     24  C   UNL     1       2.249   7.315  18.811  0.00  0.00    +0.000 A 
ENDBRANCH  16  23
ENDBRANCH  15  16
ENDBRANCH   1  15
TORSDOF 4
ENDMDL
MODEL 9
REMARK VINA RESULT:      -8.2      2.425      3.398
REMARK  Name = 
REMARK  6 active torsions:
REMARK  status: ('A' for Active; 'I' for Inactive)
REMARK    1  A    between atoms: C_1  and  C_2
REMARK    2  A    between atoms: C_6  and  N_7
REMARK    3  A    between atoms: N_7  and  C_8
REMARK    4  A    between atoms: N_7  and  C_9
REMARK    5  A    between atoms: C_9  and  C_10
REMARK    6  A    between atoms: C_15  and  C_16
REMARK                            x       y       z     vdW  Elec       q    Type
REMARK                         _______ _______ _______ _____ _____    ______ ____
ROOT
ATOM      1  C   UNL     1       1.908   8.295  19.342  0.00  0.00    +0.000 C 
ATOM      2  C   UNL     1       2.425   8.373  17.828  0.00  0.00    +0.000 C 
ATOM      3  C   UNL     1       3.185   7.274  18.164  0.00  0.00    +0.000 C 
ATOM      4  C   UNL     1       3.854   6.138  17.811  0.00  0.00    +0.000 C 
ATOM      5  C   UNL     1       3.676   5.345  19.086  0.00  0.00    +0.000 C 
ATOM      6  C   UNL     1       4.722   4.552  18.406  0.00  0.00    +0.000 C 
ATOM      7  C   UNL     1       2.279   6.440  19.916  0.00  0.00    +0.000 C 
ATOM      8  O   UNL     1       1.529   5.912  20.747  0.00  0.00    +0.000 OA
ENDROOT
BRANCH   6   9
ATOM      9  C   UNL     1       5.445   4.523  16.742  0.00  0.00    +0.000 A 
ATOM     10  C   UNL     1       4.882   4.096  15.486  0.00  0.00    +0.000 A 
ATOM     11  C   UNL     1       5.615   4.174  14.203  0.00  0.00    +0.000 A 
ATOM     12  C   UNL     1       6.916   4.658  14.094  0.00  0.00    +0.000 A 
ATOM     13  C   UNL     1       7.505   5.031  15.267  0.00  0.00    +0.000 A 
ATOM     14  C   UNL     1       6.801   4.931  16.511  0.00  0.00    +0.000 A 
ENDBRANCH   6   9
BRANCH   1  15
ATOM     15  C   UNL     1       0.809   9.466  18.910  0.00  0.00    +0.000 C 
BRANCH  15  16
ATOM     16  N   UNL     1       0.632  10.801  19.513  0.00  0.00    +0.000 N 
ATOM     17  C   UNL     1       1.363  11.848  18.847  0.00  0.00    +0.000 C 
BRANCH  16  23
ATOM     18  C   UNL     1      -2.967  13.301  22.110  0.00  0.00    +0.000 C 
ATOM     19  C   UNL     1      -1.924  12.216  22.009  0.00  0.00    +0.000 A 
ATOM     20  C   UNL     1      -1.714  11.398  23.117  0.00  0.00    +0.000 A 
ATOM     21  C   UNL     1      -0.745  10.415  23.038  0.00  0.00    +0.000 A 
ATOM     22  C   UNL     1       0.014  10.240  21.857  0.00  0.00    +0.000 A 
ATOM     23  C   UNL     1      -0.145  11.014  20.683  0.00  0.00    +0.000 A 
ATOM     24  C   UNL     1      -1.150  12.015  20.816  0.00  0.00    +0.000 A 
ENDBRANCH  16  23
ENDBRANCH  15  16
ENDBRANCH   1  15
TORSDOF 4
ENDMDL
