MODEL 1
REMARK VINA RESULT:      -6.4      0.000      0.000
REMARK  Name = 
REMARK  3 active torsions:
REMARK  status: ('A' for Active; 'I' for Inactive)
REMARK    1  A    between atoms: C_1  and  O_2
REMARK    2  A    between atoms: O_2  and  C_3
REMARK    3  A    between atoms: C_6  and  C_7
REMARK                            x       y       z     vdW  Elec       q    Type
REMARK                         _______ _______ _______ _____ _____    ______ ____
ROOT
ATOM      1  C   UNL     1       6.310   4.634  16.635  0.00  0.00    +0.000 A 
ATOM      2  C   UNL     1       5.003   4.405  16.266  0.00  0.00    +0.000 A 
ATOM      3  N   UNL     1       4.014   4.093  17.131  0.00  0.00    +0.000 NA
ATOM      4  C   UNL     1       4.350   4.001  18.439  0.00  0.00    +0.000 A 
ATOM      5  N   UNL     1       5.602   4.201  18.903  0.00  0.00    +0.000 NA
ATOM      6  C   UNL     1       6.547   4.511  17.988  0.00  0.00    +0.000 A 
ENDROOT
BRANCH   4   7
ATOM      7  C   UNL     1       3.264   3.664  19.397  0.00  0.00    +0.000 A 
ATOM      8  C   UNL     1       1.954   4.114  19.194  0.00  0.00    +0.000 A 
ATOM      9  C   UNL     1       0.956   3.777  20.106  0.00  0.00    +0.000 A 
ATOM     10  C   UNL     1       1.279   2.997  21.205  0.00  0.00    +0.000 A 
ATOM     11  C   UNL     1       2.592   2.587  21.349  0.00  0.00    +0.000 A 
ATOM     12  N   UNL     1       3.581   2.899  20.481  0.00  0.00    +0.000 NA
ENDBRANCH   4   7
BRANCH   1  14
ATOM     13  C   UNL     1       7.114   4.875  14.430  0.00  0.00    +0.000 C 
ATOM     14  O   UNL     1       7.355   4.960  15.831  0.00  0.00    +0.000 OA
ENDBRANCH   1  14
TORSDOF 2
ENDMDL
MODEL 2
REMARK VINA RESULT:      -6.3      0.326      1.261
REMARK  Name = 
REMARK  3 active torsions:
REMARK  status: ('A' for Active; 'I' for Inactive)
REMARK    1  A    between atoms: C_1  and  O_2
REMARK    2  A    between atoms: O_2  and  C_3
REMARK    3  A    between atoms: C_6  and  C_7
REMARK                            x       y       z     vdW  Elec       q    Type
REMARK                         _______ _______ _______ _____ _____    ______ ____
ROOT
ATOM      1  C   UNL     1       6.493   4.529  16.803  0.00  0.00    +0.000 A 
ATOM      2  C   UNL     1       6.545   4.805  18.151  0.00  0.00    +0.000 A 
ATOM      3  N   UNL     1       5.539   4.554  19.016  0.00  0.00    +0.000 NA
ATOM      4  C   UNL     1       4.415   4.000  18.505  0.00  0.00    +0.000 A 
ATOM      5  N   UNL     1       4.261   3.696  17.198  0.00  0.00    +0.000 NA
ATOM      6  C   UNL     1       5.304   3.969  16.384  0.00  0.00    +0.000 A 
ENDROOT
BRANCH   4   7
ATOM      7  C   UNL     1       3.307   3.715  19.454  0.00  0.00    +0.000 A 
ATOM      8  C   UNL     1       2.119   4.455  19.423  0.00  0.00    +0.000 A 
ATOM      9  C   UNL     1       1.095   4.161  20.321  0.00  0.00    +0.000 A 
ATOM     10  C   UNL     1       1.271   3.134  21.235  0.00  0.00    +0.000 A 
ATOM     11  C   UNL     1       2.469   2.443  21.215  0.00  0.00    +0.000 A 
ATOM     12  N   UNL     1       3.479   2.707  20.357  0.00  0.00    +0.000 NA
ENDBRANCH   4   7
BRANCH   1  14
ATOM     13  C   UNL     1       7.011   4.901  14.531  0.00  0.00    +0.000 C 
ATOM     14  O   UNL     1       7.461   4.741  15.873  0.00  0.00    +0.000 OA
ENDBRANCH   1  14
TORSDOF 2
ENDMDL
MODEL 3
REMARK VINA RESULT:      -6.2      0.815      1.796
REMARK  Name = 
REMARK  3 active torsions:
REMARK  status: ('A' for Active; 'I' for Inactive)
REMARK    1  A    between atoms: C_1  and  O_2
REMARK    2  A    between atoms: O_2  and  C_3
REMARK    3  A    between atoms: C_6  and  C_7
REMARK                            x       y       z     vdW  Elec       q    Type
REMARK                         _______ _______ _______ _____ _____    ______ ____
ROOT
ATOM      1  C   UNL     1       6.593   4.516  16.682  0.00  0.00    +0.000 A 
ATOM      2  C   UNL     1       6.770   4.668  18.039  0.00  0.00    +0.000 A 
ATOM      3  N   UNL     1       5.807   4.448  18.960  0.00  0.00    +0.000 NA
ATOM      4  C   UNL     1       4.596   4.057  18.498  0.00  0.00    +0.000 A 
ATOM      5  N   UNL     1       4.318   3.885  17.188  0.00  0.00    +0.000 NA
ATOM      6  C   UNL     1       5.324   4.119  16.317  0.00  0.00    +0.000 A 
ENDROOT
BRANCH   4   7
ATOM      7  C   UNL     1       3.534   3.806  19.506  0.00  0.00    +0.000 A 
ATOM      8  C   UNL     1       3.597   2.704  20.367  0.00  0.00    +0.000 A 
ATOM      9  C   UNL     1       2.589   2.498  21.306  0.00  0.00    +0.000 A 
ATOM     10  C   UNL     1       1.534   3.395  21.375  0.00  0.00    +0.000 A 
ATOM     11  C   UNL     1       1.529   4.462  20.495  0.00  0.00    +0.000 A 
ATOM     12  N   UNL     1       2.492   4.685  19.573  0.00  0.00    +0.000 NA
ENDBRANCH   4   7
BRANCH   1  14
ATOM     13  C   UNL     1       6.991   4.818  14.376  0.00  0.00    +0.000 C 
ATOM     14  O   UNL     1       7.510   4.708  15.698  0.00  0.00    +0.000 OA
ENDBRANCH   1  14
TORSDOF 2
ENDMDL
MODEL 4
REMARK VINA RESULT:      -6.1      1.400      1.601
REMARK  Name = 
REMARK  3 active torsions:
REMARK  status: ('A' for Active; 'I' for Inactive)
REMARK    1  A    between atoms: C_1  and  O_2
REMARK    2  A    between atoms: O_2  and  C_3
REMARK    3  A    between atoms: C_6  and  C_7
REMARK                            x       y       z     vdW  Elec       q    Type
REMARK                         _______ _______ _______ _____ _____    ______ ____
ROOT
ATOM      1  C   UNL     1       5.462   5.538  15.821  0.00  0.00    +0.000 A 
ATOM      2  C   UNL     1       4.819   6.393  16.690  0.00  0.00    +0.000 A 
ATOM      3  N   UNL     1       3.964   5.993  17.655  0.00  0.00    +0.000 NA
ATOM      4  C   UNL     1       3.734   4.663  17.756  0.00  0.00    +0.000 A 
ATOM      5  N   UNL     1       4.307   3.743  16.952  0.00  0.00    +0.000 NA
ATOM      6  C   UNL     1       5.154   4.206  16.007  0.00  0.00    +0.000 A 
ENDROOT
BRANCH   4   7
ATOM      7  C   UNL     1       2.798   4.216  18.821  0.00  0.00    +0.000 A 
ATOM      8  C   UNL     1       1.721   3.371  18.532  0.00  0.00    +0.000 A 
ATOM      9  C   UNL     1       0.865   2.963  19.552  0.00  0.00    +0.000 A 
ATOM     10  C   UNL     1       1.096   3.404  20.846  0.00  0.00    +0.000 A 
ATOM     11  C   UNL     1       2.176   4.239  21.066  0.00  0.00    +0.000 A 
ATOM     12  N   UNL     1       3.021   4.652  20.095  0.00  0.00    +0.000 NA
ENDBRANCH   4   7
BRANCH   1  14
ATOM     13  C   UNL     1       6.933   4.763  14.148  0.00  0.00    +0.000 C 
ATOM     14  O   UNL     1       6.338   5.860  14.835  0.00  0.00    +0.000 OA
ENDBRANCH   1  14
TORSDOF 2
ENDMDL
MODEL 5
REMARK VINA RESULT:      -6.1      1.082      1.214
REMARK  Name = 
REMARK  3 active torsions:
REMARK  status: ('A' for Active; 'I' for Inactive)
REMARK    1  A    between atoms: C_1  and  O_2
REMARK    2  A    between atoms: O_2  and  C_3
REMARK    3  A    between atoms: C_6  and  C_7
REMARK                            x       y       z     vdW  Elec       q    Type
REMARK                         _______ _______ _______ _____ _____    ______ ____
ROOT
ATOM      1  C   UNL     1       5.423   5.301  15.959  0.00  0.00    +0.000 A 
ATOM      2  C   UNL     1       5.225   3.971  16.259  0.00  0.00    +0.000 A 
ATOM      3  N   UNL     1       4.453   3.529  17.274  0.00  0.00    +0.000 NA
ATOM      4  C   UNL     1       3.847   4.469  18.037  0.00  0.00    +0.000 A 
ATOM      5  N   UNL     1       3.980   5.796  17.831  0.00  0.00    +0.000 NA
ATOM      6  C   UNL     1       4.765   6.175  16.799  0.00  0.00    +0.000 A 
ENDROOT
BRANCH   4   7
ATOM      7  C   UNL     1       2.990   3.988  19.153  0.00  0.00    +0.000 A 
ATOM      8  C   UNL     1       1.658   4.401  19.273  0.00  0.00    +0.000 A 
ATOM      9  C   UNL     1       0.877   3.929  20.325  0.00  0.00    +0.000 A 
ATOM     10  C   UNL     1       1.435   3.051  21.241  0.00  0.00    +0.000 A 
ATOM     11  C   UNL     1       2.758   2.684  21.068  0.00  0.00    +0.000 A 
ATOM     12  N   UNL     1       3.539   3.127  20.057  0.00  0.00    +0.000 NA
ENDBRANCH   4   7
BRANCH   1  14
ATOM     13  C   UNL     1       6.965   4.895  14.220  0.00  0.00    +0.000 C 
ATOM     14  O   UNL     1       6.173   5.823  14.955  0.00  0.00    +0.000 OA
ENDBRANCH   1  14
TORSDOF 2
ENDMDL
MODEL 6
REMARK VINA RESULT:      -6.0      1.083      1.379
REMARK  Name = 
REMARK  3 active torsions:
REMARK  status: ('A' for Active; 'I' for Inactive)
REMARK    1  A    between atoms: C_1  and  O_2
REMARK    2  A    between atoms: O_2  and  C_3
REMARK    3  A    between atoms: C_6  and  C_7
REMARK                            x       y       z     vdW  Elec       q    Type
REMARK                         _______ _______ _______ _____ _____    ______ ____
ROOT
ATOM      1  C   UNL     1       6.535   4.994  16.342  0.00  0.00    +0.000 A 
ATOM      2  C   UNL     1       5.169   4.986  16.170  0.00  0.00    +0.000 A 
ATOM      3  N   UNL     1       4.282   4.712  17.150  0.00  0.00    +0.000 NA
ATOM      4  C   UNL     1       4.789   4.425  18.372  0.00  0.00    +0.000 A 
ATOM      5  N   UNL     1       6.111   4.400  18.644  0.00  0.00    +0.000 NA
ATOM      6  C   UNL     1       6.947   4.685  17.622  0.00  0.00    +0.000 A 
ENDROOT
BRANCH   4   7
ATOM      7  C   UNL     1       3.817   4.128  19.457  0.00  0.00    +0.000 A 
ATOM      8  C   UNL     1       3.730   2.851  20.023  0.00  0.00    +0.000 A 
ATOM      9  C   UNL     1       2.815   2.605  21.043  0.00  0.00    +0.000 A 
ATOM     10  C   UNL     1       2.000   3.636  21.485  0.00  0.00    +0.000 A 
ATOM     11  C   UNL     1       2.133   4.874  20.883  0.00  0.00    +0.000 A 
ATOM     12  N   UNL     1       3.012   5.140  19.890  0.00  0.00    +0.000 NA
ENDBRANCH   4   7
BRANCH   1  14
ATOM     13  C   UNL     1       7.170   4.915  14.071  0.00  0.00    +0.000 C 
ATOM     14  O   UNL     1       7.488   5.268  15.414  0.00  0.00    +0.000 OA
ENDBRANCH   1  14
TORSDOF 2
ENDMDL
MODEL 7
REMARK VINA RESULT:      -6.0      1.875      2.016
REMARK  Name = 
REMARK  3 active torsions:
REMARK  status: ('A' for Active; 'I' for Inactive)
REMARK    1  A    between atoms: C_1  and  O_2
REMARK    2  A    between atoms: O_2  and  C_3
REMARK    3  A    between atoms: C_6  and  C_7
REMARK                            x       y       z     vdW  Elec       q    Type
REMARK                         _______ _______ _______ _____ _____    ______ ____
ROOT
ATOM      1  C   UNL     1       6.338   6.572  17.389  0.00  0.00    +0.000 A 
ATOM      2  C   UNL     1       5.045   6.594  16.914  0.00  0.00    +0.000 A 
ATOM      3  N   UNL     1       4.020   5.915  17.471  0.00  0.00    +0.000 NA
ATOM      4  C   UNL     1       4.303   5.166  18.562  0.00  0.00    +0.000 A 
ATOM      5  N   UNL     1       5.536   5.072  19.103  0.00  0.00    +0.000 NA
ATOM      6  C   UNL     1       6.519   5.777  18.501  0.00  0.00    +0.000 A 
ENDROOT
BRANCH   4   7
ATOM      7  C   UNL     1       3.177   4.421  19.184  0.00  0.00    +0.000 A 
ATOM      8  C   UNL     1       2.268   5.059  20.037  0.00  0.00    +0.000 A 
ATOM      9  C   UNL     1       1.219   4.337  20.600  0.00  0.00    +0.000 A 
ATOM     10  C   UNL     1       1.091   2.988  20.304  0.00  0.00    +0.000 A 
ATOM     11  C   UNL     1       2.023   2.416  19.457  0.00  0.00    +0.000 A 
ATOM     12  N   UNL     1       3.051   3.093  18.898  0.00  0.00    +0.000 NA
ENDBRANCH   4   7
BRANCH   1  14
ATOM     13  C   UNL     1       7.886   8.330  17.668  0.00  0.00    +0.000 C 
ATOM     14  O   UNL     1       7.417   7.231  16.893  0.00  0.00    +0.000 OA
ENDBRANCH   1  14
TORSDOF 2
ENDMDL
MODEL 8
REMARK VINA RESULT:      -6.0      1.803      2.276
REMARK  Name = 
REMARK  3 active torsions:
REMARK  status: ('A' for Active; 'I' for Inactive)
REMARK    1  A    between atoms: C_1  and  O_2
REMARK    2  A    between atoms: O_2  and  C_3
REMARK    3  A    between atoms: C_6  and  C_7
REMARK                            x       y       z     vdW  Elec       q    Type
REMARK                         _______ _______ _______ _____ _____    ______ ____
ROOT
ATOM      1  C   UNL     1       6.658   6.289  17.669  0.00  0.00    +0.000 A 
ATOM      2  C   UNL     1       6.773   5.408  18.721  0.00  0.00    +0.000 A 
ATOM      3  N   UNL     1       5.733   4.746  19.274  0.00  0.00    +0.000 NA
ATOM      4  C   UNL     1       4.508   4.981  18.748  0.00  0.00    +0.000 A 
ATOM      5  N   UNL     1       4.288   5.830  17.722  0.00  0.00    +0.000 NA
ATOM      6  C   UNL     1       5.368   6.460  17.211  0.00  0.00    +0.000 A 
ENDROOT
BRANCH   4   7
ATOM      7  C   UNL     1       3.361   4.250  19.348  0.00  0.00    +0.000 A 
ATOM      8  C   UNL     1       2.495   4.877  20.252  0.00  0.00    +0.000 A 
ATOM      9  C   UNL     1       1.425   4.169  20.792  0.00  0.00    +0.000 A 
ATOM     10  C   UNL     1       1.233   2.846  20.423  0.00  0.00    +0.000 A 
ATOM     11  C   UNL     1       2.125   2.284  19.528  0.00  0.00    +0.000 A 
ATOM     12  N   UNL     1       3.173   2.948  18.989  0.00  0.00    +0.000 NA
ENDBRANCH   4   7
BRANCH   1  14
ATOM     13  C   UNL     1       7.952   8.261  17.607  0.00  0.00    +0.000 C 
ATOM     14  O   UNL     1       7.650   6.983  17.055  0.00  0.00    +0.000 OA
ENDBRANCH   1  14
TORSDOF 2
ENDMDL
MODEL 9
REMARK VINA RESULT:      -6.0      1.934      2.414
REMARK  Name = 
REMARK  3 active torsions:
REMARK  status: ('A' for Active; 'I' for Inactive)
REMARK    1  A    between atoms: C_1  and  O_2
REMARK    2  A    between atoms: O_2  and  C_3
REMARK    3  A    between atoms: C_6  and  C_7
REMARK                            x       y       z     vdW  Elec       q    Type
REMARK                         _______ _______ _______ _____ _____    ______ ____
ROOT
ATOM      1  C   UNL     1       6.401   6.572  17.513  0.00  0.00    +0.000 A 
ATOM      2  C   UNL     1       6.467   5.652  18.536  0.00  0.00    +0.000 A 
ATOM      3  N   UNL     1       5.398   4.998  19.039  0.00  0.00    +0.000 NA
ATOM      4  C   UNL     1       4.193   5.282  18.492  0.00  0.00    +0.000 A 
ATOM      5  N   UNL     1       4.020   6.171  17.490  0.00  0.00    +0.000 NA
ATOM      6  C   UNL     1       5.128   6.791  17.030  0.00  0.00    +0.000 A 
ENDROOT
BRANCH   4   7
ATOM      7  C   UNL     1       3.014   4.560  19.037  0.00  0.00    +0.000 A 
ATOM      8  C   UNL     1       2.244   3.715  18.229  0.00  0.00    +0.000 A 
ATOM      9  C   UNL     1       1.148   3.047  18.769  0.00  0.00    +0.000 A 
ATOM     10  C   UNL     1       0.836   3.231  20.107  0.00  0.00    +0.000 A 
ATOM     11  C   UNL     1       1.633   4.081  20.851  0.00  0.00    +0.000 A 
ATOM     12  N   UNL     1       2.702   4.743  20.352  0.00  0.00    +0.000 NA
ENDBRANCH   4   7
BRANCH   1  14
ATOM     13  C   UNL     1       7.892   8.393  17.676  0.00  0.00    +0.000 C 
ATOM     14  O   UNL     1       7.426   7.261  16.948  0.00  0.00    +0.000 OA
ENDBRANCH   1  14
TORSDOF 2
ENDMDL
