MODEL 1
REMARK VINA RESULT:      -6.6      0.000      0.000
REMARK  Name = 
REMARK  7 active torsions:
REMARK  status: ('A' for Active; 'I' for Inactive)
REMARK    1  A    between atoms: C_1  and  N_2
REMARK    2  A    between atoms: N_2  and  C_3
REMARK    3  A    between atoms: N_2  and  C_13
REMARK    4  A    between atoms: C_3  and  C_4
REMARK    5  A    between atoms: C_4  and  C_5
REMARK    6  A    between atoms: C_13  and  C_14
REMARK    7  A    between atoms: C_14  and  N_15
REMARK                            x       y       z     vdW  Elec       q    Type
REMARK                         _______ _______ _______ _____ _____    ______ ____
ROOT
ATOM      1  C   UNL     1       0.917   2.333  18.978  0.00  0.00    +0.000 C 
ATOM      2  N   UNL     1       1.453   2.927  20.215  0.00  0.00    +0.000 NA
ENDROOT
BRANCH   2   3
ATOM      3  C   UNL     1       2.937   2.946  20.136  0.00  0.00    +0.000 C 
BRANCH   3   4
ATOM      4  C   UNL     1       3.479   2.766  18.705  0.00  0.00    +0.000 C 
BRANCH   4   5
ATOM      5  C   UNL     1       4.522   3.790  18.319  0.00  0.00    +0.000 A 
ATOM      6  C   UNL     1       5.334   4.390  19.286  0.00  0.00    +0.000 A 
ATOM      7  C   UNL     1       6.243   5.385  18.920  0.00  0.00    +0.000 A 
ATOM      8  C   UNL     1       6.358   5.785  17.584  0.00  0.00    +0.000 A 
ATOM      9 CL   UNL     1       7.483   7.040  17.210  0.00  0.00    +0.000 Cl
ATOM     10  C   UNL     1       5.563   5.176  16.606  0.00  0.00    +0.000 A 
ATOM     11 CL   UNL     1       5.635   5.619  14.939  0.00  0.00    +0.000 Cl
ATOM     12  C   UNL     1       4.655   4.176  16.977  0.00  0.00    +0.000 A 
ENDBRANCH   4   5
ENDBRANCH   3   4
ENDBRANCH   2   3
BRANCH   2  13
ATOM     13  C   UNL     1       0.932   4.305  20.393  0.00  0.00    +0.000 C 
BRANCH  13  14
ATOM     14  C   UNL     1       2.005   5.412  20.545  0.00  0.00    +0.000 C 
BRANCH  14  15
ATOM     15  N   UNL     1       1.700   6.660  19.805  0.00  0.00    +0.000 NA
ATOM     16  C   UNL     1       1.749   7.854  20.654  0.00  0.00    +0.000 C 
ATOM     17  C   UNL     1       0.787   8.934  20.150  0.00  0.00    +0.000 C 
ATOM     18  C   UNL     1       1.319   9.777  19.004  0.00  0.00    +0.000 C 
ATOM     19  C   UNL     1       1.695   8.980  17.761  0.00  0.00    +0.000 C 
ATOM     20  C   UNL     1       2.897   8.073  18.000  0.00  0.00    +0.000 C 
ATOM     21  C   UNL     1       2.548   6.711  18.606  0.00  0.00    +0.000 C 
ENDBRANCH  14  15
ENDBRANCH  13  14
ENDBRANCH   2  13
TORSDOF 6
ENDMDL
MODEL 2
REMARK VINA RESULT:      -6.6      3.274      6.203
REMARK  Name = 
REMARK  7 active torsions:
REMARK  status: ('A' for Active; 'I' for Inactive)
REMARK    1  A    between atoms: C_1  and  N_2
REMARK    2  A    between atoms: N_2  and  C_3
REMARK    3  A    between atoms: N_2  and  C_13
REMARK    4  A    between atoms: C_3  and  C_4
REMARK    5  A    between atoms: C_4  and  C_5
REMARK    6  A    between atoms: C_13  and  C_14
REMARK    7  A    between atoms: C_14  and  N_15
REMARK                            x       y       z     vdW  Elec       q    Type
REMARK                         _______ _______ _______ _____ _____    ______ ____
ROOT
ATOM      1  C   UNL     1       5.349   5.546  16.127  0.00  0.00    +0.000 C 
ATOM      2  N   UNL     1       5.254   6.283  17.399  0.00  0.00    +0.000 NA
ENDROOT
BRANCH   2   3
ATOM      3  C   UNL     1       3.971   7.034  17.424  0.00  0.00    +0.000 C 
BRANCH   3   4
ATOM      4  C   UNL     1       3.203   6.896  18.753  0.00  0.00    +0.000 C 
BRANCH   4   5
ATOM      5  C   UNL     1       2.152   7.963  18.959  0.00  0.00    +0.000 A 
ATOM      6  C   UNL     1       1.730   8.770  17.899  0.00  0.00    +0.000 A 
ATOM      7  C   UNL     1       0.809   9.797  18.123  0.00  0.00    +0.000 A 
ATOM      8  C   UNL     1       0.294  10.021  19.405  0.00  0.00    +0.000 A 
ATOM      9 CL   UNL     1      -0.818  11.325  19.612  0.00  0.00    +0.000 Cl
ATOM     10  C   UNL     1       0.697   9.204  20.468  0.00  0.00    +0.000 A 
ATOM     11 CL   UNL     1       0.117   9.422  22.079  0.00  0.00    +0.000 Cl
ATOM     12  C   UNL     1       1.617   8.174  20.238  0.00  0.00    +0.000 A 
ENDBRANCH   4   5
ENDBRANCH   3   4
ENDBRANCH   2   3
BRANCH   2  13
ATOM     13  C   UNL     1       5.319   5.344  18.546  0.00  0.00    +0.000 C 
BRANCH  13  14
ATOM     14  C   UNL     1       5.085   3.852  18.206  0.00  0.00    +0.000 C 
BRANCH  14  15
ATOM     15  N   UNL     1       3.806   3.305  18.721  0.00  0.00    +0.000 NA
ATOM     16  C   UNL     1       3.466   3.811  20.055  0.00  0.00    +0.000 C 
ATOM     17  C   UNL     1       2.646   2.785  20.844  0.00  0.00    +0.000 C 
ATOM     18  C   UNL     1       1.163   2.766  20.517  0.00  0.00    +0.000 C 
ATOM     19  C   UNL     1       0.847   2.475  19.055  0.00  0.00    +0.000 C 
ATOM     20  C   UNL     1       1.305   3.598  18.132  0.00  0.00    +0.000 C 
ATOM     21  C   UNL     1       2.770   3.498  17.697  0.00  0.00    +0.000 C 
ENDBRANCH  14  15
ENDBRANCH  13  14
ENDBRANCH   2  13
TORSDOF 6
ENDMDL
MODEL 3
REMARK VINA RESULT:      -6.5      3.305      6.373
REMARK  Name = 
REMARK  7 active torsions:
REMARK  status: ('A' for Active; 'I' for Inactive)
REMARK    1  A    between atoms: C_1  and  N_2
REMARK    2  A    between atoms: N_2  and  C_3
REMARK    3  A    between atoms: N_2  and  C_13
REMARK    4  A    between atoms: C_3  and  C_4
REMARK    5  A    between atoms: C_4  and  C_5
REMARK    6  A    between atoms: C_13  and  C_14
REMARK    7  A    between atoms: C_14  and  N_15
REMARK                            x       y       z     vdW  Elec       q    Type
REMARK                         _______ _______ _______ _____ _____    ______ ____
ROOT
ATOM      1  C   UNL     1       6.428   6.931  17.308  0.00  0.00    +0.000 C 
ATOM      2  N   UNL     1       5.203   6.135  17.494  0.00  0.00    +0.000 NA
ENDROOT
BRANCH   2   3
ATOM      3  C   UNL     1       4.033   7.051  17.514  0.00  0.00    +0.000 C 
BRANCH   3   4
ATOM      4  C   UNL     1       3.026   6.739  18.638  0.00  0.00    +0.000 C 
BRANCH   4   5
ATOM      5  C   UNL     1       2.118   7.899  18.978  0.00  0.00    +0.000 A 
ATOM      6  C   UNL     1       1.815   8.877  18.027  0.00  0.00    +0.000 A 
ATOM      7  C   UNL     1       1.031   9.979  18.379  0.00  0.00    +0.000 A 
ATOM      8  C   UNL     1       0.535  10.110  19.681  0.00  0.00    +0.000 A 
ATOM      9 CL   UNL     1      -0.403  11.511  20.051  0.00  0.00    +0.000 Cl
ATOM     10  C   UNL     1       0.817   9.124  20.634  0.00  0.00    +0.000 A 
ATOM     11 CL   UNL     1       0.252   9.216  22.263  0.00  0.00    +0.000 Cl
ATOM     12  C   UNL     1       1.600   8.020  20.276  0.00  0.00    +0.000 A 
ENDBRANCH   4   5
ENDBRANCH   3   4
ENDBRANCH   2   3
BRANCH   2  13
ATOM     13  C   UNL     1       5.059   5.144  16.400  0.00  0.00    +0.000 C 
BRANCH  13  14
ATOM     14  C   UNL     1       4.703   3.703  16.844  0.00  0.00    +0.000 C 
BRANCH  14  15
ATOM     15  N   UNL     1       3.725   3.634  17.956  0.00  0.00    +0.000 NA
ATOM     16  C   UNL     1       2.535   2.845  17.620  0.00  0.00    +0.000 C 
ATOM     17  C   UNL     1       1.303   3.348  18.380  0.00  0.00    +0.000 C 
ATOM     18  C   UNL     1       1.186   2.844  19.808  0.00  0.00    +0.000 C 
ATOM     19  C   UNL     1       2.367   3.204  20.700  0.00  0.00    +0.000 C 
ATOM     20  C   UNL     1       3.647   2.494  20.276  0.00  0.00    +0.000 C 
ATOM     21  C   UNL     1       4.430   3.212  19.173  0.00  0.00    +0.000 C 
ENDBRANCH  14  15
ENDBRANCH  13  14
ENDBRANCH   2  13
TORSDOF 6
ENDMDL
MODEL 4
REMARK VINA RESULT:      -6.4      2.940      5.600
REMARK  Name = 
REMARK  7 active torsions:
REMARK  status: ('A' for Active; 'I' for Inactive)
REMARK    1  A    between atoms: C_1  and  N_2
REMARK    2  A    between atoms: N_2  and  C_3
REMARK    3  A    between atoms: N_2  and  C_13
REMARK    4  A    between atoms: C_3  and  C_4
REMARK    5  A    between atoms: C_4  and  C_5
REMARK    6  A    between atoms: C_13  and  C_14
REMARK    7  A    between atoms: C_14  and  N_15
REMARK                            x       y       z     vdW  Elec       q    Type
REMARK                         _______ _______ _______ _____ _____    ______ ____
ROOT
ATOM      1  C   UNL     1       7.202   4.699  17.364  0.00  0.00    +0.000 C 
ATOM      2  N   UNL     1       5.816   4.919  17.810  0.00  0.00    +0.000 NA
ENDROOT
BRANCH   2   3
ATOM      3  C   UNL     1       5.470   6.352  17.617  0.00  0.00    +0.000 C 
BRANCH   3   4
ATOM      4  C   UNL     1       4.023   6.576  17.136  0.00  0.00    +0.000 C 
BRANCH   4   5
ATOM      5  C   UNL     1       3.131   7.213  18.176  0.00  0.00    +0.000 A 
ATOM      6  C   UNL     1       2.876   6.575  19.393  0.00  0.00    +0.000 A 
ATOM      7  C   UNL     1       1.993   7.145  20.314  0.00  0.00    +0.000 A 
ATOM      8  C   UNL     1       1.363   8.362  20.032  0.00  0.00    +0.000 A 
ATOM      9 CL   UNL     1       0.263   8.993  21.204  0.00  0.00    +0.000 Cl
ATOM     10  C   UNL     1       1.627   9.018  18.823  0.00  0.00    +0.000 A 
ATOM     11 CL   UNL     1       0.884  10.516  18.396  0.00  0.00    +0.000 Cl
ATOM     12  C   UNL     1       2.516   8.445  17.906  0.00  0.00    +0.000 A 
ENDBRANCH   4   5
ENDBRANCH   3   4
ENDBRANCH   2   3
BRANCH   2  13
ATOM     13  C   UNL     1       4.882   4.059  17.042  0.00  0.00    +0.000 C 
BRANCH  13  14
ATOM     14  C   UNL     1       4.597   2.665  17.654  0.00  0.00    +0.000 C 
BRANCH  14  15
ATOM     15  N   UNL     1       3.417   2.625  18.551  0.00  0.00    +0.000 NA
ATOM     16  C   UNL     1       3.649   3.306  19.829  0.00  0.00    +0.000 C 
ATOM     17  C   UNL     1       2.816   2.679  20.951  0.00  0.00    +0.000 C 
ATOM     18  C   UNL     1       1.372   3.146  21.010  0.00  0.00    +0.000 C 
ATOM     19  C   UNL     1       0.574   2.882  19.739  0.00  0.00    +0.000 C 
ATOM     20  C   UNL     1       1.072   3.715  18.563  0.00  0.00    +0.000 C 
ATOM     21  C   UNL     1       2.243   3.090  17.800  0.00  0.00    +0.000 C 
ENDBRANCH  14  15
ENDBRANCH  13  14
ENDBRANCH   2  13
TORSDOF 6
ENDMDL
MODEL 5
REMARK VINA RESULT:      -6.4      3.000      5.915
REMARK  Name = 
REMARK  7 active torsions:
REMARK  status: ('A' for Active; 'I' for Inactive)
REMARK    1  A    between atoms: C_1  and  N_2
REMARK    2  A    between atoms: N_2  and  C_3
REMARK    3  A    between atoms: N_2  and  C_13
REMARK    4  A    between atoms: C_3  and  C_4
REMARK    5  A    between atoms: C_4  and  C_5
REMARK    6  A    between atoms: C_13  and  C_14
REMARK    7  A    between atoms: C_14  and  N_15
REMARK                            x       y       z     vdW  Elec       q    Type
REMARK                         _______ _______ _______ _____ _____    ______ ____
ROOT
ATOM      1  C   UNL     1       7.259   6.691  17.864  0.00  0.00    +0.000 C 
ATOM      2  N   UNL     1       5.865   6.284  18.114  0.00  0.00    +0.000 NA
ENDROOT
BRANCH   2   3
ATOM      3  C   UNL     1       4.968   7.078  17.235  0.00  0.00    +0.000 C 
BRANCH   3   4
ATOM      4  C   UNL     1       3.490   6.649  17.317  0.00  0.00    +0.000 C 
BRANCH   4   5
ATOM      5  C   UNL     1       2.690   7.424  18.339  0.00  0.00    +0.000 A 
ATOM      6  C   UNL     1       2.558   6.960  19.651  0.00  0.00    +0.000 A 
ATOM      7  C   UNL     1       1.757   7.652  20.563  0.00  0.00    +0.000 A 
ATOM      8  C   UNL     1       1.088   8.819  20.177  0.00  0.00    +0.000 A 
ATOM      9 CL   UNL     1       0.094   9.605  21.349  0.00  0.00    +0.000 Cl
ATOM     10  C   UNL     1       1.231   9.301  18.871  0.00  0.00    +0.000 A 
ATOM     11 CL   UNL     1       0.431  10.726  18.313  0.00  0.00    +0.000 Cl
ATOM     12  C   UNL     1       2.037   8.607  17.961  0.00  0.00    +0.000 A 
ENDBRANCH   4   5
ENDBRANCH   3   4
ENDBRANCH   2   3
BRANCH   2  13
ATOM     13  C   UNL     1       5.693   4.835  17.847  0.00  0.00    +0.000 C 
BRANCH  13  14
ATOM     14  C   UNL     1       5.261   3.976  19.061  0.00  0.00    +0.000 C 
BRANCH  14  15
ATOM     15  N   UNL     1       3.798   3.758  19.162  0.00  0.00    +0.000 NA
ATOM     16  C   UNL     1       3.305   2.750  18.219  0.00  0.00    +0.000 C 
ATOM     17  C   UNL     1       1.857   3.035  17.807  0.00  0.00    +0.000 C 
ATOM     18  C   UNL     1       0.808   2.562  18.798  0.00  0.00    +0.000 C 
ATOM     19  C   UNL     1       0.943   3.166  20.191  0.00  0.00    +0.000 C 
ATOM     20  C   UNL     1       2.207   2.697  20.902  0.00  0.00    +0.000 C 
ATOM     21  C   UNL     1       3.457   3.515  20.570  0.00  0.00    +0.000 C 
ENDBRANCH  14  15
ENDBRANCH  13  14
ENDBRANCH   2  13
TORSDOF 6
ENDMDL
MODEL 6
REMARK VINA RESULT:      -6.4      3.033      5.734
REMARK  Name = 
REMARK  7 active torsions:
REMARK  status: ('A' for Active; 'I' for Inactive)
REMARK    1  A    between atoms: C_1  and  N_2
REMARK    2  A    between atoms: N_2  and  C_3
REMARK    3  A    between atoms: N_2  and  C_13
REMARK    4  A    between atoms: C_3  and  C_4
REMARK    5  A    between atoms: C_4  and  C_5
REMARK    6  A    between atoms: C_13  and  C_14
REMARK    7  A    between atoms: C_14  and  N_15
REMARK                            x       y       z     vdW  Elec       q    Type
REMARK                         _______ _______ _______ _____ _____    ______ ____
ROOT
ATOM      1  C   UNL     1       5.640   5.496  15.250  0.00  0.00    +0.000 C 
ATOM      2  N   UNL     1       6.123   5.629  16.635  0.00  0.00    +0.000 NA
ENDROOT
BRANCH   2   3
ATOM      3  C   UNL     1       5.517   6.844  17.240  0.00  0.00    +0.000 C 
BRANCH   3   4
ATOM      4  C   UNL     1       4.068   7.101  16.786  0.00  0.00    +0.000 C 
BRANCH   4   5
ATOM      5  C   UNL     1       3.153   7.551  17.903  0.00  0.00    +0.000 A 
ATOM      6  C   UNL     1       2.996   6.781  19.058  0.00  0.00    +0.000 A 
ATOM      7  C   UNL     1       2.094   7.178  20.049  0.00  0.00    +0.000 A 
ATOM      8  C   UNL     1       1.347   8.352  19.899  0.00  0.00    +0.000 A 
ATOM      9 CL   UNL     1       0.231   8.764  21.150  0.00  0.00    +0.000 Cl
ATOM     10  C   UNL     1       1.512   9.139  18.753  0.00  0.00    +0.000 A 
ATOM     11 CL   UNL     1       0.622  10.594  18.488  0.00  0.00    +0.000 Cl
ATOM     12  C   UNL     1       2.420   8.740  17.765  0.00  0.00    +0.000 A 
ENDBRANCH   4   5
ENDBRANCH   3   4
ENDBRANCH   2   3
BRANCH   2  13
ATOM     13  C   UNL     1       5.761   4.428  17.427  0.00  0.00    +0.000 C 
BRANCH  13  14
ATOM     14  C   UNL     1       4.365   3.825  17.131  0.00  0.00    +0.000 C 
BRANCH  14  15
ATOM     15  N   UNL     1       3.457   3.793  18.302  0.00  0.00    +0.000 NA
ATOM     16  C   UNL     1       2.226   3.037  18.048  0.00  0.00    +0.000 C 
ATOM     17  C   UNL     1       1.059   3.581  18.878  0.00  0.00    +0.000 C 
ATOM     18  C   UNL     1       1.016   3.091  20.315  0.00  0.00    +0.000 C 
ATOM     19  C   UNL     1       2.261   3.423  21.129  0.00  0.00    +0.000 C 
ATOM     20  C   UNL     1       3.490   2.672  20.633  0.00  0.00    +0.000 C 
ATOM     21  C   UNL     1       4.224   3.359  19.478  0.00  0.00    +0.000 C 
ENDBRANCH  14  15
ENDBRANCH  13  14
ENDBRANCH   2  13
TORSDOF 6
ENDMDL
MODEL 7
REMARK VINA RESULT:      -6.3      2.980      5.732
REMARK  Name = 
REMARK  7 active torsions:
REMARK  status: ('A' for Active; 'I' for Inactive)
REMARK    1  A    between atoms: C_1  and  N_2
REMARK    2  A    between atoms: N_2  and  C_3
REMARK    3  A    between atoms: N_2  and  C_13
REMARK    4  A    between atoms: C_3  and  C_4
REMARK    5  A    between atoms: C_4  and  C_5
REMARK    6  A    between atoms: C_13  and  C_14
REMARK    7  A    between atoms: C_14  and  N_15
REMARK                            x       y       z     vdW  Elec       q    Type
REMARK                         _______ _______ _______ _____ _____    ______ ____
ROOT
ATOM      1  C   UNL     1       5.360   5.651  15.592  0.00  0.00    +0.000 C 
ATOM      2  N   UNL     1       5.788   5.600  17.000  0.00  0.00    +0.000 NA
ENDROOT
BRANCH   2   3
ATOM      3  C   UNL     1       5.072   6.659  17.759  0.00  0.00    +0.000 C 
BRANCH   3   4
ATOM      4  C   UNL     1       3.922   7.312  16.968  0.00  0.00    +0.000 C 
BRANCH   4   5
ATOM      5  C   UNL     1       2.875   7.961  17.845  0.00  0.00    +0.000 A 
ATOM      6  C   UNL     1       2.264   9.159  17.467  0.00  0.00    +0.000 A 
ATOM      7  C   UNL     1       1.351   9.781  18.322  0.00  0.00    +0.000 A 
ATOM      8  C   UNL     1       1.032   9.207  19.558  0.00  0.00    +0.000 A 
ATOM      9 CL   UNL     1      -0.084  10.045  20.574  0.00  0.00    +0.000 Cl
ATOM     10  C   UNL     1       1.624   7.996  19.935  0.00  0.00    +0.000 A 
ATOM     11 CL   UNL     1       1.293   7.229  21.445  0.00  0.00    +0.000 Cl
ATOM     12  C   UNL     1       2.536   7.375  19.074  0.00  0.00    +0.000 A 
ENDBRANCH   4   5
ENDBRANCH   3   4
ENDBRANCH   2   3
BRANCH   2  13
ATOM     13  C   UNL     1       5.497   4.267  17.583  0.00  0.00    +0.000 C 
BRANCH  13  14
ATOM     14  C   UNL     1       5.070   4.265  19.072  0.00  0.00    +0.000 C 
BRANCH  14  15
ATOM     15  N   UNL     1       3.733   3.673  19.319  0.00  0.00    +0.000 NA
ATOM     16  C   UNL     1       3.100   4.185  20.539  0.00  0.00    +0.000 C 
ATOM     17  C   UNL     1       2.171   3.138  21.163  0.00  0.00    +0.000 C 
ATOM     18  C   UNL     1       0.793   3.051  20.532  0.00  0.00    +0.000 C 
ATOM     19  C   UNL     1       0.804   2.724  19.043  0.00  0.00    +0.000 C 
ATOM     20  C   UNL     1       1.404   3.850  18.210  0.00  0.00    +0.000 C 
ATOM     21  C   UNL     1       2.930   3.805  18.096  0.00  0.00    +0.000 C 
ENDBRANCH  14  15
ENDBRANCH  13  14
ENDBRANCH   2  13
TORSDOF 6
ENDMDL
MODEL 8
REMARK VINA RESULT:      -6.2      5.259      7.119
REMARK  Name = 
REMARK  7 active torsions:
REMARK  status: ('A' for Active; 'I' for Inactive)
REMARK    1  A    between atoms: C_1  and  N_2
REMARK    2  A    between atoms: N_2  and  C_3
REMARK    3  A    between atoms: N_2  and  C_13
REMARK    4  A    between atoms: C_3  and  C_4
REMARK    5  A    between atoms: C_4  and  C_5
REMARK    6  A    between atoms: C_13  and  C_14
REMARK    7  A    between atoms: C_14  and  N_15
REMARK                            x       y       z     vdW  Elec       q    Type
REMARK                         _______ _______ _______ _____ _____    ______ ____
ROOT
ATOM      1  C   UNL     1       7.658   5.799  18.775  0.00  0.00    +0.000 C 
ATOM      2  N   UNL     1       7.720   6.954  17.864  0.00  0.00    +0.000 NA
ENDROOT
BRANCH   2   3
ATOM      3  C   UNL     1       6.339   7.312  17.446  0.00  0.00    +0.000 C 
BRANCH   3   4
ATOM      4  C   UNL     1       5.690   6.274  16.511  0.00  0.00    +0.000 C 
BRANCH   4   5
ATOM      5  C   UNL     1       4.582   5.478  17.164  0.00  0.00    +0.000 A 
ATOM      6  C   UNL     1       4.213   4.224  16.673  0.00  0.00    +0.000 A 
ATOM      7  C   UNL     1       3.141   3.534  17.246  0.00  0.00    +0.000 A 
ATOM      8  C   UNL     1       2.434   4.087  18.320  0.00  0.00    +0.000 A 
ATOM      9 CL   UNL     1       1.104   3.190  18.958  0.00  0.00    +0.000 Cl
ATOM     10  C   UNL     1       2.811   5.334  18.830  0.00  0.00    +0.000 A 
ATOM     11 CL   UNL     1       1.985   6.089  20.145  0.00  0.00    +0.000 Cl
ATOM     12  C   UNL     1       3.888   6.020  18.256  0.00  0.00    +0.000 A 
ENDBRANCH   4   5
ENDBRANCH   3   4
ENDBRANCH   2   3
BRANCH   2  13
ATOM     13  C   UNL     1       8.367   8.108  18.535  0.00  0.00    +0.000 C 
BRANCH  13  14
ATOM     14  C   UNL     1       8.219   9.471  17.814  0.00  0.00    +0.000 C 
BRANCH  14  15
ATOM     15  N   UNL     1       9.194  10.499  18.253  0.00  0.00    +0.000 NA
ATOM     16  C   UNL     1       8.810  11.857  17.853  0.00  0.00    +0.000 C 
ATOM     17  C   UNL     1      10.043  12.741  17.637  0.00  0.00    +0.000 C 
ATOM     18  C   UNL     1      10.638  13.326  18.906  0.00  0.00    +0.000 C 
ATOM     19  C   UNL     1      11.079  12.287  19.929  0.00  0.00    +0.000 C 
ATOM     20  C   UNL     1       9.899  11.523  20.520  0.00  0.00    +0.000 C 
ATOM     21  C   UNL     1       9.448  10.320  19.689  0.00  0.00    +0.000 C 
ENDBRANCH  14  15
ENDBRANCH  13  14
ENDBRANCH   2  13
TORSDOF 6
ENDMDL
MODEL 9
REMARK VINA RESULT:      -6.2      2.802      5.707
REMARK  Name = 
REMARK  7 active torsions:
REMARK  status: ('A' for Active; 'I' for Inactive)
REMARK    1  A    between atoms: C_1  and  N_2
REMARK    2  A    between atoms: N_2  and  C_3
REMARK    3  A    between atoms: N_2  and  C_13
REMARK    4  A    between atoms: C_3  and  C_4
REMARK    5  A    between atoms: C_4  and  C_5
REMARK    6  A    between atoms: C_13  and  C_14
REMARK    7  A    between atoms: C_14  and  N_15
REMARK                            x       y       z     vdW  Elec       q    Type
REMARK                         _______ _______ _______ _____ _____    ______ ____
ROOT
ATOM      1  C   UNL     1       0.961   2.517  18.938  0.00  0.00    +0.000 C 
ATOM      2  N   UNL     1       1.146   3.978  18.947  0.00  0.00    +0.000 NA
ENDROOT
BRANCH   2   3
ATOM      3  C   UNL     1       1.272   4.439  20.355  0.00  0.00    +0.000 C 
BRANCH   3   4
ATOM      4  C   UNL     1       2.331   5.541  20.550  0.00  0.00    +0.000 C 
BRANCH   4   5
ATOM      5  C   UNL     1       1.775   6.942  20.440  0.00  0.00    +0.000 A 
ATOM      6  C   UNL     1       0.901   7.446  21.407  0.00  0.00    +0.000 A 
ATOM      7  C   UNL     1       0.342   8.718  21.253  0.00  0.00    +0.000 A 
ATOM      8  C   UNL     1       0.657   9.501  20.136  0.00  0.00    +0.000 A 
ATOM      9 CL   UNL     1      -0.093  11.050  19.999  0.00  0.00    +0.000 Cl
ATOM     10  C   UNL     1       1.547   9.011  19.174  0.00  0.00    +0.000 A 
ATOM     11 CL   UNL     1       1.980   9.909  17.764  0.00  0.00    +0.000 Cl
ATOM     12  C   UNL     1       2.108   7.739  19.334  0.00  0.00    +0.000 A 
ENDBRANCH   4   5
ENDBRANCH   3   4
ENDBRANCH   2   3
BRANCH   2  13
ATOM     13  C   UNL     1       2.358   4.352  18.177  0.00  0.00    +0.000 C 
BRANCH  13  14
ATOM     14  C   UNL     1       3.202   3.169  17.641  0.00  0.00    +0.000 C 
BRANCH  14  15
ATOM     15  N   UNL     1       4.610   3.518  17.333  0.00  0.00    +0.000 NA
ATOM     16  C   UNL     1       4.748   4.284  16.090  0.00  0.00    +0.000 C 
ATOM     17  C   UNL     1       6.100   4.016  15.420  0.00  0.00    +0.000 C 
ATOM     18  C   UNL     1       7.263   4.808  15.991  0.00  0.00    +0.000 C 
ATOM     19  C   UNL     1       7.511   4.577  17.476  0.00  0.00    +0.000 C 
ATOM     20  C   UNL     1       6.378   5.114  18.341  0.00  0.00    +0.000 C 
ATOM     21  C   UNL     1       5.208   4.143  18.521  0.00  0.00    +0.000 C 
ENDBRANCH  14  15
ENDBRANCH  13  14
ENDBRANCH   2  13
TORSDOF 6
ENDMDL
