MODEL 1
REMARK VINA RESULT:      -7.0      0.000      0.000
REMARK  Name = 
REMARK  2 active torsions:
REMARK  status: ('A' for Active; 'I' for Inactive)
REMARK    1  A    between atoms: C_2  and  C_3
REMARK    2  A    between atoms: C_12  and  C_14
REMARK                            x       y       z     vdW  Elec       q    Type
REMARK                         _______ _______ _______ _____ _____    ______ ____
ROOT
ATOM      1  O   UNL     1      -0.013   9.492  23.749  0.00  0.00    +0.000 OA
ATOM      2  C   UNL     1      -0.406  10.075  22.736  0.00  0.00    +0.000 C 
ATOM      3  N   UNL     1      -0.279   9.467  21.480  0.00  0.00    +0.000 N 
ATOM      4  C   UNL     1      -0.441  10.124  20.169  0.00  0.00    +0.000 C 
ATOM      5  C   UNL     1       0.899  10.227  19.417  0.00  0.00    +0.000 C 
ATOM      6  N   UNL     1       1.574   8.929  19.377  0.00  0.00    +0.000 N 
ATOM      7  C   UNL     1       2.059   8.453  18.156  0.00  0.00    +0.000 C 
ATOM      8  O   UNL     1       2.038   9.169  17.154  0.00  0.00    +0.000 OA
ATOM      9  C   UNL     1       1.760   8.319  20.707  0.00  0.00    +0.000 C 
ATOM     10  C   UNL     1       0.400   8.163  21.403  0.00  0.00    +0.000 C 
ENDROOT
BRANCH   7  11
ATOM     11  C   UNL     1       2.601   7.107  18.089  0.00  0.00    +0.000 A 
ATOM     12  C   UNL     1       3.906   6.678  17.920  0.00  0.00    +0.000 A 
ATOM     13  C   UNL     1       3.882   5.263  17.947  0.00  0.00    +0.000 A 
ATOM     14  C   UNL     1       2.559   4.908  18.076  0.00  0.00    +0.000 A 
ATOM     15 BR   UNL     1       1.915   3.162  18.201  0.00  0.00    +0.000 Br
ATOM     16  O   UNL     1       1.774   6.015  18.121  0.00  0.00    +0.000 OA
ENDBRANCH   7  11
BRANCH   2  17
ATOM     17  C   UNL     1      -0.948  11.419  22.835  0.00  0.00    +0.000 A 
ATOM     18  C   UNL     1      -2.226  11.831  23.177  0.00  0.00    +0.000 A 
ATOM     19  C   UNL     1      -2.227  13.245  23.149  0.00  0.00    +0.000 A 
ATOM     20  C   UNL     1      -0.969  13.615  22.741  0.00  0.00    +0.000 A 
ATOM     21  O   UNL     1      -0.199  12.521  22.517  0.00  0.00    +0.000 OA
ENDBRANCH   2  17
TORSDOF 2
ENDMDL
MODEL 2
REMARK VINA RESULT:      -6.8      1.114      1.250
REMARK  Name = 
REMARK  2 active torsions:
REMARK  status: ('A' for Active; 'I' for Inactive)
REMARK    1  A    between atoms: C_2  and  C_3
REMARK    2  A    between atoms: C_12  and  C_14
REMARK                            x       y       z     vdW  Elec       q    Type
REMARK                         _______ _______ _______ _____ _____    ______ ____
ROOT
ATOM      1  O   UNL     1       0.092   9.593  23.824  0.00  0.00    +0.000 OA
ATOM      2  C   UNL     1      -0.347  10.126  22.803  0.00  0.00    +0.000 C 
ATOM      3  N   UNL     1      -0.241   9.474  21.568  0.00  0.00    +0.000 N 
ATOM      4  C   UNL     1      -0.460  10.077  20.239  0.00  0.00    +0.000 C 
ATOM      5  C   UNL     1       0.853  10.186  19.442  0.00  0.00    +0.000 C 
ATOM      6  N   UNL     1       1.563   8.906  19.430  0.00  0.00    +0.000 N 
ATOM      7  C   UNL     1       2.025   8.397  18.213  0.00  0.00    +0.000 C 
ATOM      8  O   UNL     1       1.954   9.073  17.186  0.00  0.00    +0.000 OA
ATOM      9  C   UNL     1       1.805   8.353  20.775  0.00  0.00    +0.000 C 
ATOM     10  C   UNL     1       0.472   8.188  21.518  0.00  0.00    +0.000 C 
ENDROOT
BRANCH   7  11
ATOM     11  C   UNL     1       2.601   7.065  18.179  0.00  0.00    +0.000 A 
ATOM     12  C   UNL     1       1.985   5.826  18.212  0.00  0.00    +0.000 A 
ATOM     13  C   UNL     1       3.010   4.853  18.132  0.00  0.00    +0.000 A 
ATOM     14  C   UNL     1       4.195   5.551  18.111  0.00  0.00    +0.000 A 
ATOM     15 BR   UNL     1       5.894   4.794  17.977  0.00  0.00    +0.000 Br
ATOM     16  O   UNL     1       3.959   6.886  18.180  0.00  0.00    +0.000 OA
ENDBRANCH   7  11
BRANCH   2  17
ATOM     17  C   UNL     1      -0.923  11.458  22.869  0.00  0.00    +0.000 A 
ATOM     18  C   UNL     1      -2.241  11.840  23.063  0.00  0.00    +0.000 A 
ATOM     19  C   UNL     1      -2.265  13.254  23.070  0.00  0.00    +0.000 A 
ATOM     20  C   UNL     1      -0.975  13.656  22.827  0.00  0.00    +0.000 A 
ATOM     21  O   UNL     1      -0.163  12.580  22.672  0.00  0.00    +0.000 OA
ENDBRANCH   2  17
TORSDOF 2
ENDMDL
MODEL 3
REMARK VINA RESULT:      -6.2      1.059      1.131
REMARK  Name = 
REMARK  2 active torsions:
REMARK  status: ('A' for Active; 'I' for Inactive)
REMARK    1  A    between atoms: C_2  and  C_3
REMARK    2  A    between atoms: C_12  and  C_14
REMARK                            x       y       z     vdW  Elec       q    Type
REMARK                         _______ _______ _______ _____ _____    ______ ____
ROOT
ATOM      1  O   UNL     1      -0.322  10.260  23.455  0.00  0.00    +0.000 OA
ATOM      2  C   UNL     1      -0.436  10.670  22.298  0.00  0.00    +0.000 C 
ATOM      3  N   UNL     1      -0.257   9.793  21.221  0.00  0.00    +0.000 N 
ATOM      4  C   UNL     1      -0.089  10.170  19.804  0.00  0.00    +0.000 C 
ATOM      5  C   UNL     1       1.338   9.875  19.304  0.00  0.00    +0.000 C 
ATOM      6  N   UNL     1       1.729   8.502  19.628  0.00  0.00    +0.000 N 
ATOM      7  C   UNL     1       2.277   7.698  18.625  0.00  0.00    +0.000 C 
ATOM      8  O   UNL     1       2.549   8.173  17.521  0.00  0.00    +0.000 OA
ATOM      9  C   UNL     1       1.591   8.171  21.058  0.00  0.00    +0.000 C 
ATOM     10  C   UNL     1       0.143   8.406  21.510  0.00  0.00    +0.000 C 
ENDROOT
BRANCH   7  11
ATOM     11  C   UNL     1       2.533   6.296  18.907  0.00  0.00    +0.000 A 
ATOM     12  C   UNL     1       3.651   5.685  19.447  0.00  0.00    +0.000 A 
ATOM     13  C   UNL     1       3.367   4.301  19.525  0.00  0.00    +0.000 A 
ATOM     14  C   UNL     1       2.115   4.138  18.979  0.00  0.00    +0.000 A 
ATOM     15 BR   UNL     1       1.196   2.521  18.841  0.00  0.00    +0.000 Br
ATOM     16  O   UNL     1       1.621   5.333  18.565  0.00  0.00    +0.000 OA
ENDBRANCH   7  11
BRANCH   2  17
ATOM     17  C   UNL     1      -0.697  12.077  22.048  0.00  0.00    +0.000 A 
ATOM     18  C   UNL     1      -1.895  12.714  21.769  0.00  0.00    +0.000 A 
ATOM     19  C   UNL     1      -1.609  14.093  21.634  0.00  0.00    +0.000 A 
ATOM     20  C   UNL     1      -0.249  14.213  21.782  0.00  0.00    +0.000 A 
ATOM     21  O   UNL     1       0.315  12.998  22.001  0.00  0.00    +0.000 OA
ENDBRANCH   2  17
TORSDOF 2
ENDMDL
MODEL 4
REMARK VINA RESULT:      -6.2      1.495      1.653
REMARK  Name = 
REMARK  2 active torsions:
REMARK  status: ('A' for Active; 'I' for Inactive)
REMARK    1  A    between atoms: C_2  and  C_3
REMARK    2  A    between atoms: C_12  and  C_14
REMARK                            x       y       z     vdW  Elec       q    Type
REMARK                         _______ _______ _______ _____ _____    ______ ____
ROOT
ATOM      1  O   UNL     1      -0.590  10.510  23.452  0.00  0.00    +0.000 OA
ATOM      2  C   UNL     1      -0.722  10.796  22.260  0.00  0.00    +0.000 C 
ATOM      3  N   UNL     1      -0.470   9.833  21.273  0.00  0.00    +0.000 N 
ATOM      4  C   UNL     1      -0.316  10.082  19.828  0.00  0.00    +0.000 C 
ATOM      5  C   UNL     1       1.133   9.844  19.363  0.00  0.00    +0.000 C 
ATOM      6  N   UNL     1       1.619   8.541  19.820  0.00  0.00    +0.000 N 
ATOM      7  C   UNL     1       2.232   7.684  18.902  0.00  0.00    +0.000 C 
ATOM      8  O   UNL     1       2.480   8.068  17.758  0.00  0.00    +0.000 OA
ATOM      9  C   UNL     1       1.491   8.341  21.275  0.00  0.00    +0.000 C 
ATOM     10  C   UNL     1       0.025   8.514  21.698  0.00  0.00    +0.000 C 
ENDROOT
BRANCH   7  11
ATOM     11  C   UNL     1       2.585   6.339  19.320  0.00  0.00    +0.000 A 
ATOM     12  C   UNL     1       3.777   5.647  19.186  0.00  0.00    +0.000 A 
ATOM     13  C   UNL     1       3.586   4.378  19.784  0.00  0.00    +0.000 A 
ATOM     14  C   UNL     1       2.276   4.347  20.199  0.00  0.00    +0.000 A 
ATOM     15 BR   UNL     1       1.457   2.928  21.092  0.00  0.00    +0.000 Br
ATOM     16  O   UNL     1       1.651   5.511  19.886  0.00  0.00    +0.000 OA
ENDBRANCH   7  11
BRANCH   2  17
ATOM     17  C   UNL     1      -1.081  12.149  21.872  0.00  0.00    +0.000 A 
ATOM     18  C   UNL     1      -0.340  13.317  21.961  0.00  0.00    +0.000 A 
ATOM     19  C   UNL     1      -1.138  14.354  21.424  0.00  0.00    +0.000 A 
ATOM     20  C   UNL     1      -2.337  13.774  21.089  0.00  0.00    +0.000 A 
ATOM     21  O   UNL     1      -2.324  12.450  21.385  0.00  0.00    +0.000 OA
ENDBRANCH   2  17
TORSDOF 2
ENDMDL
MODEL 5
REMARK VINA RESULT:      -6.0      3.365      8.246
REMARK  Name = 
REMARK  2 active torsions:
REMARK  status: ('A' for Active; 'I' for Inactive)
REMARK    1  A    between atoms: C_2  and  C_3
REMARK    2  A    between atoms: C_12  and  C_14
REMARK                            x       y       z     vdW  Elec       q    Type
REMARK                         _______ _______ _______ _____ _____    ______ ____
ROOT
ATOM      1  O   UNL     1       4.456   3.561  18.449  0.00  0.00    +0.000 OA
ATOM      2  C   UNL     1       4.806   4.568  17.829  0.00  0.00    +0.000 C 
ATOM      3  N   UNL     1       4.502   5.842  18.329  0.00  0.00    +0.000 N 
ATOM      4  C   UNL     1       4.602   7.116  17.592  0.00  0.00    +0.000 C 
ATOM      5  C   UNL     1       3.213   7.721  17.314  0.00  0.00    +0.000 C 
ATOM      6  N   UNL     1       2.415   7.777  18.540  0.00  0.00    +0.000 N 
ATOM      7  C   UNL     1       1.772   8.971  18.878  0.00  0.00    +0.000 C 
ATOM      8  O   UNL     1       1.768   9.922  18.095  0.00  0.00    +0.000 OA
ATOM      9  C   UNL     1       2.298   6.478  19.228  0.00  0.00    +0.000 C 
ATOM     10  C   UNL     1       3.696   5.934  19.556  0.00  0.00    +0.000 C 
ENDROOT
BRANCH   7  11
ATOM     11  C   UNL     1       1.100   9.071  20.161  0.00  0.00    +0.000 A 
ATOM     12  C   UNL     1       0.996   8.148  21.188  0.00  0.00    +0.000 A 
ATOM     13  C   UNL     1       0.248   8.763  22.220  0.00  0.00    +0.000 A 
ATOM     14  C   UNL     1      -0.108  10.003  21.745  0.00  0.00    +0.000 A 
ATOM     15 BR   UNL     1      -1.080  11.285  22.688  0.00  0.00    +0.000 Br
ATOM     16  O   UNL     1       0.367  10.182  20.486  0.00  0.00    +0.000 OA
ENDBRANCH   7  11
BRANCH   2  17
ATOM     17  C   UNL     1       5.482   4.437  16.550  0.00  0.00    +0.000 A 
ATOM     18  C   UNL     1       4.979   4.030  15.326  0.00  0.00    +0.000 A 
ATOM     19  C   UNL     1       6.043   4.103  14.396  0.00  0.00    +0.000 A 
ATOM     20  C   UNL     1       7.145   4.498  15.114  0.00  0.00    +0.000 A 
ATOM     21  O   UNL     1       6.825   4.671  16.421  0.00  0.00    +0.000 OA
ENDBRANCH   2  17
TORSDOF 2
ENDMDL
MODEL 6
REMARK VINA RESULT:      -5.9      1.875      2.233
REMARK  Name = 
REMARK  2 active torsions:
REMARK  status: ('A' for Active; 'I' for Inactive)
REMARK    1  A    between atoms: C_2  and  C_3
REMARK    2  A    between atoms: C_12  and  C_14
REMARK                            x       y       z     vdW  Elec       q    Type
REMARK                         _______ _______ _______ _____ _____    ______ ____
ROOT
ATOM      1  O   UNL     1      -0.384  10.915  23.188  0.00  0.00    +0.000 OA
ATOM      2  C   UNL     1      -0.401  11.093  21.968  0.00  0.00    +0.000 C 
ATOM      3  N   UNL     1      -0.253  10.004  21.098  0.00  0.00    +0.000 N 
ATOM      4  C   UNL     1       0.020  10.074  19.650  0.00  0.00    +0.000 C 
ATOM      5  C   UNL     1       1.434   9.565  19.315  0.00  0.00    +0.000 C 
ATOM      6  N   UNL     1       1.676   8.257  19.927  0.00  0.00    +0.000 N 
ATOM      7  C   UNL     1       2.193   7.224  19.141  0.00  0.00    +0.000 C 
ATOM      8  O   UNL     1       2.564   7.443  17.986  0.00  0.00    +0.000 OA
ATOM      9  C   UNL     1       1.436   8.233  21.381  0.00  0.00    +0.000 C 
ATOM     10  C   UNL     1      -0.004   8.676  21.680  0.00  0.00    +0.000 C 
ENDROOT
BRANCH   7  11
ATOM     11  C   UNL     1       2.299   5.892  19.707  0.00  0.00    +0.000 A 
ATOM     12  C   UNL     1       1.492   5.249  20.631  0.00  0.00    +0.000 A 
ATOM     13  C   UNL     1       2.034   3.955  20.820  0.00  0.00    +0.000 A 
ATOM     14  C   UNL     1       3.168   3.900  20.046  0.00  0.00    +0.000 A 
ATOM     15 BR   UNL     1       4.287   2.418  19.868  0.00  0.00    +0.000 Br
ATOM     16  O   UNL     1       3.360   5.080  19.402  0.00  0.00    +0.000 OA
ENDBRANCH   7  11
BRANCH   2  17
ATOM     17  C   UNL     1      -0.513  12.437  21.430  0.00  0.00    +0.000 A 
ATOM     18  C   UNL     1       0.452  13.425  21.318  0.00  0.00    +0.000 A 
ATOM     19  C   UNL     1      -0.165  14.538  20.700  0.00  0.00    +0.000 A 
ATOM     20  C   UNL     1      -1.481  14.189  20.520  0.00  0.00    +0.000 A 
ATOM     21  O   UNL     1      -1.709  12.935  20.986  0.00  0.00    +0.000 OA
ENDBRANCH   2  17
TORSDOF 2
ENDMDL
MODEL 7
REMARK VINA RESULT:      -5.7      3.059      8.066
REMARK  Name = 
REMARK  2 active torsions:
REMARK  status: ('A' for Active; 'I' for Inactive)
REMARK    1  A    between atoms: C_2  and  C_3
REMARK    2  A    between atoms: C_12  and  C_14
REMARK                            x       y       z     vdW  Elec       q    Type
REMARK                         _______ _______ _______ _____ _____    ______ ____
ROOT
ATOM      1  O   UNL     1       3.713   3.710  18.495  0.00  0.00    +0.000 OA
ATOM      2  C   UNL     1       4.358   4.640  18.007  0.00  0.00    +0.000 C 
ATOM      3  N   UNL     1       4.120   5.956  18.425  0.00  0.00    +0.000 N 
ATOM      4  C   UNL     1       4.597   7.185  17.762  0.00  0.00    +0.000 C 
ATOM      5  C   UNL     1       3.436   7.976  17.131  0.00  0.00    +0.000 C 
ATOM      6  N   UNL     1       2.356   8.176  18.098  0.00  0.00    +0.000 N 
ATOM      7  C   UNL     1       1.827   9.458  18.270  0.00  0.00    +0.000 C 
ATOM      8  O   UNL     1       2.170  10.380  17.528  0.00  0.00    +0.000 OA
ATOM      9  C   UNL     1       1.872   6.925  18.710  0.00  0.00    +0.000 C 
ATOM     10  C   UNL     1       3.037   6.194  19.393  0.00  0.00    +0.000 C 
ENDROOT
BRANCH   7  11
ATOM     11  C   UNL     1       0.858   9.686  19.327  0.00  0.00    +0.000 A 
ATOM     12  C   UNL     1      -0.432  10.183  19.262  0.00  0.00    +0.000 A 
ATOM     13  C   UNL     1      -0.942  10.179  20.582  0.00  0.00    +0.000 A 
ATOM     14  C   UNL     1       0.082   9.733  21.384  0.00  0.00    +0.000 A 
ATOM     15 BR   UNL     1      -0.018   9.486  23.230  0.00  0.00    +0.000 Br
ATOM     16  O   UNL     1       1.187   9.471  20.640  0.00  0.00    +0.000 OA
ENDBRANCH   7  11
BRANCH   2  17
ATOM     17  C   UNL     1       5.325   4.382  16.954  0.00  0.00    +0.000 A 
ATOM     18  C   UNL     1       5.116   3.982  15.645  0.00  0.00    +0.000 A 
ATOM     19  C   UNL     1       6.386   3.898  15.029  0.00  0.00    +0.000 A 
ATOM     20  C   UNL     1       7.301   4.198  16.009  0.00  0.00    +0.000 A 
ATOM     21  O   UNL     1       6.673   4.460  17.183  0.00  0.00    +0.000 OA
ENDBRANCH   2  17
TORSDOF 2
ENDMDL
MODEL 8
REMARK VINA RESULT:      -5.6      2.216      3.573
REMARK  Name = 
REMARK  2 active torsions:
REMARK  status: ('A' for Active; 'I' for Inactive)
REMARK    1  A    between atoms: C_2  and  C_3
REMARK    2  A    between atoms: C_12  and  C_14
REMARK                            x       y       z     vdW  Elec       q    Type
REMARK                         _______ _______ _______ _____ _____    ______ ____
ROOT
ATOM      1  O   UNL     1      -3.740  12.670  19.882  0.00  0.00    +0.000 OA
ATOM      2  C   UNL     1      -3.073  12.711  20.918  0.00  0.00    +0.000 C 
ATOM      3  N   UNL     1      -1.747  12.260  20.919  0.00  0.00    +0.000 N 
ATOM      4  C   UNL     1      -0.916  11.990  22.108  0.00  0.00    +0.000 C 
ATOM      5  C   UNL     1      -0.634  10.485  22.272  0.00  0.00    +0.000 C 
ATOM      6  N   UNL     1      -0.131   9.910  21.023  0.00  0.00    +0.000 N 
ATOM      7  C   UNL     1       1.021   9.119  21.055  0.00  0.00    +0.000 C 
ATOM      8  O   UNL     1       1.531   8.801  22.131  0.00  0.00    +0.000 OA
ATOM      9  C   UNL     1      -1.005  10.161  19.863  0.00  0.00    +0.000 C 
ATOM     10  C   UNL     1      -1.210  11.672  19.682  0.00  0.00    +0.000 C 
ENDROOT
BRANCH   7  11
ATOM     11  C   UNL     1       1.601   8.668  19.803  0.00  0.00    +0.000 A 
ATOM     12  C   UNL     1       1.649   9.289  18.567  0.00  0.00    +0.000 A 
ATOM     13  C   UNL     1       2.350   8.421  17.696  0.00  0.00    +0.000 A 
ATOM     14  C   UNL     1       2.642   7.298  18.433  0.00  0.00    +0.000 A 
ATOM     15 BR   UNL     1       3.592   5.816  17.817  0.00  0.00    +0.000 Br
ATOM     16  O   UNL     1       2.158   7.420  19.696  0.00  0.00    +0.000 OA
ENDBRANCH   7  11
BRANCH   2  17
ATOM     17  C   UNL     1      -3.680  13.173  22.155  0.00  0.00    +0.000 A 
ATOM     18  C   UNL     1      -3.707  14.446  22.701  0.00  0.00    +0.000 A 
ATOM     19  C   UNL     1      -4.447  14.364  23.903  0.00  0.00    +0.000 A 
ATOM     20  C   UNL     1      -4.783  13.041  24.052  0.00  0.00    +0.000 A 
ATOM     21  O   UNL     1      -4.297  12.308  23.018  0.00  0.00    +0.000 OA
ENDBRANCH   2  17
TORSDOF 2
ENDMDL
MODEL 9
REMARK VINA RESULT:      -5.6      3.145      7.325
REMARK  Name = 
REMARK  2 active torsions:
REMARK  status: ('A' for Active; 'I' for Inactive)
REMARK    1  A    between atoms: C_2  and  C_3
REMARK    2  A    between atoms: C_12  and  C_14
REMARK                            x       y       z     vdW  Elec       q    Type
REMARK                         _______ _______ _______ _____ _____    ______ ____
ROOT
ATOM      1  O   UNL     1       1.729   5.549  21.067  0.00  0.00    +0.000 OA
ATOM      2  C   UNL     1       2.110   6.128  20.047  0.00  0.00    +0.000 C 
ATOM      3  N   UNL     1       2.094   7.528  19.986  0.00  0.00    +0.000 N 
ATOM      4  C   UNL     1       2.251   8.353  18.773  0.00  0.00    +0.000 C 
ATOM      5  C   UNL     1       0.942   9.075  18.405  0.00  0.00    +0.000 C 
ATOM      6  N   UNL     1       0.393   9.780  19.564  0.00  0.00    +0.000 N 
ATOM      7  C   UNL     1       0.008  11.116  19.427  0.00  0.00    +0.000 C 
ATOM      8  O   UNL     1       0.005  11.655  18.319  0.00  0.00    +0.000 OA
ATOM      9  C   UNL     1       0.208   8.919  20.747  0.00  0.00    +0.000 C 
ATOM     10  C   UNL     1       1.544   8.269  21.133  0.00  0.00    +0.000 C 
ENDROOT
BRANCH   7  11
ATOM     11  C   UNL     1      -0.402  11.858  20.607  0.00  0.00    +0.000 A 
ATOM     12  C   UNL     1       0.284  12.807  21.345  0.00  0.00    +0.000 A 
ATOM     13  C   UNL     1      -0.584  13.226  22.382  0.00  0.00    +0.000 A 
ATOM     14  C   UNL     1      -1.726  12.472  22.251  0.00  0.00    +0.000 A 
ATOM     15 BR   UNL     1      -3.243  12.610  23.327  0.00  0.00    +0.000 Br
ATOM     16  O   UNL     1      -1.609  11.613  21.207  0.00  0.00    +0.000 OA
ENDBRANCH   7  11
BRANCH   2  17
ATOM     17  C   UNL     1       2.519   5.360  18.884  0.00  0.00    +0.000 A 
ATOM     18  C   UNL     1       1.764   4.542  18.058  0.00  0.00    +0.000 A 
ATOM     19  C   UNL     1       2.633   4.050  17.057  0.00  0.00    +0.000 A 
ATOM     20  C   UNL     1       3.877   4.550  17.357  0.00  0.00    +0.000 A 
ATOM     21  O   UNL     1       3.825   5.316  18.476  0.00  0.00    +0.000 OA
ENDBRANCH   2  17
TORSDOF 2
ENDMDL
