MODEL 1
REMARK VINA RESULT:      -7.5      0.000      0.000
REMARK  Name = 
REMARK  2 active torsions:
REMARK  status: ('A' for Active; 'I' for Inactive)
REMARK    1  A    between atoms: C_2  and  C_3
REMARK    2  A    between atoms: N_21  and  C_22
REMARK                            x       y       z     vdW  Elec       q    Type
REMARK                         _______ _______ _______ _____ _____    ______ ____
ROOT
ATOM      1  O   UNL     1       1.018  12.160  18.038  0.00  0.00    +0.000 OA
ATOM      2  C   UNL     1       0.600  11.499  18.979  0.00  0.00    +0.000 C 
ATOM      3  N   UNL     1       0.724  10.107  19.039  0.00  0.00    +0.000 N 
ATOM      4  C   UNL     1       1.293   9.377  17.895  0.00  0.00    +0.000 C 
ATOM      5  C   UNL     1       2.493   8.504  18.316  0.00  0.00    +0.000 C 
ATOM      6  N   UNL     1       2.167   7.659  19.481  0.00  0.00    +0.000 N 
ATOM      7  C   UNL     1       1.617   8.385  20.628  0.00  0.00    +0.000 C 
ATOM      8  C   UNL     1       0.429   9.249  20.195  0.00  0.00    +0.000 C 
ENDROOT
BRANCH   2   9
ATOM      9  C   UNL     1      -0.025  12.231  20.125  0.00  0.00    +0.000 A 
ATOM     10  C   UNL     1       0.738  12.884  21.099  0.00  0.00    +0.000 A 
ATOM     11  C   UNL     1       0.141  13.722  22.044  0.00  0.00    +0.000 A 
ATOM     12  C   UNL     1      -1.260  13.774  22.127  0.00  0.00    +0.000 A 
ATOM     13  N   UNL     1      -1.984  14.517  23.036  0.00  0.00    +0.000 NA
ATOM     14  C   UNL     1      -3.272  14.277  22.929  0.00  0.00    +0.000 A 
ATOM     15  N   UNL     1      -4.203  14.845  23.739  0.00  0.00    +0.000 N 
ATOM     16  C   UNL     1      -5.632  14.544  23.701  0.00  0.00    +0.000 C 
ATOM     17  C   UNL     1      -6.417  15.852  23.527  0.00  0.00    +0.000 C 
ATOM     18  O   UNL     1      -6.091  16.803  24.554  0.00  0.00    +0.000 OA
ATOM     19  C   UNL     1      -4.685  17.112  24.526  0.00  0.00    +0.000 C 
ATOM     20  C   UNL     1      -3.825  15.853  24.734  0.00  0.00    +0.000 C 
ATOM     21  S   UNL     1      -3.665  13.179  21.646  0.00  0.00    +0.000 S 
ATOM     22  C   UNL     1      -2.012  13.007  21.241  0.00  0.00    +0.000 A 
ATOM     23  C   UNL     1      -1.424  12.251  20.213  0.00  0.00    +0.000 A 
ENDBRANCH   2   9
BRANCH   6  24
ATOM     24  C   UNL     1       2.080   6.285  19.434  0.00  0.00    +0.000 A 
ATOM     25  C   UNL     1       2.270   5.588  18.226  0.00  0.00    +0.000 A 
ATOM     26  C   UNL     1       2.149   4.198  18.146  0.00  0.00    +0.000 A 
ATOM     27  C   UNL     1       1.832   3.471  19.283  0.00  0.00    +0.000 A 
ATOM     28 CL   UNL     1       1.660   1.763  19.192  0.00  0.00    +0.000 Cl
ATOM     29  C   UNL     1       1.651   4.124  20.496  0.00  0.00    +0.000 A 
ATOM     30  C   UNL     1       1.776   5.516  20.564  0.00  0.00    +0.000 A 
ENDBRANCH   6  24
TORSDOF 2
ENDMDL
MODEL 2
REMARK VINA RESULT:      -7.2      4.150     10.567
REMARK  Name = 
REMARK  2 active torsions:
REMARK  status: ('A' for Active; 'I' for Inactive)
REMARK    1  A    between atoms: C_2  and  C_3
REMARK    2  A    between atoms: N_21  and  C_22
REMARK                            x       y       z     vdW  Elec       q    Type
REMARK                         _______ _______ _______ _____ _____    ______ ____
ROOT
ATOM      1  O   UNL     1       1.960  12.765  21.044  0.00  0.00    +0.000 OA
ATOM      2  C   UNL     1       1.017  11.994  20.930  0.00  0.00    +0.000 C 
ATOM      3  N   UNL     1      -0.251  12.267  21.452  0.00  0.00    +0.000 N 
ATOM      4  C   UNL     1      -0.461  13.484  22.255  0.00  0.00    +0.000 C 
ATOM      5  C   UNL     1      -1.602  14.351  21.687  0.00  0.00    +0.000 C 
ATOM      6  N   UNL     1      -2.823  13.556  21.450  0.00  0.00    +0.000 N 
ATOM      7  C   UNL     1      -2.621  12.354  20.637  0.00  0.00    +0.000 C 
ATOM      8  C   UNL     1      -1.483  11.505  21.210  0.00  0.00    +0.000 C 
ENDROOT
BRANCH   2   9
ATOM      9  C   UNL     1       1.236  10.732  20.156  0.00  0.00    +0.000 A 
ATOM     10  C   UNL     1       1.310  10.715  18.759  0.00  0.00    +0.000 A 
ATOM     11  C   UNL     1       1.708   9.567  18.069  0.00  0.00    +0.000 A 
ATOM     12  C   UNL     1       1.870   8.364  18.775  0.00  0.00    +0.000 A 
ATOM     13  N   UNL     1       2.213   7.148  18.221  0.00  0.00    +0.000 NA
ATOM     14  C   UNL     1       2.185   6.191  19.122  0.00  0.00    +0.000 A 
ATOM     15  N   UNL     1       2.438   4.889  18.828  0.00  0.00    +0.000 N 
ATOM     16  C   UNL     1       2.342   3.787  19.784  0.00  0.00    +0.000 C 
ATOM     17  C   UNL     1       3.670   3.019  19.801  0.00  0.00    +0.000 C 
ATOM     18  O   UNL     1       4.034   2.565  18.487  0.00  0.00    +0.000 OA
ATOM     19  C   UNL     1       4.169   3.681  17.588  0.00  0.00    +0.000 C 
ATOM     20  C   UNL     1       2.861   4.485  17.484  0.00  0.00    +0.000 C 
ATOM     21  S   UNL     1       1.810   6.754  20.718  0.00  0.00    +0.000 S 
ATOM     22  C   UNL     1       1.655   8.360  20.150  0.00  0.00    +0.000 A 
ATOM     23  C   UNL     1       1.367   9.533  20.871  0.00  0.00    +0.000 A 
ENDBRANCH   2   9
BRANCH   6  24
ATOM     24  C   UNL     1      -3.995  13.716  22.157  0.00  0.00    +0.000 A 
ATOM     25  C   UNL     1      -4.334  12.840  23.205  0.00  0.00    +0.000 A 
ATOM     26  C   UNL     1      -5.534  12.960  23.911  0.00  0.00    +0.000 A 
ATOM     27  C   UNL     1      -6.427  13.966  23.578  0.00  0.00    +0.000 A 
ATOM     28 CL   UNL     1      -7.917  14.110  24.425  0.00  0.00    +0.000 Cl
ATOM     29  C   UNL     1      -6.120  14.857  22.557  0.00  0.00    +0.000 A 
ATOM     30  C   UNL     1      -4.915  14.729  21.859  0.00  0.00    +0.000 A 
ENDBRANCH   6  24
TORSDOF 2
ENDMDL
MODEL 3
REMARK VINA RESULT:      -7.1      2.398      2.880
REMARK  Name = 
REMARK  2 active torsions:
REMARK  status: ('A' for Active; 'I' for Inactive)
REMARK    1  A    between atoms: C_2  and  C_3
REMARK    2  A    between atoms: N_21  and  C_22
REMARK                            x       y       z     vdW  Elec       q    Type
REMARK                         _______ _______ _______ _____ _____    ______ ____
ROOT
ATOM      1  O   UNL     1       0.738  12.152  18.208  0.00  0.00    +0.000 OA
ATOM      2  C   UNL     1       0.447  11.483  19.190  0.00  0.00    +0.000 C 
ATOM      3  N   UNL     1       0.604  10.094  19.233  0.00  0.00    +0.000 N 
ATOM      4  C   UNL     1       1.049   9.374  18.028  0.00  0.00    +0.000 C 
ATOM      5  C   UNL     1       2.307   8.525  18.304  0.00  0.00    +0.000 C 
ATOM      6  N   UNL     1       2.137   7.675  19.499  0.00  0.00    +0.000 N 
ATOM      7  C   UNL     1       1.711   8.391  20.703  0.00  0.00    +0.000 C 
ATOM      8  C   UNL     1       0.465   9.231  20.414  0.00  0.00    +0.000 C 
ENDROOT
BRANCH   2   9
ATOM      9  C   UNL     1      -0.052  12.204  20.403  0.00  0.00    +0.000 A 
ATOM     10  C   UNL     1      -0.934  11.613  21.313  0.00  0.00    +0.000 A 
ATOM     11  C   UNL     1      -1.233  12.225  22.533  0.00  0.00    +0.000 A 
ATOM     12  C   UNL     1      -0.779  13.532  22.774  0.00  0.00    +0.000 A 
ATOM     13  N   UNL     1      -1.036  14.275  23.908  0.00  0.00    +0.000 NA
ATOM     14  C   UNL     1      -0.563  15.496  23.793  0.00  0.00    +0.000 A 
ATOM     15  N   UNL     1      -0.721  16.446  24.751  0.00  0.00    +0.000 N 
ATOM     16  C   UNL     1      -0.278  17.833  24.628  0.00  0.00    +0.000 C 
ATOM     17  C   UNL     1       0.622  18.182  25.821  0.00  0.00    +0.000 C 
ATOM     18  O   UNL     1      -0.041  17.935  27.072  0.00  0.00    +0.000 OA
ATOM     19  C   UNL     1      -0.416  16.550  27.177  0.00  0.00    +0.000 C 
ATOM     20  C   UNL     1      -1.355  16.128  26.034  0.00  0.00    +0.000 C 
ATOM     21  S   UNL     1       0.293  15.769  22.310  0.00  0.00    +0.000 S 
ATOM     22  C   UNL     1      -0.018  14.167  21.797  0.00  0.00    +0.000 A 
ATOM     23  C   UNL     1       0.386  13.519  20.617  0.00  0.00    +0.000 A 
ENDBRANCH   2   9
BRANCH   6  24
ATOM     24  C   UNL     1       2.072   6.299  19.460  0.00  0.00    +0.000 A 
ATOM     25  C   UNL     1       2.290   5.597  18.259  0.00  0.00    +0.000 A 
ATOM     26  C   UNL     1       2.192   4.205  18.188  0.00  0.00    +0.000 A 
ATOM     27  C   UNL     1       1.869   3.482  19.325  0.00  0.00    +0.000 A 
ATOM     28 CL   UNL     1       1.725   1.770  19.244  0.00  0.00    +0.000 Cl
ATOM     29  C   UNL     1       1.660   4.140  20.530  0.00  0.00    +0.000 A 
ATOM     30  C   UNL     1       1.762   5.533  20.591  0.00  0.00    +0.000 A 
ENDBRANCH   6  24
TORSDOF 2
ENDMDL
MODEL 4
REMARK VINA RESULT:      -7.0      4.544     10.975
REMARK  Name = 
REMARK  2 active torsions:
REMARK  status: ('A' for Active; 'I' for Inactive)
REMARK    1  A    between atoms: C_2  and  C_3
REMARK    2  A    between atoms: N_21  and  C_22
REMARK                            x       y       z     vdW  Elec       q    Type
REMARK                         _______ _______ _______ _____ _____    ______ ____
ROOT
ATOM      1  O   UNL     1      -2.019  11.065  18.781  0.00  0.00    +0.000 OA
ATOM      2  C   UNL     1      -1.202  11.163  19.687  0.00  0.00    +0.000 C 
ATOM      3  N   UNL     1      -1.215  12.213  20.609  0.00  0.00    +0.000 N 
ATOM      4  C   UNL     1      -2.186  13.309  20.450  0.00  0.00    +0.000 C 
ATOM      5  C   UNL     1      -3.039  13.504  21.720  0.00  0.00    +0.000 C 
ATOM      6  N   UNL     1      -2.198  13.601  22.929  0.00  0.00    +0.000 N 
ATOM      7  C   UNL     1      -1.243  12.504  23.100  0.00  0.00    +0.000 C 
ATOM      8  C   UNL     1      -0.406  12.320  21.831  0.00  0.00    +0.000 C 
ENDROOT
BRANCH   2   9
ATOM      9  C   UNL     1      -0.180  10.077  19.825  0.00  0.00    +0.000 A 
ATOM     10  C   UNL     1      -0.023   9.345  21.007  0.00  0.00    +0.000 A 
ATOM     11  C   UNL     1       0.794   8.213  21.054  0.00  0.00    +0.000 A 
ATOM     12  C   UNL     1       1.603   7.905  19.949  0.00  0.00    +0.000 A 
ATOM     13  N   UNL     1       2.489   6.850  19.871  0.00  0.00    +0.000 NA
ATOM     14  C   UNL     1       3.174   6.886  18.750  0.00  0.00    +0.000 A 
ATOM     15  N   UNL     1       4.146   5.987  18.445  0.00  0.00    +0.000 N 
ATOM     16  C   UNL     1       4.981   6.040  17.247  0.00  0.00    +0.000 C 
ATOM     17  C   UNL     1       4.880   4.701  16.504  0.00  0.00    +0.000 C 
ATOM     18  O   UNL     1       5.226   3.597  17.357  0.00  0.00    +0.000 OA
ATOM     19  C   UNL     1       4.351   3.549  18.499  0.00  0.00    +0.000 C 
ATOM     20  C   UNL     1       4.423   4.846  19.322  0.00  0.00    +0.000 C 
ATOM     21  S   UNL     1       2.706   8.180  17.695  0.00  0.00    +0.000 S 
ATOM     22  C   UNL     1       1.543   8.725  18.825  0.00  0.00    +0.000 A 
ATOM     23  C   UNL     1       0.641   9.798  18.724  0.00  0.00    +0.000 A 
ENDBRANCH   2   9
BRANCH   6  24
ATOM     24  C   UNL     1      -2.070  14.745  23.686  0.00  0.00    +0.000 A 
ATOM     25  C   UNL     1      -3.139  15.220  24.469  0.00  0.00    +0.000 A 
ATOM     26  C   UNL     1      -3.045  16.398  25.214  0.00  0.00    +0.000 A 
ATOM     27  C   UNL     1      -1.870  17.132  25.191  0.00  0.00    +0.000 A 
ATOM     28 CL   UNL     1      -1.750  18.594  26.088  0.00  0.00    +0.000 Cl
ATOM     29  C   UNL     1      -0.789  16.687  24.440  0.00  0.00    +0.000 A 
ATOM     30  C   UNL     1      -0.894  15.506  23.699  0.00  0.00    +0.000 A 
ENDBRANCH   6  24
TORSDOF 2
ENDMDL
MODEL 5
REMARK VINA RESULT:      -6.9      6.811     10.958
REMARK  Name = 
REMARK  2 active torsions:
REMARK  status: ('A' for Active; 'I' for Inactive)
REMARK    1  A    between atoms: C_2  and  C_3
REMARK    2  A    between atoms: N_21  and  C_22
REMARK                            x       y       z     vdW  Elec       q    Type
REMARK                         _______ _______ _______ _____ _____    ______ ____
ROOT
ATOM      1  O   UNL     1       2.700  17.454  18.244  0.00  0.00    +0.000 OA
ATOM      2  C   UNL     1       2.975  16.648  19.123  0.00  0.00    +0.000 C 
ATOM      3  N   UNL     1       2.001  16.015  19.900  0.00  0.00    +0.000 N 
ATOM      4  C   UNL     1       0.585  16.384  19.736  0.00  0.00    +0.000 C 
ATOM      5  C   UNL     1      -0.291  15.155  19.421  0.00  0.00    +0.000 C 
ATOM      6  N   UNL     1      -0.051  14.058  20.379  0.00  0.00    +0.000 N 
ATOM      7  C   UNL     1       1.354  13.676  20.532  0.00  0.00    +0.000 C 
ATOM      8  C   UNL     1       2.212  14.906  20.841  0.00  0.00    +0.000 C 
ENDROOT
BRANCH   2   9
ATOM      9  C   UNL     1       4.418  16.305  19.329  0.00  0.00    +0.000 A 
ATOM     10  C   UNL     1       5.161  16.814  20.398  0.00  0.00    +0.000 A 
ATOM     11  C   UNL     1       6.441  16.332  20.684  0.00  0.00    +0.000 A 
ATOM     12  C   UNL     1       7.058  15.448  19.784  0.00  0.00    +0.000 A 
ATOM     13  N   UNL     1       8.330  14.929  19.912  0.00  0.00    +0.000 NA
ATOM     14  C   UNL     1       8.661  14.215  18.859  0.00  0.00    +0.000 A 
ATOM     15  N   UNL     1       9.878  13.631  18.712  0.00  0.00    +0.000 N 
ATOM     16  C   UNL     1      10.309  12.895  17.524  0.00  0.00    +0.000 C 
ATOM     17  C   UNL     1      10.782  11.497  17.943  0.00  0.00    +0.000 C 
ATOM     18  O   UNL     1      11.814  11.566  18.941  0.00  0.00    +0.000 OA
ATOM     19  C   UNL     1      11.336  12.251  20.113  0.00  0.00    +0.000 C 
ATOM     20  C   UNL     1      10.876  13.682  19.784  0.00  0.00    +0.000 C 
ATOM     21  S   UNL     1       7.389  14.081  17.688  0.00  0.00    +0.000 S 
ATOM     22  C   UNL     1       6.360  15.056  18.645  0.00  0.00    +0.000 A 
ATOM     23  C   UNL     1       5.029  15.444  18.407  0.00  0.00    +0.000 A 
ENDBRANCH   2   9
BRANCH   6  24
ATOM     24  C   UNL     1      -0.985  13.615  21.290  0.00  0.00    +0.000 A 
ATOM     25  C   UNL     1      -2.206  14.294  21.465  0.00  0.00    +0.000 A 
ATOM     26  C   UNL     1      -3.152  13.886  22.409  0.00  0.00    +0.000 A 
ATOM     27  C   UNL     1      -2.891  12.783  23.207  0.00  0.00    +0.000 A 
ATOM     28 CL   UNL     1      -4.038  12.284  24.387  0.00  0.00    +0.000 Cl
ATOM     29  C   UNL     1      -1.703  12.080  23.054  0.00  0.00    +0.000 A 
ATOM     30  C   UNL     1      -0.764  12.497  22.104  0.00  0.00    +0.000 A 
ENDBRANCH   6  24
TORSDOF 2
ENDMDL
MODEL 6
REMARK VINA RESULT:      -6.9      1.289      1.493
REMARK  Name = 
REMARK  2 active torsions:
REMARK  status: ('A' for Active; 'I' for Inactive)
REMARK    1  A    between atoms: C_2  and  C_3
REMARK    2  A    between atoms: N_21  and  C_22
REMARK                            x       y       z     vdW  Elec       q    Type
REMARK                         _______ _______ _______ _____ _____    ______ ____
ROOT
ATOM      1  O   UNL     1       1.275  11.859  18.108  0.00  0.00    +0.000 OA
ATOM      2  C   UNL     1       0.764  11.023  18.841  0.00  0.00    +0.000 C 
ATOM      3  N   UNL     1       1.058   9.659  18.753  0.00  0.00    +0.000 N 
ATOM      4  C   UNL     1       1.944   9.173  17.682  0.00  0.00    +0.000 C 
ATOM      5  C   UNL     1       3.137   8.376  18.248  0.00  0.00    +0.000 C 
ATOM      6  N   UNL     1       2.693   7.335  19.196  0.00  0.00    +0.000 N 
ATOM      7  C   UNL     1       1.825   7.818  20.272  0.00  0.00    +0.000 C 
ATOM      8  C   UNL     1       0.648   8.610  19.696  0.00  0.00    +0.000 C 
ENDROOT
BRANCH   2   9
ATOM      9  C   UNL     1      -0.176  11.506  19.901  0.00  0.00    +0.000 A 
ATOM     10  C   UNL     1       0.197  11.598  21.246  0.00  0.00    +0.000 A 
ATOM     11  C   UNL     1      -0.623  12.231  22.183  0.00  0.00    +0.000 A 
ATOM     12  C   UNL     1      -1.916  12.626  21.806  0.00  0.00    +0.000 A 
ATOM     13  N   UNL     1      -2.849  13.217  22.634  0.00  0.00    +0.000 NA
ATOM     14  C   UNL     1      -4.000  13.375  22.018  0.00  0.00    +0.000 A 
ATOM     15  N   UNL     1      -5.100  13.892  22.623  0.00  0.00    +0.000 N 
ATOM     16  C   UNL     1      -6.415  14.011  21.996  0.00  0.00    +0.000 C 
ATOM     17  C   UNL     1      -6.888  15.467  22.091  0.00  0.00    +0.000 C 
ATOM     18  O   UNL     1      -6.893  15.933  23.451  0.00  0.00    +0.000 OA
ATOM     19  C   UNL     1      -5.572  15.848  24.017  0.00  0.00    +0.000 C 
ATOM     20  C   UNL     1      -5.038  14.405  23.995  0.00  0.00    +0.000 C 
ATOM     21  S   UNL     1      -3.969  12.873  20.359  0.00  0.00    +0.000 S 
ATOM     22  C   UNL     1      -2.331  12.400  20.497  0.00  0.00    +0.000 A 
ATOM     23  C   UNL     1      -1.474  11.870  19.516  0.00  0.00    +0.000 A 
ENDBRANCH   2   9
BRANCH   6  24
ATOM     24  C   UNL     1       2.803   5.982  18.959  0.00  0.00    +0.000 A 
ATOM     25  C   UNL     1       3.852   5.230  19.521  0.00  0.00    +0.000 A 
ATOM     26  C   UNL     1       4.005   3.866  19.264  0.00  0.00    +0.000 A 
ATOM     27  C   UNL     1       3.105   3.220  18.431  0.00  0.00    +0.000 A 
ATOM     28 CL   UNL     1       3.297   1.545  18.090  0.00  0.00    +0.000 Cl
ATOM     29  C   UNL     1       2.050   3.927  17.869  0.00  0.00    +0.000 A 
ATOM     30  C   UNL     1       1.905   5.292  18.134  0.00  0.00    +0.000 A 
ENDBRANCH   6  24
TORSDOF 2
ENDMDL
MODEL 7
REMARK VINA RESULT:      -6.8      0.798      1.199
REMARK  Name = 
REMARK  2 active torsions:
REMARK  status: ('A' for Active; 'I' for Inactive)
REMARK    1  A    between atoms: C_2  and  C_3
REMARK    2  A    between atoms: N_21  and  C_22
REMARK                            x       y       z     vdW  Elec       q    Type
REMARK                         _______ _______ _______ _____ _____    ______ ____
ROOT
ATOM      1  O   UNL     1      -0.364  12.047  17.914  0.00  0.00    +0.000 OA
ATOM      2  C   UNL     1      -0.418  11.425  18.967  0.00  0.00    +0.000 C 
ATOM      3  N   UNL     1      -0.017  10.091  19.079  0.00  0.00    +0.000 N 
ATOM      4  C   UNL     1       0.405   9.354  17.876  0.00  0.00    +0.000 C 
ATOM      5  C   UNL     1       1.816   8.752  18.043  0.00  0.00    +0.000 C 
ATOM      6  N   UNL     1       1.936   7.991  19.301  0.00  0.00    +0.000 N 
ATOM      7  C   UNL     1       1.534   8.727  20.502  0.00  0.00    +0.000 C 
ATOM      8  C   UNL     1       0.134   9.321  20.322  0.00  0.00    +0.000 C 
ENDROOT
BRANCH   2   9
ATOM      9  C   UNL     1      -0.893  12.155  20.185  0.00  0.00    +0.000 A 
ATOM     10  C   UNL     1      -0.063  12.392  21.285  0.00  0.00    +0.000 A 
ATOM     11  C   UNL     1      -0.460  13.239  22.322  0.00  0.00    +0.000 A 
ATOM     12  C   UNL     1      -1.778  13.722  22.347  0.00  0.00    +0.000 A 
ATOM     13  N   UNL     1      -2.321  14.525  23.328  0.00  0.00    +0.000 NA
ATOM     14  C   UNL     1      -3.604  14.725  23.123  0.00  0.00    +0.000 A 
ATOM     15  N   UNL     1      -4.388  15.444  23.968  0.00  0.00    +0.000 N 
ATOM     16  C   UNL     1      -5.830  15.623  23.816  0.00  0.00    +0.000 C 
ATOM     17  C   UNL     1      -6.154  17.123  23.816  0.00  0.00    +0.000 C 
ATOM     18  O   UNL     1      -5.650  17.771  24.995  0.00  0.00    +0.000 OA
ATOM     19  C   UNL     1      -4.221  17.616  25.084  0.00  0.00    +0.000 C 
ATOM     20  C   UNL     1      -3.815  16.133  25.128  0.00  0.00    +0.000 C 
ATOM     21  S   UNL     1      -4.192  13.996  21.664  0.00  0.00    +0.000 S 
ATOM     22  C   UNL     1      -2.642  13.364  21.315  0.00  0.00    +0.000 A 
ATOM     23  C   UNL     1      -2.220  12.607  20.208  0.00  0.00    +0.000 A 
ENDBRANCH   2   9
BRANCH   6  24
ATOM     24  C   UNL     1       2.109   6.625  19.360  0.00  0.00    +0.000 A 
ATOM     25  C   UNL     1       1.827   5.909  20.539  0.00  0.00    +0.000 A 
ATOM     26  C   UNL     1       2.030   4.530  20.634  0.00  0.00    +0.000 A 
ATOM     27  C   UNL     1       2.526   3.834  19.544  0.00  0.00    +0.000 A 
ATOM     28 CL   UNL     1       2.801   2.140  19.656  0.00  0.00    +0.000 Cl
ATOM     29  C   UNL     1       2.804   4.505  18.359  0.00  0.00    +0.000 A 
ATOM     30  C   UNL     1       2.595   5.885  18.275  0.00  0.00    +0.000 A 
ENDBRANCH   6  24
TORSDOF 2
ENDMDL
MODEL 8
REMARK VINA RESULT:      -6.7      4.738     11.102
REMARK  Name = 
REMARK  2 active torsions:
REMARK  status: ('A' for Active; 'I' for Inactive)
REMARK    1  A    between atoms: C_2  and  C_3
REMARK    2  A    between atoms: N_21  and  C_22
REMARK                            x       y       z     vdW  Elec       q    Type
REMARK                         _______ _______ _______ _____ _____    ______ ____
ROOT
ATOM      1  O   UNL     1       0.501   9.736  22.819  0.00  0.00    +0.000 OA
ATOM      2  C   UNL     1       0.132  10.026  21.689  0.00  0.00    +0.000 C 
ATOM      3  N   UNL     1      -0.901  10.935  21.440  0.00  0.00    +0.000 N 
ATOM      4  C   UNL     1      -1.652  11.510  22.568  0.00  0.00    +0.000 C 
ATOM      5  C   UNL     1      -1.631  13.053  22.538  0.00  0.00    +0.000 C 
ATOM      6  N   UNL     1      -2.018  13.575  21.213  0.00  0.00    +0.000 N 
ATOM      7  C   UNL     1      -1.262  13.017  20.090  0.00  0.00    +0.000 C 
ATOM      8  C   UNL     1      -1.288  11.487  20.134  0.00  0.00    +0.000 C 
ENDROOT
BRANCH   2   9
ATOM      9  C   UNL     1       0.859   9.406  20.537  0.00  0.00    +0.000 A 
ATOM     10  C   UNL     1       0.967  10.038  19.294  0.00  0.00    +0.000 A 
ATOM     11  C   UNL     1       1.810   9.537  18.299  0.00  0.00    +0.000 A 
ATOM     12  C   UNL     1       2.425   8.289  18.484  0.00  0.00    +0.000 A 
ATOM     13  N   UNL     1       3.242   7.653  17.572  0.00  0.00    +0.000 NA
ATOM     14  C   UNL     1       3.580   6.453  17.992  0.00  0.00    +0.000 A 
ATOM     15  N   UNL     1       4.342   5.599  17.262  0.00  0.00    +0.000 N 
ATOM     16  C   UNL     1       4.674   4.233  17.660  0.00  0.00    +0.000 C 
ATOM     17  C   UNL     1       6.198   4.057  17.634  0.00  0.00    +0.000 C 
ATOM     18  O   UNL     1       6.746   4.394  16.348  0.00  0.00    +0.000 OA
ATOM     19  C   UNL     1       6.442   5.761  16.014  0.00  0.00    +0.000 C 
ATOM     20  C   UNL     1       4.924   6.011  15.981  0.00  0.00    +0.000 C 
ATOM     21  S   UNL     1       2.972   6.078  19.572  0.00  0.00    +0.000 S 
ATOM     22  C   UNL     1       2.197   7.600  19.672  0.00  0.00    +0.000 A 
ATOM     23  C   UNL     1       1.444   8.146  20.727  0.00  0.00    +0.000 A 
ENDBRANCH   2   9
BRANCH   6  24
ATOM     24  C   UNL     1      -3.176  14.284  20.975  0.00  0.00    +0.000 A 
ATOM     25  C   UNL     1      -3.179  15.691  20.983  0.00  0.00    +0.000 A 
ATOM     26  C   UNL     1      -4.347  16.430  20.782  0.00  0.00    +0.000 A 
ATOM     27  C   UNL     1      -5.547  15.771  20.568  0.00  0.00    +0.000 A 
ATOM     28 CL   UNL     1      -6.995  16.670  20.341  0.00  0.00    +0.000 Cl
ATOM     29  C   UNL     1      -5.580  14.382  20.540  0.00  0.00    +0.000 A 
ATOM     30  C   UNL     1      -4.404  13.652  20.741  0.00  0.00    +0.000 A 
ENDBRANCH   6  24
TORSDOF 2
ENDMDL
MODEL 9
REMARK VINA RESULT:      -6.7      4.916     11.258
REMARK  Name = 
REMARK  2 active torsions:
REMARK  status: ('A' for Active; 'I' for Inactive)
REMARK    1  A    between atoms: C_2  and  C_3
REMARK    2  A    between atoms: N_21  and  C_22
REMARK                            x       y       z     vdW  Elec       q    Type
REMARK                         _______ _______ _______ _____ _____    ______ ____
ROOT
ATOM      1  O   UNL     1      -0.063   9.004  22.324  0.00  0.00    +0.000 OA
ATOM      2  C   UNL     1       0.025   9.641  21.283  0.00  0.00    +0.000 C 
ATOM      3  N   UNL     1      -0.569  10.894  21.110  0.00  0.00    +0.000 N 
ATOM      4  C   UNL     1      -1.417  11.451  22.177  0.00  0.00    +0.000 C 
ATOM      5  C   UNL     1      -0.934  12.848  22.618  0.00  0.00    +0.000 C 
ATOM      6  N   UNL     1      -0.736  13.744  21.461  0.00  0.00    +0.000 N 
ATOM      7  C   UNL     1       0.121  13.200  20.406  0.00  0.00    +0.000 C 
ATOM      8  C   UNL     1      -0.369  11.813  19.981  0.00  0.00    +0.000 C 
ENDROOT
BRANCH   2   9
ATOM      9  C   UNL     1       0.846   9.058  20.175  0.00  0.00    +0.000 A 
ATOM     10  C   UNL     1       0.892   9.628  18.899  0.00  0.00    +0.000 A 
ATOM     11  C   UNL     1       1.809   9.187  17.942  0.00  0.00    +0.000 A 
ATOM     12  C   UNL     1       2.577   8.042  18.204  0.00  0.00    +0.000 A 
ATOM     13  N   UNL     1       3.484   7.467  17.338  0.00  0.00    +0.000 NA
ATOM     14  C   UNL     1       3.967   6.347  17.829  0.00  0.00    +0.000 A 
ATOM     15  N   UNL     1       4.846   5.560  17.156  0.00  0.00    +0.000 N 
ATOM     16  C   UNL     1       5.345   4.272  17.635  0.00  0.00    +0.000 C 
ATOM     17  C   UNL     1       6.879   4.295  17.633  0.00  0.00    +0.000 C 
ATOM     18  O   UNL     1       7.400   4.628  16.336  0.00  0.00    +0.000 OA
ATOM     19  C   UNL     1       6.927   5.923  15.921  0.00  0.00    +0.000 C 
ATOM     20  C   UNL     1       5.391   5.972  15.859  0.00  0.00    +0.000 C 
ATOM     21  S   UNL     1       3.386   5.984  19.422  0.00  0.00    +0.000 S 
ATOM     22  C   UNL     1       2.420   7.395  19.427  0.00  0.00    +0.000 A 
ATOM     23  C   UNL     1       1.585   7.897  20.442  0.00  0.00    +0.000 A 
ENDBRANCH   2   9
BRANCH   6  24
ATOM     24  C   UNL     1      -1.507  14.859  21.212  0.00  0.00    +0.000 A 
ATOM     25  C   UNL     1      -1.185  15.744  20.165  0.00  0.00    +0.000 A 
ATOM     26  C   UNL     1      -1.929  16.900  19.918  0.00  0.00    +0.000 A 
ATOM     27  C   UNL     1      -3.018  17.199  20.721  0.00  0.00    +0.000 A 
ATOM     28 CL   UNL     1      -3.928  18.631  20.440  0.00  0.00    +0.000 Cl
ATOM     29  C   UNL     1      -3.373  16.343  21.756  0.00  0.00    +0.000 A 
ATOM     30  C   UNL     1      -2.622  15.187  21.994  0.00  0.00    +0.000 A 
ENDBRANCH   6  24
TORSDOF 2
ENDMDL
