MODEL 1
REMARK VINA RESULT:      -7.9      0.000      0.000
REMARK  Name = 
REMARK  3 active torsions:
REMARK  status: ('A' for Active; 'I' for Inactive)
REMARK    1  A    between atoms: C_1  and  C_2
REMARK    2  A    between atoms: N_4  and  C_5
REMARK    3  A    between atoms: C_14  and  C_15
REMARK                            x       y       z     vdW  Elec       q    Type
REMARK                         _______ _______ _______ _____ _____    ______ ____
ROOT
ATOM      1  C   UNL     1       0.986   9.332  19.865  0.00  0.00    +0.000 A 
ATOM      2  C   UNL     1       1.078  10.469  19.055  0.00  0.00    +0.000 A 
ATOM      3  C   UNL     1       1.854  10.481  17.873  0.00  0.00    +0.000 A 
ATOM      4  C   UNL     1       2.584   9.362  17.461  0.00  0.00    +0.000 A 
ATOM      5  C   UNL     1       2.528   8.254  18.273  0.00  0.00    +0.000 A 
ATOM      6  C   UNL     1       1.751   8.251  19.466  0.00  0.00    +0.000 A 
ATOM      7  C   UNL     1       1.890   6.909  20.115  0.00  0.00    +0.000 C 
ATOM      8  O   UNL     1       1.356   6.586  21.162  0.00  0.00    +0.000 OA
ATOM      9  C   UNL     1       2.757   6.153  19.226  0.00  0.00    +0.000 A 
ATOM     10  C   UNL     1       3.372   4.914  19.004  0.00  0.00    +0.000 A 
ATOM     11  N   UNL     1       4.094   4.972  17.861  0.00  0.00    +0.000 NA
ATOM     12  N   UNL     1       3.894   6.218  17.368  0.00  0.00    +0.000 N 
ATOM     13  C   UNL     1       3.116   6.954  18.177  0.00  0.00    +0.000 A 
ATOM     14  H   UNL     1       4.333   6.461  16.487  0.00  0.00    +0.000 HD
ENDROOT
BRANCH  10  15
ATOM     15  C   UNL     1       3.352   3.639  19.827  0.00  0.00    +0.000 C 
ATOM     16  C   UNL     1       2.099   3.487  20.703  0.00  0.00    +0.000 C 
ATOM     17  C   UNL     1       0.835   3.272  19.873  0.00  0.00    +0.000 C 
ATOM     18  C   UNL     1       0.973   2.095  18.909  0.00  0.00    +0.000 C 
ATOM     19  C   UNL     1       2.272   2.093  18.103  0.00  0.00    +0.000 C 
ATOM     20  C   UNL     1       3.499   2.357  18.978  0.00  0.00    +0.000 C 
ENDBRANCH  10  15
BRANCH   1  24
ATOM     21  C   UNL     1      -0.465   9.245  23.362  0.00  0.00    +0.000 C 
ATOM     22  C   UNL     1       0.593   9.438  22.313  0.00  0.00    +0.000 C 
ATOM     23  O   UNL     1       1.733   9.748  22.649  0.00  0.00    +0.000 OA
ATOM     24  N   UNL     1       0.159   9.251  21.012  0.00  0.00    +0.000 N 
ATOM     25  H   UNL     1      -0.847   9.212  20.844  0.00  0.00    +0.000 HD
ENDBRANCH   1  24
TORSDOF 2
ENDMDL
MODEL 2
REMARK VINA RESULT:      -7.7      3.965      5.720
REMARK  Name = 
REMARK  3 active torsions:
REMARK  status: ('A' for Active; 'I' for Inactive)
REMARK    1  A    between atoms: C_1  and  C_2
REMARK    2  A    between atoms: N_4  and  C_5
REMARK    3  A    between atoms: C_14  and  C_15
REMARK                            x       y       z     vdW  Elec       q    Type
REMARK                         _______ _______ _______ _____ _____    ______ ____
ROOT
ATOM      1  C   UNL     1       7.007   5.425  16.688  0.00  0.00    +0.000 A 
ATOM      2  C   UNL     1       7.485   4.993  15.446  0.00  0.00    +0.000 A 
ATOM      3  C   UNL     1       6.690   4.219  14.570  0.00  0.00    +0.000 A 
ATOM      4  C   UNL     1       5.389   3.832  14.906  0.00  0.00    +0.000 A 
ATOM      5  C   UNL     1       4.928   4.222  16.141  0.00  0.00    +0.000 A 
ATOM      6  C   UNL     1       5.737   4.992  17.022  0.00  0.00    +0.000 A 
ATOM      7  C   UNL     1       4.953   5.259  18.270  0.00  0.00    +0.000 C 
ATOM      8  O   UNL     1       5.368   5.886  19.229  0.00  0.00    +0.000 OA
ATOM      9  C   UNL     1       3.664   4.626  18.043  0.00  0.00    +0.000 A 
ATOM     10  C   UNL     1       2.393   4.387  18.581  0.00  0.00    +0.000 A 
ATOM     11  N   UNL     1       1.668   3.654  17.705  0.00  0.00    +0.000 NA
ATOM     12  N   UNL     1       2.470   3.477  16.627  0.00  0.00    +0.000 N 
ATOM     13  C   UNL     1       3.680   4.029  16.812  0.00  0.00    +0.000 A 
ATOM     14  H   UNL     1       2.100   2.967  15.833  0.00  0.00    +0.000 HD
ENDROOT
BRANCH  10  15
ATOM     15  C   UNL     1       1.794   4.790  19.915  0.00  0.00    +0.000 C 
ATOM     16  C   UNL     1       0.462   4.093  20.233  0.00  0.00    +0.000 C 
ATOM     17  C   UNL     1       0.638   2.595  20.478  0.00  0.00    +0.000 C 
ATOM     18  C   UNL     1       1.677   2.308  21.561  0.00  0.00    +0.000 C 
ATOM     19  C   UNL     1       2.984   3.084  21.398  0.00  0.00    +0.000 C 
ATOM     20  C   UNL     1       2.747   4.568  21.110  0.00  0.00    +0.000 C 
ENDBRANCH  10  15
BRANCH   1  24
ATOM     21  C   UNL     1       8.574   8.317  18.564  0.00  0.00    +0.000 C 
ATOM     22  C   UNL     1       7.654   7.647  17.584  0.00  0.00    +0.000 C 
ATOM     23  O   UNL     1       6.901   8.328  16.894  0.00  0.00    +0.000 OA
ATOM     24  N   UNL     1       7.741   6.265  17.561  0.00  0.00    +0.000 N 
ATOM     25  H   UNL     1       8.237   5.803  18.325  0.00  0.00    +0.000 HD
ENDBRANCH   1  24
TORSDOF 2
ENDMDL
MODEL 3
REMARK VINA RESULT:      -7.6      3.729      5.721
REMARK  Name = 
REMARK  3 active torsions:
REMARK  status: ('A' for Active; 'I' for Inactive)
REMARK    1  A    between atoms: C_1  and  C_2
REMARK    2  A    between atoms: N_4  and  C_5
REMARK    3  A    between atoms: C_14  and  C_15
REMARK                            x       y       z     vdW  Elec       q    Type
REMARK                         _______ _______ _______ _____ _____    ______ ____
ROOT
ATOM      1  C   UNL     1       6.397   5.933  16.090  0.00  0.00    +0.000 A 
ATOM      2  C   UNL     1       7.123   5.299  15.076  0.00  0.00    +0.000 A 
ATOM      3  C   UNL     1       6.724   4.053  14.540  0.00  0.00    +0.000 A 
ATOM      4  C   UNL     1       5.590   3.382  15.007  0.00  0.00    +0.000 A 
ATOM      5  C   UNL     1       4.893   3.982  16.029  0.00  0.00    +0.000 A 
ATOM      6  C   UNL     1       5.306   5.231  16.570  0.00  0.00    +0.000 A 
ATOM      7  C   UNL     1       4.344   5.618  17.651  0.00  0.00    +0.000 C 
ATOM      8  O   UNL     1       4.425   6.633  18.321  0.00  0.00    +0.000 OA
ATOM      9  C   UNL     1       3.363   4.544  17.678  0.00  0.00    +0.000 A 
ATOM     10  C   UNL     1       2.187   4.081  18.281  0.00  0.00    +0.000 A 
ATOM     11  N   UNL     1       1.841   2.895  17.730  0.00  0.00    +0.000 NA
ATOM     12  N   UNL     1       2.771   2.651  16.776  0.00  0.00    +0.000 N 
ATOM     13  C   UNL     1       3.708   3.612  16.739  0.00  0.00    +0.000 A 
ATOM     14  H   UNL     1       2.677   1.810  16.218  0.00  0.00    +0.000 HD
ENDROOT
BRANCH  10  15
ATOM     15  C   UNL     1       1.344   4.680  19.392  0.00  0.00    +0.000 C 
ATOM     16  C   UNL     1       0.416   3.667  20.080  0.00  0.00    +0.000 C 
ATOM     17  C   UNL     1       1.190   2.625  20.884  0.00  0.00    +0.000 C 
ATOM     18  C   UNL     1       2.141   3.267  21.893  0.00  0.00    +0.000 C 
ATOM     19  C   UNL     1       2.999   4.394  21.318  0.00  0.00    +0.000 C 
ATOM     20  C   UNL     1       2.179   5.382  20.486  0.00  0.00    +0.000 C 
ENDBRANCH  10  15
BRANCH   1  24
ATOM     21  C   UNL     1       7.685   8.896  18.064  0.00  0.00    +0.000 C 
ATOM     22  C   UNL     1       7.546   7.450  17.682  0.00  0.00    +0.000 C 
ATOM     23  O   UNL     1       8.155   6.593  18.316  0.00  0.00    +0.000 OA
ATOM     24  N   UNL     1       6.716   7.215  16.599  0.00  0.00    +0.000 N 
ATOM     25  H   UNL     1       6.442   8.013  16.024  0.00  0.00    +0.000 HD
ENDBRANCH   1  24
TORSDOF 2
ENDMDL
MODEL 4
REMARK VINA RESULT:      -7.6      4.049      5.904
REMARK  Name = 
REMARK  3 active torsions:
REMARK  status: ('A' for Active; 'I' for Inactive)
REMARK    1  A    between atoms: C_1  and  C_2
REMARK    2  A    between atoms: N_4  and  C_5
REMARK    3  A    between atoms: C_14  and  C_15
REMARK                            x       y       z     vdW  Elec       q    Type
REMARK                         _______ _______ _______ _____ _____    ______ ____
ROOT
ATOM      1  C   UNL     1       7.125   5.342  16.547  0.00  0.00    +0.000 A 
ATOM      2  C   UNL     1       7.418   5.231  15.183  0.00  0.00    +0.000 A 
ATOM      3  C   UNL     1       6.653   4.412  14.320  0.00  0.00    +0.000 A 
ATOM      4  C   UNL     1       5.572   3.660  14.789  0.00  0.00    +0.000 A 
ATOM      5  C   UNL     1       5.302   3.736  16.135  0.00  0.00    +0.000 A 
ATOM      6  C   UNL     1       6.082   4.554  16.999  0.00  0.00    +0.000 A 
ATOM      7  C   UNL     1       5.536   4.428  18.388  0.00  0.00    +0.000 C 
ATOM      8  O   UNL     1       5.990   4.996  19.366  0.00  0.00    +0.000 OA
ATOM      9  C   UNL     1       4.404   3.524  18.262  0.00  0.00    +0.000 A 
ATOM     10  C   UNL     1       3.360   2.891  18.949  0.00  0.00    +0.000 A 
ATOM     11  N   UNL     1       2.653   2.130  18.082  0.00  0.00    +0.000 NA
ATOM     12  N   UNL     1       3.232   2.323  16.872  0.00  0.00    +0.000 N 
ATOM     13  C   UNL     1       4.297   3.135  16.955  0.00  0.00    +0.000 A 
ATOM     14  H   UNL     1       2.829   1.854  16.069  0.00  0.00    +0.000 HD
ENDROOT
BRANCH  10  15
ATOM     15  C   UNL     1       2.976   2.931  20.416  0.00  0.00    +0.000 C 
ATOM     16  C   UNL     1       3.101   4.324  21.053  0.00  0.00    +0.000 C 
ATOM     17  C   UNL     1       2.075   5.309  20.496  0.00  0.00    +0.000 C 
ATOM     18  C   UNL     1       0.647   4.780  20.617  0.00  0.00    +0.000 C 
ATOM     19  C   UNL     1       0.469   3.339  20.141  0.00  0.00    +0.000 C 
ATOM     20  C   UNL     1       1.550   2.406  20.693  0.00  0.00    +0.000 C 
ENDBRANCH  10  15
BRANCH   1  24
ATOM     21  C   UNL     1       8.476   8.279  18.518  0.00  0.00    +0.000 C 
ATOM     22  C   UNL     1       7.574   7.566  17.552  0.00  0.00    +0.000 C 
ATOM     23  O   UNL     1       6.702   8.194  16.958  0.00  0.00    +0.000 OA
ATOM     24  N   UNL     1       7.815   6.209  17.429  0.00  0.00    +0.000 N 
ATOM     25  H   UNL     1       8.413   5.763  18.128  0.00  0.00    +0.000 HD
ENDBRANCH   1  24
TORSDOF 2
ENDMDL
MODEL 5
REMARK VINA RESULT:      -7.6      2.537      4.098
REMARK  Name = 
REMARK  3 active torsions:
REMARK  status: ('A' for Active; 'I' for Inactive)
REMARK    1  A    between atoms: C_1  and  C_2
REMARK    2  A    between atoms: N_4  and  C_5
REMARK    3  A    between atoms: C_14  and  C_15
REMARK                            x       y       z     vdW  Elec       q    Type
REMARK                         _______ _______ _______ _____ _____    ______ ____
ROOT
ATOM      1  C   UNL     1       1.001  10.148  19.721  0.00  0.00    +0.000 A 
ATOM      2  C   UNL     1       0.316  10.324  20.929  0.00  0.00    +0.000 A 
ATOM      3  C   UNL     1       0.257   9.305  21.907  0.00  0.00    +0.000 A 
ATOM      4  C   UNL     1       0.867   8.062  21.711  0.00  0.00    +0.000 A 
ATOM      5  C   UNL     1       1.509   7.870  20.511  0.00  0.00    +0.000 A 
ATOM      6  C   UNL     1       1.557   8.897  19.527  0.00  0.00    +0.000 A 
ATOM      7  C   UNL     1       2.328   8.385  18.350  0.00  0.00    +0.000 C 
ATOM      8  O   UNL     1       2.540   9.020  17.331  0.00  0.00    +0.000 OA
ATOM      9  C   UNL     1       2.729   7.038  18.724  0.00  0.00    +0.000 A 
ATOM     10  C   UNL     1       3.434   5.898  18.318  0.00  0.00    +0.000 A 
ATOM     11  N   UNL     1       3.357   4.958  19.288  0.00  0.00    +0.000 NA
ATOM     12  N   UNL     1       2.645   5.527  20.291  0.00  0.00    +0.000 N 
ATOM     13  C   UNL     1       2.237   6.765  19.970  0.00  0.00    +0.000 A 
ATOM     14  H   UNL     1       2.494   4.989  21.137  0.00  0.00    +0.000 HD
ENDROOT
BRANCH  10  15
ATOM     15  C   UNL     1       4.184   5.605  17.032  0.00  0.00    +0.000 C 
ATOM     16  C   UNL     1       5.006   6.793  16.509  0.00  0.00    +0.000 C 
ATOM     17  C   UNL     1       6.187   7.125  17.419  0.00  0.00    +0.000 C 
ATOM     18  C   UNL     1       7.080   5.911  17.669  0.00  0.00    +0.000 C 
ATOM     19  C   UNL     1       6.320   4.640  18.049  0.00  0.00    +0.000 C 
ATOM     20  C   UNL     1       5.122   4.382  17.132  0.00  0.00    +0.000 C 
ENDBRANCH  10  15
BRANCH   1  24
ATOM     21  C   UNL     1       1.738  13.328  17.802  0.00  0.00    +0.000 C 
ATOM     22  C   UNL     1       1.749  12.395  18.979  0.00  0.00    +0.000 C 
ATOM     23  O   UNL     1       2.272  12.750  20.032  0.00  0.00    +0.000 OA
ATOM     24  N   UNL     1       1.151  11.167  18.749  0.00  0.00    +0.000 N 
ATOM     25  H   UNL     1       0.949  10.906  17.783  0.00  0.00    +0.000 HD
ENDBRANCH   1  24
TORSDOF 2
ENDMDL
MODEL 6
REMARK VINA RESULT:      -7.5      2.576      6.819
REMARK  Name = 
REMARK  3 active torsions:
REMARK  status: ('A' for Active; 'I' for Inactive)
REMARK    1  A    between atoms: C_1  and  C_2
REMARK    2  A    between atoms: N_4  and  C_5
REMARK    3  A    between atoms: C_14  and  C_15
REMARK                            x       y       z     vdW  Elec       q    Type
REMARK                         _______ _______ _______ _____ _____    ______ ____
ROOT
ATOM      1  C   UNL     1       4.033   4.065  17.649  0.00  0.00    +0.000 A 
ATOM      2  C   UNL     1       3.996   2.758  18.149  0.00  0.00    +0.000 A 
ATOM      3  C   UNL     1       3.316   2.438  19.347  0.00  0.00    +0.000 A 
ATOM      4  C   UNL     1       2.659   3.414  20.101  0.00  0.00    +0.000 A 
ATOM      5  C   UNL     1       2.724   4.705  19.635  0.00  0.00    +0.000 A 
ATOM      6  C   UNL     1       3.418   5.022  18.434  0.00  0.00    +0.000 A 
ATOM      7  C   UNL     1       3.298   6.496  18.195  0.00  0.00    +0.000 C 
ATOM      8  O   UNL     1       3.793   7.088  17.252  0.00  0.00    +0.000 OA
ATOM      9  C   UNL     1       2.490   6.988  19.300  0.00  0.00    +0.000 A 
ATOM     10  C   UNL     1       1.886   8.119  19.863  0.00  0.00    +0.000 A 
ATOM     11  N   UNL     1       1.242   7.761  20.998  0.00  0.00    +0.000 NA
ATOM     12  N   UNL     1       1.416   6.422  21.110  0.00  0.00    +0.000 N 
ATOM     13  C   UNL     1       2.180   5.936  20.118  0.00  0.00    +0.000 A 
ATOM     14  H   UNL     1       0.983   5.945  21.892  0.00  0.00    +0.000 HD
ENDROOT
BRANCH  10  15
ATOM     15  C   UNL     1       1.887   9.567  19.413  0.00  0.00    +0.000 C 
ATOM     16  C   UNL     1       1.547   9.755  17.926  0.00  0.00    +0.000 C 
ATOM     17  C   UNL     1       0.096   9.394  17.614  0.00  0.00    +0.000 C 
ATOM     18  C   UNL     1      -0.889  10.156  18.500  0.00  0.00    +0.000 C 
ATOM     19  C   UNL     1      -0.535  10.145  19.987  0.00  0.00    +0.000 C 
ATOM     20  C   UNL     1       0.940  10.468  20.236  0.00  0.00    +0.000 C 
ENDBRANCH  10  15
BRANCH   1  24
ATOM     21  C   UNL     1       6.383   4.997  14.829  0.00  0.00    +0.000 C 
ATOM     22  C   UNL     1       5.996   4.568  16.215  0.00  0.00    +0.000 C 
ATOM     23  O   UNL     1       6.868   4.374  17.057  0.00  0.00    +0.000 OA
ATOM     24  N   UNL     1       4.635   4.415  16.415  0.00  0.00    +0.000 N 
ATOM     25  H   UNL     1       4.030   4.391  15.593  0.00  0.00    +0.000 HD
ENDBRANCH   1  24
TORSDOF 2
ENDMDL
MODEL 7
REMARK VINA RESULT:      -7.4      2.255      6.785
REMARK  Name = 
REMARK  3 active torsions:
REMARK  status: ('A' for Active; 'I' for Inactive)
REMARK    1  A    between atoms: C_1  and  C_2
REMARK    2  A    between atoms: N_4  and  C_5
REMARK    3  A    between atoms: C_14  and  C_15
REMARK                            x       y       z     vdW  Elec       q    Type
REMARK                         _______ _______ _______ _____ _____    ______ ____
ROOT
ATOM      1  C   UNL     1       3.391   4.417  18.441  0.00  0.00    +0.000 A 
ATOM      2  C   UNL     1       3.385   3.228  19.178  0.00  0.00    +0.000 A 
ATOM      3  C   UNL     1       2.802   3.149  20.463  0.00  0.00    +0.000 A 
ATOM      4  C   UNL     1       2.212   4.261  21.071  0.00  0.00    +0.000 A 
ATOM      5  C   UNL     1       2.248   5.442  20.369  0.00  0.00    +0.000 A 
ATOM      6  C   UNL     1       2.846   5.516  19.080  0.00  0.00    +0.000 A 
ATOM      7  C   UNL     1       2.716   6.922  18.581  0.00  0.00    +0.000 C 
ATOM      8  O   UNL     1       3.138   7.319  17.509  0.00  0.00    +0.000 OA
ATOM      9  C   UNL     1       2.002   7.627  19.633  0.00  0.00    +0.000 A 
ATOM     10  C   UNL     1       1.452   8.855  20.021  0.00  0.00    +0.000 A 
ATOM     11  N   UNL     1       0.898   8.728  21.249  0.00  0.00    +0.000 NA
ATOM     12  N   UNL     1       1.073   7.429  21.594  0.00  0.00    +0.000 N 
ATOM     13  C   UNL     1       1.751   6.752  20.654  0.00  0.00    +0.000 A 
ATOM     14  H   UNL     1       0.700   7.115  22.483  0.00  0.00    +0.000 HD
ENDROOT
BRANCH  10  15
ATOM     15  C   UNL     1       1.425  10.195  19.310  0.00  0.00    +0.000 C 
ATOM     16  C   UNL     1       0.904  10.121  17.867  0.00  0.00    +0.000 C 
ATOM     17  C   UNL     1      -0.582   9.774  17.806  0.00  0.00    +0.000 C 
ATOM     18  C   UNL     1      -1.431  10.728  18.645  0.00  0.00    +0.000 C 
ATOM     19  C   UNL     1      -0.892  10.974  20.054  0.00  0.00    +0.000 C 
ATOM     20  C   UNL     1       0.609  11.272  20.058  0.00  0.00    +0.000 C 
ENDBRANCH  10  15
BRANCH   1  24
ATOM     21  C   UNL     1       5.517   4.719  15.323  0.00  0.00    +0.000 C 
ATOM     22  C   UNL     1       5.237   4.549  16.788  0.00  0.00    +0.000 C 
ATOM     23  O   UNL     1       6.172   4.438  17.577  0.00  0.00    +0.000 OA
ATOM     24  N   UNL     1       3.894   4.521  17.121  0.00  0.00    +0.000 N 
ATOM     25  H   UNL     1       3.216   4.403  16.367  0.00  0.00    +0.000 HD
ENDBRANCH   1  24
TORSDOF 2
ENDMDL
MODEL 8
REMARK VINA RESULT:      -7.2      3.353      4.879
REMARK  Name = 
REMARK  3 active torsions:
REMARK  status: ('A' for Active; 'I' for Inactive)
REMARK    1  A    between atoms: C_1  and  C_2
REMARK    2  A    between atoms: N_4  and  C_5
REMARK    3  A    between atoms: C_14  and  C_15
REMARK                            x       y       z     vdW  Elec       q    Type
REMARK                         _______ _______ _______ _____ _____    ______ ____
ROOT
ATOM      1  C   UNL     1       2.294   6.012  20.371  0.00  0.00    +0.000 A 
ATOM      2  C   UNL     1       1.482   7.122  20.625  0.00  0.00    +0.000 A 
ATOM      3  C   UNL     1       1.462   8.244  19.764  0.00  0.00    +0.000 A 
ATOM      4  C   UNL     1       2.265   8.307  18.621  0.00  0.00    +0.000 A 
ATOM      5  C   UNL     1       3.093   7.236  18.387  0.00  0.00    +0.000 A 
ATOM      6  C   UNL     1       3.115   6.114  19.262  0.00  0.00    +0.000 A 
ATOM      7  C   UNL     1       4.104   5.122  18.733  0.00  0.00    +0.000 C 
ATOM      8  O   UNL     1       4.367   4.055  19.261  0.00  0.00    +0.000 OA
ATOM      9  C   UNL     1       4.619   5.724  17.513  0.00  0.00    +0.000 A 
ATOM     10  C   UNL     1       5.482   5.548  16.424  0.00  0.00    +0.000 A 
ATOM     11  N   UNL     1       5.421   6.640  15.627  0.00  0.00    +0.000 NA
ATOM     12  N   UNL     1       4.505   7.458  16.198  0.00  0.00    +0.000 N 
ATOM     13  C   UNL     1       4.025   6.944  17.342  0.00  0.00    +0.000 A 
ATOM     14  H   UNL     1       4.288   8.333  15.735  0.00  0.00    +0.000 HD
ENDROOT
BRANCH  10  15
ATOM     15  C   UNL     1       6.411   4.401  16.074  0.00  0.00    +0.000 C 
ATOM     16  C   UNL     1       5.737   3.281  15.267  0.00  0.00    +0.000 C 
ATOM     17  C   UNL     1       5.354   3.733  13.859  0.00  0.00    +0.000 C 
ATOM     18  C   UNL     1       6.544   4.315  13.098  0.00  0.00    +0.000 C 
ATOM     19  C   UNL     1       7.361   5.333  13.893  0.00  0.00    +0.000 C 
ATOM     20  C   UNL     1       7.677   4.846  15.309  0.00  0.00    +0.000 C 
ENDBRANCH  10  15
BRANCH   1  24
ATOM     21  C   UNL     1       1.621   2.633  21.942  0.00  0.00    +0.000 C 
ATOM     22  C   UNL     1       1.485   3.733  20.929  0.00  0.00    +0.000 C 
ATOM     23  O   UNL     1       0.712   3.597  19.984  0.00  0.00    +0.000 OA
ATOM     24  N   UNL     1       2.287   4.837  21.162  0.00  0.00    +0.000 N 
ATOM     25  H   UNL     1       3.039   4.747  21.846  0.00  0.00    +0.000 HD
ENDBRANCH   1  24
TORSDOF 2
ENDMDL
MODEL 9
REMARK VINA RESULT:      -7.0      1.987      6.125
REMARK  Name = 
REMARK  3 active torsions:
REMARK  status: ('A' for Active; 'I' for Inactive)
REMARK    1  A    between atoms: C_1  and  C_2
REMARK    2  A    between atoms: N_4  and  C_5
REMARK    3  A    between atoms: C_14  and  C_15
REMARK                            x       y       z     vdW  Elec       q    Type
REMARK                         _______ _______ _______ _____ _____    ______ ____
ROOT
ATOM      1  C   UNL     1       3.346   4.459  19.232  0.00  0.00    +0.000 A 
ATOM      2  C   UNL     1       4.180   3.882  18.268  0.00  0.00    +0.000 A 
ATOM      3  C   UNL     1       4.644   4.612  17.150  0.00  0.00    +0.000 A 
ATOM      4  C   UNL     1       4.282   5.946  16.942  0.00  0.00    +0.000 A 
ATOM      5  C   UNL     1       3.433   6.508  17.865  0.00  0.00    +0.000 A 
ATOM      6  C   UNL     1       2.962   5.764  18.983  0.00  0.00    +0.000 A 
ATOM      7  C   UNL     1       2.072   6.651  19.798  0.00  0.00    +0.000 C 
ATOM      8  O   UNL     1       1.498   6.310  20.818  0.00  0.00    +0.000 OA
ATOM      9  C   UNL     1       2.081   7.928  19.103  0.00  0.00    +0.000 A 
ATOM     10  C   UNL     1       1.611   9.247  19.122  0.00  0.00    +0.000 A 
ATOM     11  N   UNL     1       2.088   9.907  18.041  0.00  0.00    +0.000 NA
ATOM     12  N   UNL     1       2.872   9.015  17.388  0.00  0.00    +0.000 N 
ATOM     13  C   UNL     1       2.867   7.815  17.989  0.00  0.00    +0.000 A 
ATOM     14  H   UNL     1       3.353   9.324  16.550  0.00  0.00    +0.000 HD
ENDROOT
BRANCH  10  15
ATOM     15  C   UNL     1       0.695   9.956  20.103  0.00  0.00    +0.000 C 
ATOM     16  C   UNL     1       0.951  11.467  20.210  0.00  0.00    +0.000 C 
ATOM     17  C   UNL     1       0.573  12.210  18.930  0.00  0.00    +0.000 C 
ATOM     18  C   UNL     1      -0.868  11.928  18.506  0.00  0.00    +0.000 C 
ATOM     19  C   UNL     1      -1.248  10.448  18.518  0.00  0.00    +0.000 C 
ATOM     20  C   UNL     1      -0.806   9.745  19.804  0.00  0.00    +0.000 C 
ENDBRANCH  10  15
BRANCH   1  24
ATOM     21  C   UNL     1       1.528   2.433  21.864  0.00  0.00    +0.000 C 
ATOM     22  C   UNL     1       1.796   2.989  20.495  0.00  0.00    +0.000 C 
ATOM     23  O   UNL     1       1.041   2.711  19.567  0.00  0.00    +0.000 OA
ATOM     24  N   UNL     1       2.923   3.789  20.405  0.00  0.00    +0.000 N 
ATOM     25  H   UNL     1       3.586   3.771  21.182  0.00  0.00    +0.000 HD
ENDBRANCH   1  24
TORSDOF 2
ENDMDL
