MODEL 1
REMARK VINA RESULT:      -7.5      0.000      0.000
REMARK  Name = 
REMARK  3 active torsions:
REMARK  status: ('A' for Active; 'I' for Inactive)
REMARK    1  A    between atoms: C_1  and  C_2
REMARK    2  A    between atoms: C_10  and  C_11
REMARK    3  A    between atoms: C_11  and  C_13
REMARK                            x       y       z     vdW  Elec       q    Type
REMARK                         _______ _______ _______ _____ _____    ______ ____
ROOT
ATOM      1  C   UNL     1       7.012   7.591  17.347  0.00  0.00    +0.000 C 
ATOM      2  C   UNL     1       5.877   6.634  17.332  0.00  0.00    +0.000 A 
ATOM      3  N   UNL     1       4.673   6.998  17.881  0.00  0.00    +0.000 NA
ATOM      4  C   UNL     1       3.892   5.954  17.730  0.00  0.00    +0.000 A 
ATOM      5  C   UNL     1       2.535   5.758  18.113  0.00  0.00    +0.000 A 
ATOM      6  C   UNL     1       1.937   4.573  17.884  0.00  0.00    +0.000 A 
ATOM      7  C   UNL     1       2.660   3.474  17.271  0.00  0.00    +0.000 A 
ATOM      8  C   UNL     1       3.943   3.653  16.910  0.00  0.00    +0.000 A 
ATOM      9  N   UNL     1       4.551   4.898  17.107  0.00  0.00    +0.000 N 
ATOM     10  C   UNL     1       5.819   5.357  16.783  0.00  0.00    +0.000 A 
ENDROOT
BRANCH  10  11
ATOM     11  C   UNL     1       6.890   4.674  16.091  0.00  0.00    +0.000 C 
ATOM     12  O   UNL     1       7.851   4.194  16.693  0.00  0.00    +0.000 OA
BRANCH  11  13
ATOM     13  C   UNL     1       6.917   4.564  14.604  0.00  0.00    +0.000 A 
ATOM     14  C   UNL     1       6.096   3.605  13.992  0.00  0.00    +0.000 A 
ATOM     15  C   UNL     1       6.113   3.441  12.608  0.00  0.00    +0.000 A 
ATOM     16  C   UNL     1       6.950   4.233  11.824  0.00  0.00    +0.000 A 
ATOM     17  C   UNL     1       7.777   5.182  12.424  0.00  0.00    +0.000 A 
ATOM     18  C   UNL     1       7.776   5.338  13.812  0.00  0.00    +0.000 A 
ENDBRANCH  11  13
ENDBRANCH  10  11
TORSDOF 2
ENDMDL
MODEL 2
REMARK VINA RESULT:      -7.5      0.088      1.143
REMARK  Name = 
REMARK  3 active torsions:
REMARK  status: ('A' for Active; 'I' for Inactive)
REMARK    1  A    between atoms: C_1  and  C_2
REMARK    2  A    between atoms: C_10  and  C_11
REMARK    3  A    between atoms: C_11  and  C_13
REMARK                            x       y       z     vdW  Elec       q    Type
REMARK                         _______ _______ _______ _____ _____    ______ ____
ROOT
ATOM      1  C   UNL     1       7.116   7.603  17.300  0.00  0.00    +0.000 C 
ATOM      2  C   UNL     1       5.961   6.670  17.306  0.00  0.00    +0.000 A 
ATOM      3  N   UNL     1       4.766   7.070  17.847  0.00  0.00    +0.000 NA
ATOM      4  C   UNL     1       3.963   6.040  17.717  0.00  0.00    +0.000 A 
ATOM      5  C   UNL     1       2.602   5.880  18.105  0.00  0.00    +0.000 A 
ATOM      6  C   UNL     1       1.979   4.704  17.900  0.00  0.00    +0.000 A 
ATOM      7  C   UNL     1       2.678   3.578  17.309  0.00  0.00    +0.000 A 
ATOM      8  C   UNL     1       3.965   3.722  16.945  0.00  0.00    +0.000 A 
ATOM      9  N   UNL     1       4.599   4.957  17.116  0.00  0.00    +0.000 N 
ATOM     10  C   UNL     1       5.877   5.383  16.782  0.00  0.00    +0.000 A 
ENDROOT
BRANCH  10  11
ATOM     11  C   UNL     1       6.933   4.663  16.105  0.00  0.00    +0.000 C 
ATOM     12  O   UNL     1       7.899   4.203  16.713  0.00  0.00    +0.000 OA
BRANCH  11  13
ATOM     13  C   UNL     1       6.936   4.489  14.624  0.00  0.00    +0.000 A 
ATOM     14  C   UNL     1       7.767   5.319  13.857  0.00  0.00    +0.000 A 
ATOM     15  C   UNL     1       7.778   5.217  12.467  0.00  0.00    +0.000 A 
ATOM     16  C   UNL     1       6.959   4.285  11.832  0.00  0.00    +0.000 A 
ATOM     17  C   UNL     1       6.121   3.462  12.585  0.00  0.00    +0.000 A 
ATOM     18  C   UNL     1       6.095   3.573  13.977  0.00  0.00    +0.000 A 
ENDBRANCH  11  13
ENDBRANCH  10  11
TORSDOF 2
ENDMDL
MODEL 3
REMARK VINA RESULT:      -7.4      2.213      3.109
REMARK  Name = 
REMARK  3 active torsions:
REMARK  status: ('A' for Active; 'I' for Inactive)
REMARK    1  A    between atoms: C_1  and  C_2
REMARK    2  A    between atoms: C_10  and  C_11
REMARK    3  A    between atoms: C_11  and  C_13
REMARK                            x       y       z     vdW  Elec       q    Type
REMARK                         _______ _______ _______ _____ _____    ______ ____
ROOT
ATOM      1  C   UNL     1       3.863   7.185  17.653  0.00  0.00    +0.000 C 
ATOM      2  C   UNL     1       3.460   6.026  18.489  0.00  0.00    +0.000 A 
ATOM      3  N   UNL     1       2.204   5.989  19.040  0.00  0.00    +0.000 NA
ATOM      4  C   UNL     1       2.156   4.868  19.721  0.00  0.00    +0.000 A 
ATOM      5  C   UNL     1       1.103   4.310  20.500  0.00  0.00    +0.000 A 
ATOM      6  C   UNL     1       1.293   3.146  21.151  0.00  0.00    +0.000 A 
ATOM      7  C   UNL     1       2.567   2.454  21.094  0.00  0.00    +0.000 A 
ATOM      8  C   UNL     1       3.567   2.979  20.363  0.00  0.00    +0.000 A 
ATOM      9  N   UNL     1       3.356   4.165  19.650  0.00  0.00    +0.000 N 
ATOM     10  C   UNL     1       4.183   4.877  18.794  0.00  0.00    +0.000 A 
ENDROOT
BRANCH  10  11
ATOM     11  C   UNL     1       5.523   4.565  18.348  0.00  0.00    +0.000 C 
ATOM     12  O   UNL     1       6.446   4.380  19.141  0.00  0.00    +0.000 OA
BRANCH  11  13
ATOM     13  C   UNL     1       5.871   4.504  16.898  0.00  0.00    +0.000 A 
ATOM     14  C   UNL     1       7.117   5.003  16.491  0.00  0.00    +0.000 A 
ATOM     15  C   UNL     1       7.473   5.000  15.144  0.00  0.00    +0.000 A 
ATOM     16  C   UNL     1       6.586   4.500  14.192  0.00  0.00    +0.000 A 
ATOM     17  C   UNL     1       5.340   4.012  14.585  0.00  0.00    +0.000 A 
ATOM     18  C   UNL     1       4.974   4.028  15.933  0.00  0.00    +0.000 A 
ENDBRANCH  11  13
ENDBRANCH  10  11
TORSDOF 2
ENDMDL
MODEL 4
REMARK VINA RESULT:      -7.4      2.596      6.140
REMARK  Name = 
REMARK  3 active torsions:
REMARK  status: ('A' for Active; 'I' for Inactive)
REMARK    1  A    between atoms: C_1  and  C_2
REMARK    2  A    between atoms: C_10  and  C_11
REMARK    3  A    between atoms: C_11  and  C_13
REMARK                            x       y       z     vdW  Elec       q    Type
REMARK                         _______ _______ _______ _____ _____    ______ ____
ROOT
ATOM      1  C   UNL     1       2.489   7.626  18.519  0.00  0.00    +0.000 C 
ATOM      2  C   UNL     1       3.436   6.715  17.829  0.00  0.00    +0.000 A 
ATOM      3  N   UNL     1       4.631   7.202  17.362  0.00  0.00    +0.000 NA
ATOM      4  C   UNL     1       5.229   6.177  16.801  0.00  0.00    +0.000 A 
ATOM      5  C   UNL     1       6.491   6.094  16.147  0.00  0.00    +0.000 A 
ATOM      6  C   UNL     1       6.892   4.927  15.606  0.00  0.00    +0.000 A 
ATOM      7  C   UNL     1       6.047   3.748  15.655  0.00  0.00    +0.000 A 
ATOM      8  C   UNL     1       4.852   3.822  16.268  0.00  0.00    +0.000 A 
ATOM      9  N   UNL     1       4.454   5.022  16.869  0.00  0.00    +0.000 N 
ATOM     10  C   UNL     1       3.320   5.347  17.598  0.00  0.00    +0.000 A 
ENDROOT
BRANCH  10  11
ATOM     11  C   UNL     1       2.213   4.504  17.992  0.00  0.00    +0.000 C 
ATOM     12  O   UNL     1       1.223   4.353  17.275  0.00  0.00    +0.000 OA
BRANCH  11  13
ATOM     13  C   UNL     1       2.185   3.816  19.315  0.00  0.00    +0.000 A 
ATOM     14  C   UNL     1       3.371   3.239  19.791  0.00  0.00    +0.000 A 
ATOM     15  C   UNL     1       3.386   2.554  21.005  0.00  0.00    +0.000 A 
ATOM     16  C   UNL     1       2.215   2.441  21.754  0.00  0.00    +0.000 A 
ATOM     17  C   UNL     1       1.028   3.003  21.284  0.00  0.00    +0.000 A 
ATOM     18  C   UNL     1       1.006   3.675  20.059  0.00  0.00    +0.000 A 
ENDBRANCH  11  13
ENDBRANCH  10  11
TORSDOF 2
ENDMDL
MODEL 5
REMARK VINA RESULT:      -7.4      2.217      2.943
REMARK  Name = 
REMARK  3 active torsions:
REMARK  status: ('A' for Active; 'I' for Inactive)
REMARK    1  A    between atoms: C_1  and  C_2
REMARK    2  A    between atoms: C_10  and  C_11
REMARK    3  A    between atoms: C_11  and  C_13
REMARK                            x       y       z     vdW  Elec       q    Type
REMARK                         _______ _______ _______ _____ _____    ______ ____
ROOT
ATOM      1  C   UNL     1       3.792   7.221  17.666  0.00  0.00    +0.000 C 
ATOM      2  C   UNL     1       3.406   6.052  18.496  0.00  0.00    +0.000 A 
ATOM      3  N   UNL     1       2.144   5.984  19.031  0.00  0.00    +0.000 NA
ATOM      4  C   UNL     1       2.114   4.862  19.711  0.00  0.00    +0.000 A 
ATOM      5  C   UNL     1       1.065   4.278  20.476  0.00  0.00    +0.000 A 
ATOM      6  C   UNL     1       1.275   3.118  21.128  0.00  0.00    +0.000 A 
ATOM      7  C   UNL     1       2.566   2.457  21.087  0.00  0.00    +0.000 A 
ATOM      8  C   UNL     1       3.562   3.006  20.369  0.00  0.00    +0.000 A 
ATOM      9  N   UNL     1       3.332   4.188  19.655  0.00  0.00    +0.000 N 
ATOM     10  C   UNL     1       4.152   4.920  18.810  0.00  0.00    +0.000 A 
ENDROOT
BRANCH  10  11
ATOM     11  C   UNL     1       5.505   4.641  18.380  0.00  0.00    +0.000 C 
ATOM     12  O   UNL     1       6.420   4.469  19.185  0.00  0.00    +0.000 OA
BRANCH  11  13
ATOM     13  C   UNL     1       5.875   4.602  16.935  0.00  0.00    +0.000 A 
ATOM     14  C   UNL     1       4.968   4.030  16.031  0.00  0.00    +0.000 A 
ATOM     15  C   UNL     1       5.285   3.939  14.676  0.00  0.00    +0.000 A 
ATOM     16  C   UNL     1       6.510   4.418  14.215  0.00  0.00    +0.000 A 
ATOM     17  C   UNL     1       7.423   4.978  15.109  0.00  0.00    +0.000 A 
ATOM     18  C   UNL     1       7.116   5.056  16.469  0.00  0.00    +0.000 A 
ENDBRANCH  11  13
ENDBRANCH  10  11
TORSDOF 2
ENDMDL
MODEL 6
REMARK VINA RESULT:      -7.3      1.763      2.292
REMARK  Name = 
REMARK  3 active torsions:
REMARK  status: ('A' for Active; 'I' for Inactive)
REMARK    1  A    between atoms: C_1  and  C_2
REMARK    2  A    between atoms: C_10  and  C_11
REMARK    3  A    between atoms: C_11  and  C_13
REMARK                            x       y       z     vdW  Elec       q    Type
REMARK                         _______ _______ _______ _____ _____    ______ ____
ROOT
ATOM      1  C   UNL     1       7.595   5.618  18.187  0.00  0.00    +0.000 C 
ATOM      2  C   UNL     1       6.299   4.895  18.131  0.00  0.00    +0.000 A 
ATOM      3  N   UNL     1       5.893   4.143  19.204  0.00  0.00    +0.000 NA
ATOM      4  C   UNL     1       4.739   3.628  18.852  0.00  0.00    +0.000 A 
ATOM      5  C   UNL     1       3.861   2.763  19.565  0.00  0.00    +0.000 A 
ATOM      6  C   UNL     1       2.728   2.326  18.982  0.00  0.00    +0.000 A 
ATOM      7  C   UNL     1       2.392   2.702  17.621  0.00  0.00    +0.000 A 
ATOM      8  C   UNL     1       3.219   3.516  16.941  0.00  0.00    +0.000 A 
ATOM      9  N   UNL     1       4.373   4.006  17.562  0.00  0.00    +0.000 N 
ATOM     10  C   UNL     1       5.348   4.886  17.115  0.00  0.00    +0.000 A 
ENDROOT
BRANCH  10  11
ATOM     11  C   UNL     1       5.430   5.600  15.860  0.00  0.00    +0.000 C 
ATOM     12  O   UNL     1       5.034   6.760  15.745  0.00  0.00    +0.000 OA
BRANCH  11  13
ATOM     13  C   UNL     1       5.948   4.949  14.621  0.00  0.00    +0.000 A 
ATOM     14  C   UNL     1       7.211   5.331  14.147  0.00  0.00    +0.000 A 
ATOM     15  C   UNL     1       7.722   4.777  12.974  0.00  0.00    +0.000 A 
ATOM     16  C   UNL     1       6.975   3.837  12.266  0.00  0.00    +0.000 A 
ATOM     17  C   UNL     1       5.714   3.458  12.725  0.00  0.00    +0.000 A 
ATOM     18  C   UNL     1       5.191   4.024  13.890  0.00  0.00    +0.000 A 
ENDBRANCH  11  13
ENDBRANCH  10  11
TORSDOF 2
ENDMDL
MODEL 7
REMARK VINA RESULT:      -7.3      2.932      4.002
REMARK  Name = 
REMARK  3 active torsions:
REMARK  status: ('A' for Active; 'I' for Inactive)
REMARK    1  A    between atoms: C_1  and  C_2
REMARK    2  A    between atoms: C_10  and  C_11
REMARK    3  A    between atoms: C_11  and  C_13
REMARK                            x       y       z     vdW  Elec       q    Type
REMARK                         _______ _______ _______ _____ _____    ______ ____
ROOT
ATOM      1  C   UNL     1       2.966   7.632  17.892  0.00  0.00    +0.000 C 
ATOM      2  C   UNL     1       2.873   6.159  18.055  0.00  0.00    +0.000 A 
ATOM      3  N   UNL     1       1.792   5.613  18.700  0.00  0.00    +0.000 NA
ATOM      4  C   UNL     1       2.003   4.318  18.696  0.00  0.00    +0.000 A 
ATOM      5  C   UNL     1       1.216   3.257  19.229  0.00  0.00    +0.000 A 
ATOM      6  C   UNL     1       1.653   1.987  19.138  0.00  0.00    +0.000 A 
ATOM      7  C   UNL     1       2.931   1.674  18.526  0.00  0.00    +0.000 A 
ATOM      8  C   UNL     1       3.680   2.673  18.025  0.00  0.00    +0.000 A 
ATOM      9  N   UNL     1       3.206   3.989  18.078  0.00  0.00    +0.000 N 
ATOM     10  C   UNL     1       3.743   5.174  17.597  0.00  0.00    +0.000 A 
ENDROOT
BRANCH  10  11
ATOM     11  C   UNL     1       4.959   5.388  16.845  0.00  0.00    +0.000 C 
ATOM     12  O   UNL     1       5.081   5.003  15.682  0.00  0.00    +0.000 OA
BRANCH  11  13
ATOM     13  C   UNL     1       6.154   6.039  17.457  0.00  0.00    +0.000 A 
ATOM     14  C   UNL     1       6.806   5.380  18.509  0.00  0.00    +0.000 A 
ATOM     15  C   UNL     1       7.906   5.965  19.136  0.00  0.00    +0.000 A 
ATOM     16  C   UNL     1       8.361   7.214  18.716  0.00  0.00    +0.000 A 
ATOM     17  C   UNL     1       7.713   7.882  17.678  0.00  0.00    +0.000 A 
ATOM     18  C   UNL     1       6.601   7.306  17.059  0.00  0.00    +0.000 A 
ENDBRANCH  11  13
ENDBRANCH  10  11
TORSDOF 2
ENDMDL
MODEL 8
REMARK VINA RESULT:      -7.3      3.317      4.411
REMARK  Name = 
REMARK  3 active torsions:
REMARK  status: ('A' for Active; 'I' for Inactive)
REMARK    1  A    between atoms: C_1  and  C_2
REMARK    2  A    between atoms: C_10  and  C_11
REMARK    3  A    between atoms: C_11  and  C_13
REMARK                            x       y       z     vdW  Elec       q    Type
REMARK                         _______ _______ _______ _____ _____    ______ ____
ROOT
ATOM      1  C   UNL     1       2.442   7.459  18.179  0.00  0.00    +0.000 C 
ATOM      2  C   UNL     1       2.610   6.151  18.860  0.00  0.00    +0.000 A 
ATOM      3  N   UNL     1       1.732   5.780  19.847  0.00  0.00    +0.000 NA
ATOM      4  C   UNL     1       2.144   4.604  20.256  0.00  0.00    +0.000 A 
ATOM      5  C   UNL     1       1.620   3.745  21.263  0.00  0.00    +0.000 A 
ATOM      6  C   UNL     1       2.238   2.580  21.541  0.00  0.00    +0.000 A 
ATOM      7  C   UNL     1       3.450   2.189  20.845  0.00  0.00    +0.000 A 
ATOM      8  C   UNL     1       3.952   2.999  19.896  0.00  0.00    +0.000 A 
ATOM      9  N   UNL     1       3.285   4.187  19.575  0.00  0.00    +0.000 N 
ATOM     10  C   UNL     1       3.553   5.156  18.619  0.00  0.00    +0.000 A 
ENDROOT
BRANCH  10  11
ATOM     11  C   UNL     1       4.601   5.193  17.623  0.00  0.00    +0.000 C 
ATOM     12  O   UNL     1       4.502   4.593  16.553  0.00  0.00    +0.000 OA
BRANCH  11  13
ATOM     13  C   UNL     1       5.883   5.917  17.863  0.00  0.00    +0.000 A 
ATOM     14  C   UNL     1       6.735   5.446  18.873  0.00  0.00    +0.000 A 
ATOM     15  C   UNL     1       7.927   6.109  19.157  0.00  0.00    +0.000 A 
ATOM     16  C   UNL     1       8.278   7.249  18.436  0.00  0.00    +0.000 A 
ATOM     17  C   UNL     1       7.433   7.731  17.437  0.00  0.00    +0.000 A 
ATOM     18  C   UNL     1       6.229   7.079  17.160  0.00  0.00    +0.000 A 
ENDBRANCH  11  13
ENDBRANCH  10  11
TORSDOF 2
ENDMDL
MODEL 9
REMARK VINA RESULT:      -7.3      2.948      4.107
REMARK  Name = 
REMARK  3 active torsions:
REMARK  status: ('A' for Active; 'I' for Inactive)
REMARK    1  A    between atoms: C_1  and  C_2
REMARK    2  A    between atoms: C_10  and  C_11
REMARK    3  A    between atoms: C_11  and  C_13
REMARK                            x       y       z     vdW  Elec       q    Type
REMARK                         _______ _______ _______ _____ _____    ______ ____
ROOT
ATOM      1  C   UNL     1       2.922   7.609  17.898  0.00  0.00    +0.000 C 
ATOM      2  C   UNL     1       2.842   6.134  18.043  0.00  0.00    +0.000 A 
ATOM      3  N   UNL     1       1.747   5.568  18.647  0.00  0.00    +0.000 NA
ATOM      4  C   UNL     1       1.973   4.276  18.636  0.00  0.00    +0.000 A 
ATOM      5  C   UNL     1       1.183   3.200  19.132  0.00  0.00    +0.000 A 
ATOM      6  C   UNL     1       1.638   1.935  19.042  0.00  0.00    +0.000 A 
ATOM      7  C   UNL     1       2.938   1.645  18.466  0.00  0.00    +0.000 A 
ATOM      8  C   UNL     1       3.691   2.658  18.000  0.00  0.00    +0.000 A 
ATOM      9  N   UNL     1       3.199   3.967  18.053  0.00  0.00    +0.000 N 
ATOM     10  C   UNL     1       3.737   5.164  17.602  0.00  0.00    +0.000 A 
ENDROOT
BRANCH  10  11
ATOM     11  C   UNL     1       4.973   5.401  16.890  0.00  0.00    +0.000 C 
ATOM     12  O   UNL     1       5.129   5.047  15.721  0.00  0.00    +0.000 OA
BRANCH  11  13
ATOM     13  C   UNL     1       6.148   6.037  17.553  0.00  0.00    +0.000 A 
ATOM     14  C   UNL     1       6.586   7.283  17.080  0.00  0.00    +0.000 A 
ATOM     15  C   UNL     1       7.701   7.901  17.644  0.00  0.00    +0.000 A 
ATOM     16  C   UNL     1       8.388   7.278  18.685  0.00  0.00    +0.000 A 
ATOM     17  C   UNL     1       7.967   6.035  19.155  0.00  0.00    +0.000 A 
ATOM     18  C   UNL     1       6.860   5.405  18.581  0.00  0.00    +0.000 A 
ENDBRANCH  11  13
ENDBRANCH  10  11
TORSDOF 2
ENDMDL
