MODEL 1
REMARK VINA RESULT:      -6.1      0.000      0.000
REMARK  Name = 
REMARK  6 active torsions:
REMARK  status: ('A' for Active; 'I' for Inactive)
REMARK    1  A    between atoms: C_1  and  C_2
REMARK    2  A    between atoms: C_2  and  O_3
REMARK    3  A    between atoms: O_3  and  C_4
REMARK    4  A    between atoms: C_4  and  C_6
REMARK    5  A    between atoms: C_7  and  C_8
REMARK    6  A    between atoms: C_15  and  N_16
REMARK                            x       y       z     vdW  Elec       q    Type
REMARK                         _______ _______ _______ _____ _____    ______ ____
ROOT
ATOM      1  C   UNL     1       5.899   5.752  16.963  0.00  0.00    +0.000 A 
ATOM      2  C   UNL     1       5.288   5.035  18.062  0.00  0.00    +0.000 A 
ATOM      3  C   UNL     1       6.048   5.108  19.213  0.00  0.00    +0.000 A 
ATOM      4  S   UNL     1       7.476   6.007  18.992  0.00  0.00    +0.000 S 
ATOM      5  C   UNL     1       7.107   6.316  17.349  0.00  0.00    +0.000 A 
ENDROOT
BRANCH   2   6
ATOM      6  C   UNL     1       4.026   4.269  17.983  0.00  0.00    +0.000 A 
ATOM      7  C   UNL     1       2.745   4.904  17.911  0.00  0.00    +0.000 A 
ATOM      8  C   UNL     1       1.709   3.997  17.858  0.00  0.00    +0.000 A 
ATOM      9  S   UNL     1       2.267   2.383  17.899  0.00  0.00    +0.000 S 
ATOM     10  C   UNL     1       3.897   2.896  18.006  0.00  0.00    +0.000 A 
ENDBRANCH   2   6
BRANCH   5  11
ATOM     11  N   UNL     1       7.968   7.060  16.614  0.00  0.00    +0.000 N 
ATOM     12  H   UNL     1       7.884   7.042  15.600  0.00  0.00    +0.000 HD
ATOM     13  H   UNL     1       8.310   7.948  16.980  0.00  0.00    +0.000 HD
ENDBRANCH   5  11
BRANCH   1  14
ATOM     14  C   UNL     1       5.354   5.879  15.615  0.00  0.00    +0.000 C 
ATOM     15  O   UNL     1       4.979   6.938  15.129  0.00  0.00    +0.000 OA
BRANCH  14  16
ATOM     16  O   UNL     1       5.188   4.662  15.009  0.00  0.00    +0.000 OA
BRANCH  16  18
ATOM     17  C   UNL     1       6.072   3.652  12.976  0.00  0.00    +0.000 C 
ATOM     18  C   UNL     1       6.360   4.116  14.389  0.00  0.00    +0.000 C 
ENDBRANCH  16  18
ENDBRANCH  14  16
ENDBRANCH   1  14
TORSDOF 5
ENDMDL
MODEL 2
REMARK VINA RESULT:      -6.0      0.528      1.007
REMARK  Name = 
REMARK  6 active torsions:
REMARK  status: ('A' for Active; 'I' for Inactive)
REMARK    1  A    between atoms: C_1  and  C_2
REMARK    2  A    between atoms: C_2  and  O_3
REMARK    3  A    between atoms: O_3  and  C_4
REMARK    4  A    between atoms: C_4  and  C_6
REMARK    5  A    between atoms: C_7  and  C_8
REMARK    6  A    between atoms: C_15  and  N_16
REMARK                            x       y       z     vdW  Elec       q    Type
REMARK                         _______ _______ _______ _____ _____    ______ ____
ROOT
ATOM      1  C   UNL     1       5.881   5.767  16.981  0.00  0.00    +0.000 A 
ATOM      2  C   UNL     1       5.270   5.057  18.083  0.00  0.00    +0.000 A 
ATOM      3  C   UNL     1       6.051   5.099  19.221  0.00  0.00    +0.000 A 
ATOM      4  S   UNL     1       7.498   5.962  18.984  0.00  0.00    +0.000 S 
ATOM      5  C   UNL     1       7.109   6.296  17.350  0.00  0.00    +0.000 A 
ENDROOT
BRANCH   2   6
ATOM      6  C   UNL     1       3.987   4.324  18.019  0.00  0.00    +0.000 A 
ATOM      7  C   UNL     1       3.916   2.922  17.741  0.00  0.00    +0.000 A 
ATOM      8  C   UNL     1       2.620   2.454  17.716  0.00  0.00    +0.000 A 
ATOM      9  S   UNL     1       1.485   3.695  18.020  0.00  0.00    +0.000 S 
ATOM     10  C   UNL     1       2.726   4.864  18.169  0.00  0.00    +0.000 A 
ENDBRANCH   2   6
BRANCH   5  11
ATOM     11  N   UNL     1       7.977   7.024  16.608  0.00  0.00    +0.000 N 
ATOM     12  H   UNL     1       7.698   7.304  15.670  0.00  0.00    +0.000 HD
ATOM     13  H   UNL     1       8.601   7.689  17.064  0.00  0.00    +0.000 HD
ENDBRANCH   5  11
BRANCH   1  14
ATOM     14  C   UNL     1       5.316   5.922  15.644  0.00  0.00    +0.000 C 
ATOM     15  O   UNL     1       4.944   6.993  15.180  0.00  0.00    +0.000 OA
BRANCH  14  16
ATOM     16  O   UNL     1       5.128   4.717  15.021  0.00  0.00    +0.000 OA
BRANCH  16  18
ATOM     17  C   UNL     1       6.125   3.658  13.066  0.00  0.00    +0.000 C 
ATOM     18  C   UNL     1       6.313   4.097  14.504  0.00  0.00    +0.000 C 
ENDBRANCH  16  18
ENDBRANCH  14  16
ENDBRANCH   1  14
TORSDOF 5
ENDMDL
MODEL 3
REMARK VINA RESULT:      -5.9      3.582      5.087
REMARK  Name = 
REMARK  6 active torsions:
REMARK  status: ('A' for Active; 'I' for Inactive)
REMARK    1  A    between atoms: C_1  and  C_2
REMARK    2  A    between atoms: C_2  and  O_3
REMARK    3  A    between atoms: O_3  and  C_4
REMARK    4  A    between atoms: C_4  and  C_6
REMARK    5  A    between atoms: C_7  and  C_8
REMARK    6  A    between atoms: C_15  and  N_16
REMARK                            x       y       z     vdW  Elec       q    Type
REMARK                         _______ _______ _______ _____ _____    ______ ____
ROOT
ATOM      1  C   UNL     1       3.301   4.526  17.954  0.00  0.00    +0.000 A 
ATOM      2  C   UNL     1       3.744   5.892  18.137  0.00  0.00    +0.000 A 
ATOM      3  C   UNL     1       5.113   6.013  17.997  0.00  0.00    +0.000 A 
ATOM      4  S   UNL     1       5.866   4.525  17.662  0.00  0.00    +0.000 S 
ATOM      5  C   UNL     1       4.375   3.685  17.699  0.00  0.00    +0.000 A 
ENDROOT
BRANCH   2   6
ATOM      6  C   UNL     1       2.869   7.033  18.478  0.00  0.00    +0.000 A 
ATOM      7  C   UNL     1       2.575   8.081  17.549  0.00  0.00    +0.000 A 
ATOM      8  C   UNL     1       1.751   9.046  18.085  0.00  0.00    +0.000 A 
ATOM      9  S   UNL     1       1.332   8.703  19.706  0.00  0.00    +0.000 S 
ATOM     10  C   UNL     1       2.268   7.269  19.697  0.00  0.00    +0.000 A 
ENDBRANCH   2   6
BRANCH   5  11
ATOM     11  N   UNL     1       4.370   2.350  17.471  0.00  0.00    +0.000 N 
ATOM     12  H   UNL     1       4.066   2.013  16.560  0.00  0.00    +0.000 HD
ATOM     13  H   UNL     1       5.074   1.758  17.912  0.00  0.00    +0.000 HD
ENDBRANCH   5  11
BRANCH   1  14
ATOM     14  C   UNL     1       1.921   4.057  18.027  0.00  0.00    +0.000 C 
ATOM     15  O   UNL     1       1.019   4.478  17.313  0.00  0.00    +0.000 OA
BRANCH  14  16
ATOM     16  O   UNL     1       1.725   3.192  19.070  0.00  0.00    +0.000 OA
BRANCH  16  18
ATOM     17  C   UNL     1       2.035   3.700  21.433  0.00  0.00    +0.000 C 
ATOM     18  C   UNL     1       1.109   3.759  20.235  0.00  0.00    +0.000 C 
ENDBRANCH  16  18
ENDBRANCH  14  16
ENDBRANCH   1  14
TORSDOF 5
ENDMDL
MODEL 4
REMARK VINA RESULT:      -5.9      3.695      5.257
REMARK  Name = 
REMARK  6 active torsions:
REMARK  status: ('A' for Active; 'I' for Inactive)
REMARK    1  A    between atoms: C_1  and  C_2
REMARK    2  A    between atoms: C_2  and  O_3
REMARK    3  A    between atoms: O_3  and  C_4
REMARK    4  A    between atoms: C_4  and  C_6
REMARK    5  A    between atoms: C_7  and  C_8
REMARK    6  A    between atoms: C_15  and  N_16
REMARK                            x       y       z     vdW  Elec       q    Type
REMARK                         _______ _______ _______ _____ _____    ______ ____
ROOT
ATOM      1  C   UNL     1       3.084   4.348  18.346  0.00  0.00    +0.000 A 
ATOM      2  C   UNL     1       3.625   5.670  18.586  0.00  0.00    +0.000 A 
ATOM      3  C   UNL     1       4.995   5.643  18.755  0.00  0.00    +0.000 A 
ATOM      4  S   UNL     1       5.634   4.071  18.643  0.00  0.00    +0.000 S 
ATOM      5  C   UNL     1       4.088   3.390  18.366  0.00  0.00    +0.000 A 
ENDROOT
BRANCH   2   6
ATOM      6  C   UNL     1       2.828   6.911  18.688  0.00  0.00    +0.000 A 
ATOM      7  C   UNL     1       2.136   7.283  19.885  0.00  0.00    +0.000 A 
ATOM      8  C   UNL     1       1.448   8.469  19.749  0.00  0.00    +0.000 A 
ATOM      9  S   UNL     1       1.624   9.137  18.186  0.00  0.00    +0.000 S 
ATOM     10  C   UNL     1       2.608   7.829  17.683  0.00  0.00    +0.000 A 
ENDBRANCH   2   6
BRANCH   5  11
ATOM     11  N   UNL     1       3.986   2.052  18.180  0.00  0.00    +0.000 N 
ATOM     12  H   UNL     1       3.128   1.681  17.779  0.00  0.00    +0.000 HD
ATOM     13  H   UNL     1       4.816   1.509  17.946  0.00  0.00    +0.000 HD
ENDBRANCH   5  11
BRANCH   1  14
ATOM     14  C   UNL     1       1.679   4.027  18.119  0.00  0.00    +0.000 C 
ATOM     15  O   UNL     1       1.001   4.523  17.228  0.00  0.00    +0.000 OA
BRANCH  14  16
ATOM     16  O   UNL     1       1.173   3.210  19.095  0.00  0.00    +0.000 OA
BRANCH  16  18
ATOM     17  C   UNL     1       1.659   3.057  21.477  0.00  0.00    +0.000 C 
ATOM     18  C   UNL     1       0.966   3.828  20.372  0.00  0.00    +0.000 C 
ENDBRANCH  16  18
ENDBRANCH  14  16
ENDBRANCH   1  14
TORSDOF 5
ENDMDL
MODEL 5
REMARK VINA RESULT:      -5.9      3.290      4.958
REMARK  Name = 
REMARK  6 active torsions:
REMARK  status: ('A' for Active; 'I' for Inactive)
REMARK    1  A    between atoms: C_1  and  C_2
REMARK    2  A    between atoms: C_2  and  O_3
REMARK    3  A    between atoms: O_3  and  C_4
REMARK    4  A    between atoms: C_4  and  C_6
REMARK    5  A    between atoms: C_7  and  C_8
REMARK    6  A    between atoms: C_15  and  N_16
REMARK                            x       y       z     vdW  Elec       q    Type
REMARK                         _______ _______ _______ _____ _____    ______ ____
ROOT
ATOM      1  C   UNL     1       3.737   5.173  19.024  0.00  0.00    +0.000 A 
ATOM      2  C   UNL     1       4.146   5.860  17.818  0.00  0.00    +0.000 A 
ATOM      3  C   UNL     1       3.512   7.079  17.677  0.00  0.00    +0.000 A 
ATOM      4  S   UNL     1       2.436   7.403  18.954  0.00  0.00    +0.000 S 
ATOM      5  C   UNL     1       2.795   5.916  19.723  0.00  0.00    +0.000 A 
ENDROOT
BRANCH   2   6
ATOM      6  C   UNL     1       5.092   5.327  16.814  0.00  0.00    +0.000 A 
ATOM      7  C   UNL     1       4.796   4.177  16.014  0.00  0.00    +0.000 A 
ATOM      8  C   UNL     1       5.825   3.852  15.157  0.00  0.00    +0.000 A 
ATOM      9  S   UNL     1       7.150   4.920  15.312  0.00  0.00    +0.000 S 
ATOM     10  C   UNL     1       6.355   5.809  16.540  0.00  0.00    +0.000 A 
ENDBRANCH   2   6
BRANCH   5  11
ATOM     11  N   UNL     1       2.177   5.618  20.891  0.00  0.00    +0.000 N 
ATOM     12  H   UNL     1       1.180   5.416  20.876  0.00  0.00    +0.000 HD
ATOM     13  H   UNL     1       2.685   5.117  21.619  0.00  0.00    +0.000 HD
ENDBRANCH   5  11
BRANCH   1  14
ATOM     14  C   UNL     1       4.220   3.872  19.475  0.00  0.00    +0.000 C 
ATOM     15  O   UNL     1       5.402   3.555  19.498  0.00  0.00    +0.000 OA
BRANCH  14  16
ATOM     16  O   UNL     1       3.194   3.005  19.742  0.00  0.00    +0.000 OA
BRANCH  16  18
ATOM     17  C   UNL     1       1.060   2.526  18.669  0.00  0.00    +0.000 C 
ATOM     18  C   UNL     1       2.569   2.416  18.594  0.00  0.00    +0.000 C 
ENDBRANCH  16  18
ENDBRANCH  14  16
ENDBRANCH   1  14
TORSDOF 5
ENDMDL
MODEL 6
REMARK VINA RESULT:      -5.8      3.433      4.961
REMARK  Name = 
REMARK  6 active torsions:
REMARK  status: ('A' for Active; 'I' for Inactive)
REMARK    1  A    between atoms: C_1  and  C_2
REMARK    2  A    between atoms: C_2  and  O_3
REMARK    3  A    between atoms: O_3  and  C_4
REMARK    4  A    between atoms: C_4  and  C_6
REMARK    5  A    between atoms: C_7  and  C_8
REMARK    6  A    between atoms: C_15  and  N_16
REMARK                            x       y       z     vdW  Elec       q    Type
REMARK                         _______ _______ _______ _____ _____    ______ ____
ROOT
ATOM      1  C   UNL     1       3.745   5.159  19.040  0.00  0.00    +0.000 A 
ATOM      2  C   UNL     1       4.150   5.840  17.828  0.00  0.00    +0.000 A 
ATOM      3  C   UNL     1       3.517   7.059  17.686  0.00  0.00    +0.000 A 
ATOM      4  S   UNL     1       2.447   7.390  18.967  0.00  0.00    +0.000 S 
ATOM      5  C   UNL     1       2.808   5.905  19.740  0.00  0.00    +0.000 A 
ENDROOT
BRANCH   2   6
ATOM      6  C   UNL     1       5.090   5.302  16.822  0.00  0.00    +0.000 A 
ATOM      7  C   UNL     1       6.429   5.789  16.684  0.00  0.00    +0.000 A 
ATOM      8  C   UNL     1       7.120   5.153  15.675  0.00  0.00    +0.000 A 
ATOM      9  S   UNL     1       6.164   3.976  14.887  0.00  0.00    +0.000 S 
ATOM     10  C   UNL     1       4.818   4.327  15.884  0.00  0.00    +0.000 A 
ENDBRANCH   2   6
BRANCH   5  11
ATOM     11  N   UNL     1       2.195   5.613  20.912  0.00  0.00    +0.000 N 
ATOM     12  H   UNL     1       1.235   5.276  20.888  0.00  0.00    +0.000 HD
ATOM     13  H   UNL     1       2.740   5.241  21.689  0.00  0.00    +0.000 HD
ENDBRANCH   5  11
BRANCH   1  14
ATOM     14  C   UNL     1       4.229   3.859  19.494  0.00  0.00    +0.000 C 
ATOM     15  O   UNL     1       5.406   3.521  19.465  0.00  0.00    +0.000 OA
BRANCH  14  16
ATOM     16  O   UNL     1       3.203   3.015  19.828  0.00  0.00    +0.000 OA
BRANCH  16  18
ATOM     17  C   UNL     1       1.115   2.514  18.677  0.00  0.00    +0.000 C 
ATOM     18  C   UNL     1       2.614   2.296  18.737  0.00  0.00    +0.000 C 
ENDBRANCH  16  18
ENDBRANCH  14  16
ENDBRANCH   1  14
TORSDOF 5
ENDMDL
MODEL 7
REMARK VINA RESULT:      -5.8      2.725      4.038
REMARK  Name = 
REMARK  6 active torsions:
REMARK  status: ('A' for Active; 'I' for Inactive)
REMARK    1  A    between atoms: C_1  and  C_2
REMARK    2  A    between atoms: C_2  and  O_3
REMARK    3  A    between atoms: O_3  and  C_4
REMARK    4  A    between atoms: C_4  and  C_6
REMARK    5  A    between atoms: C_7  and  C_8
REMARK    6  A    between atoms: C_15  and  N_16
REMARK                            x       y       z     vdW  Elec       q    Type
REMARK                         _______ _______ _______ _____ _____    ______ ____
ROOT
ATOM      1  C   UNL     1       4.445   5.460  17.078  0.00  0.00    +0.000 A 
ATOM      2  C   UNL     1       3.300   5.595  17.953  0.00  0.00    +0.000 A 
ATOM      3  C   UNL     1       2.805   4.368  18.348  0.00  0.00    +0.000 A 
ATOM      4  S   UNL     1       3.680   3.069  17.684  0.00  0.00    +0.000 S 
ATOM      5  C   UNL     1       4.740   4.124  16.849  0.00  0.00    +0.000 A 
ENDROOT
BRANCH   2   6
ATOM      6  C   UNL     1       2.682   6.877  18.356  0.00  0.00    +0.000 A 
ATOM      7  C   UNL     1       2.269   7.141  19.700  0.00  0.00    +0.000 A 
ATOM      8  C   UNL     1       1.708   8.391  19.844  0.00  0.00    +0.000 A 
ATOM      9  S   UNL     1       1.668   9.249  18.366  0.00  0.00    +0.000 S 
ATOM     10  C   UNL     1       2.387   7.941  17.529  0.00  0.00    +0.000 A 
ENDBRANCH   2   6
BRANCH   5  11
ATOM     11  N   UNL     1       5.732   3.591  16.096  0.00  0.00    +0.000 N 
ATOM     12  H   UNL     1       6.697   3.749  16.380  0.00  0.00    +0.000 HD
ATOM     13  H   UNL     1       5.586   2.701  15.622  0.00  0.00    +0.000 HD
ENDBRANCH   5  11
BRANCH   1  14
ATOM     14  C   UNL     1       5.207   6.557  16.489  0.00  0.00    +0.000 C 
ATOM     15  O   UNL     1       5.214   6.817  15.293  0.00  0.00    +0.000 OA
BRANCH  14  16
ATOM     16  O   UNL     1       6.014   7.175  17.407  0.00  0.00    +0.000 OA
BRANCH  16  18
ATOM     17  C   UNL     1       7.718   6.113  18.787  0.00  0.00    +0.000 C 
ATOM     18  C   UNL     1       7.373   6.719  17.441  0.00  0.00    +0.000 C 
ENDBRANCH  16  18
ENDBRANCH  14  16
ENDBRANCH   1  14
TORSDOF 5
ENDMDL
MODEL 8
REMARK VINA RESULT:      -5.7      1.091      1.424
REMARK  Name = 
REMARK  6 active torsions:
REMARK  status: ('A' for Active; 'I' for Inactive)
REMARK    1  A    between atoms: C_1  and  C_2
REMARK    2  A    between atoms: C_2  and  O_3
REMARK    3  A    between atoms: O_3  and  C_4
REMARK    4  A    between atoms: C_4  and  C_6
REMARK    5  A    between atoms: C_7  and  C_8
REMARK    6  A    between atoms: C_15  and  N_16
REMARK                            x       y       z     vdW  Elec       q    Type
REMARK                         _______ _______ _______ _____ _____    ______ ____
ROOT
ATOM      1  C   UNL     1       5.725   6.239  17.536  0.00  0.00    +0.000 A 
ATOM      2  C   UNL     1       5.354   5.188  18.460  0.00  0.00    +0.000 A 
ATOM      3  C   UNL     1       6.367   4.906  19.356  0.00  0.00    +0.000 A 
ATOM      4  S   UNL     1       7.746   5.868  19.099  0.00  0.00    +0.000 S 
ATOM      5  C   UNL     1       7.017   6.682  17.781  0.00  0.00    +0.000 A 
ENDROOT
BRANCH   2   6
ATOM      6  C   UNL     1       4.070   4.454  18.444  0.00  0.00    +0.000 A 
ATOM      7  C   UNL     1       3.860   3.294  17.632  0.00  0.00    +0.000 A 
ATOM      8  C   UNL     1       2.587   2.781  17.765  0.00  0.00    +0.000 A 
ATOM      9  S   UNL     1       1.641   3.691  18.859  0.00  0.00    +0.000 S 
ATOM     10  C   UNL     1       2.928   4.784  19.143  0.00  0.00    +0.000 A 
ENDBRANCH   2   6
BRANCH   5  11
ATOM     11  N   UNL     1       7.718   7.647  17.140  0.00  0.00    +0.000 N 
ATOM     12  H   UNL     1       8.609   7.943  17.533  0.00  0.00    +0.000 HD
ATOM     13  H   UNL     1       7.677   7.713  16.124  0.00  0.00    +0.000 HD
ENDBRANCH   5  11
BRANCH   1  14
ATOM     14  C   UNL     1       4.885   6.780  16.473  0.00  0.00    +0.000 C 
ATOM     15  O   UNL     1       3.792   7.299  16.664  0.00  0.00    +0.000 OA
BRANCH  14  16
ATOM     16  O   UNL     1       5.397   6.522  15.229  0.00  0.00    +0.000 OA
BRANCH  16  18
ATOM     17  C   UNL     1       6.868   4.773  14.385  0.00  0.00    +0.000 C 
ATOM     18  C   UNL     1       5.479   5.136  14.871  0.00  0.00    +0.000 C 
ENDBRANCH  16  18
ENDBRANCH  14  16
ENDBRANCH   1  14
TORSDOF 5
ENDMDL
MODEL 9
REMARK VINA RESULT:      -5.7      3.502      5.304
REMARK  Name = 
REMARK  6 active torsions:
REMARK  status: ('A' for Active; 'I' for Inactive)
REMARK    1  A    between atoms: C_1  and  C_2
REMARK    2  A    between atoms: C_2  and  O_3
REMARK    3  A    between atoms: O_3  and  C_4
REMARK    4  A    between atoms: C_4  and  C_6
REMARK    5  A    between atoms: C_7  and  C_8
REMARK    6  A    between atoms: C_15  and  N_16
REMARK                            x       y       z     vdW  Elec       q    Type
REMARK                         _______ _______ _______ _____ _____    ______ ____
ROOT
ATOM      1  C   UNL     1       3.623   5.502  18.928  0.00  0.00    +0.000 A 
ATOM      2  C   UNL     1       4.101   6.088  17.694  0.00  0.00    +0.000 A 
ATOM      3  C   UNL     1       3.523   7.318  17.448  0.00  0.00    +0.000 A 
ATOM      4  S   UNL     1       2.418   7.771  18.660  0.00  0.00    +0.000 S 
ATOM      5  C   UNL     1       2.689   6.327  19.540  0.00  0.00    +0.000 A 
ENDROOT
BRANCH   2   6
ATOM      6  C   UNL     1       5.058   5.452  16.763  0.00  0.00    +0.000 A 
ATOM      7  C   UNL     1       4.774   4.217  16.096  0.00  0.00    +0.000 A 
ATOM      8  C   UNL     1       5.812   3.804  15.288  0.00  0.00    +0.000 A 
ATOM      9  S   UNL     1       7.130   4.891  15.332  0.00  0.00    +0.000 S 
ATOM     10  C   UNL     1       6.320   5.908  16.446  0.00  0.00    +0.000 A 
ENDBRANCH   2   6
BRANCH   5  11
ATOM     11  N   UNL     1       2.020   6.134  20.702  0.00  0.00    +0.000 N 
ATOM     12  H   UNL     1       1.088   5.727  20.664  0.00  0.00    +0.000 HD
ATOM     13  H   UNL     1       2.535   5.899  21.550  0.00  0.00    +0.000 HD
ENDBRANCH   5  11
BRANCH   1  14
ATOM     14  C   UNL     1       4.036   4.217  19.482  0.00  0.00    +0.000 C 
ATOM     15  O   UNL     1       5.205   3.885  19.636  0.00  0.00    +0.000 OA
BRANCH  14  16
ATOM     16  O   UNL     1       2.973   3.377  19.686  0.00  0.00    +0.000 OA
BRANCH  16  18
ATOM     17  C   UNL     1       1.620   2.669  21.584  0.00  0.00    +0.000 C 
ATOM     18  C   UNL     1       2.985   2.656  20.925  0.00  0.00    +0.000 C 
ENDBRANCH  16  18
ENDBRANCH  14  16
ENDBRANCH   1  14
TORSDOF 5
ENDMDL
