MODEL 1
REMARK VINA RESULT:      -8.6      0.000      0.000
REMARK  Name = 
REMARK  6 active torsions:
REMARK  status: ('A' for Active; 'I' for Inactive)
REMARK    1  A    between atoms: C_1  and  C_2
REMARK    2  A    between atoms: C_5  and  C_6
REMARK    3  A    between atoms: C_6  and  C_7
REMARK    4  A    between atoms: C_6  and  N_11
REMARK    5  A    between atoms: C_7  and  C_8
REMARK    6  A    between atoms: C_8  and  O_10
REMARK                            x       y       z     vdW  Elec       q    Type
REMARK                         _______ _______ _______ _____ _____    ______ ____
ROOT
ATOM      1  C   UNL     1       4.854   4.898  17.902  0.00  0.00    +0.000 C 
ENDROOT
BRANCH   1   2
ATOM      2  N   UNL     1       4.306   3.564  18.212  0.00  0.00    +0.000 N 
ATOM      3  C   UNL     1       4.444   2.944  19.434  0.00  0.00    +0.000 C 
ATOM      4  O   UNL     1       5.442   2.762  20.107  0.00  0.00    +0.000 OA
ATOM      5  C   UNL     1       3.071   2.643  19.872  0.00  0.00    +0.000 A 
ATOM      6  C   UNL     1       2.596   2.573  21.173  0.00  0.00    +0.000 A 
ATOM      7  C   UNL     1       1.249   2.901  21.369  0.00  0.00    +0.000 A 
ATOM      8  C   UNL     1       0.422   3.273  20.288  0.00  0.00    +0.000 A 
ATOM      9  C   UNL     1       0.907   3.271  18.982  0.00  0.00    +0.000 A 
ATOM     10  C   UNL     1       2.237   2.937  18.812  0.00  0.00    +0.000 A 
ATOM     11  C   UNL     1       3.069   3.298  17.680  0.00  0.00    +0.000 C 
ATOM     12  O   UNL     1       2.693   3.400  16.530  0.00  0.00    +0.000 OA
ENDBRANCH   1   2
BRANCH   1  17
ATOM     13  C   UNL     1       1.089   9.218  19.179  0.00  0.00    +0.000 C 
ATOM     14  C   UNL     1       2.091   8.144  18.875  0.00  0.00    +0.000 A 
ATOM     15  C   UNL     1       2.343   7.131  19.799  0.00  0.00    +0.000 A 
ATOM     16  C   UNL     1       3.223   6.090  19.498  0.00  0.00    +0.000 A 
ATOM     17  C   UNL     1       3.905   6.046  18.279  0.00  0.00    +0.000 A 
ATOM     18  C   UNL     1       3.707   7.123  17.385  0.00  0.00    +0.000 A 
ATOM     19  C   UNL     1       2.781   8.136  17.662  0.00  0.00    +0.000 A 
ENDBRANCH   1  17
BRANCH   1  20
ATOM     20  C   UNL     1       6.313   4.973  18.366  0.00  0.00    +0.000 C 
BRANCH  20  21
ATOM     21  C   UNL     1       7.255   5.154  17.202  0.00  0.00    +0.000 C 
ATOM     22  O   UNL     1       7.296   6.134  16.476  0.00  0.00    +0.000 OA
BRANCH  21  23
ATOM     23  O   UNL     1       8.063   4.086  17.014  0.00  0.00    +0.000 OA
ATOM     24  H   UNL     1       7.779   3.278  17.483  0.00  0.00    +0.000 HD
ENDBRANCH  21  23
ENDBRANCH  20  21
ENDBRANCH   1  20
TORSDOF 5
ENDMDL
MODEL 2
REMARK VINA RESULT:      -8.4      0.912      1.044
REMARK  Name = 
REMARK  6 active torsions:
REMARK  status: ('A' for Active; 'I' for Inactive)
REMARK    1  A    between atoms: C_1  and  C_2
REMARK    2  A    between atoms: C_5  and  C_6
REMARK    3  A    between atoms: C_6  and  C_7
REMARK    4  A    between atoms: C_6  and  N_11
REMARK    5  A    between atoms: C_7  and  C_8
REMARK    6  A    between atoms: C_8  and  O_10
REMARK                            x       y       z     vdW  Elec       q    Type
REMARK                         _______ _______ _______ _____ _____    ______ ____
ROOT
ATOM      1  C   UNL     1       4.188   5.380  17.501  0.00  0.00    +0.000 C 
ENDROOT
BRANCH   1   2
ATOM      2  N   UNL     1       3.956   3.979  17.901  0.00  0.00    +0.000 N 
ATOM      3  C   UNL     1       4.413   3.433  19.079  0.00  0.00    +0.000 C 
ATOM      4  O   UNL     1       5.528   3.456  19.567  0.00  0.00    +0.000 OA
ATOM      5  C   UNL     1       3.214   2.904  19.750  0.00  0.00    +0.000 A 
ATOM      6  C   UNL     1       2.991   2.789  21.115  0.00  0.00    +0.000 A 
ATOM      7  C   UNL     1       1.661   2.874  21.543  0.00  0.00    +0.000 A 
ATOM      8  C   UNL     1       0.606   3.057  20.623  0.00  0.00    +0.000 A 
ATOM      9  C   UNL     1       0.852   3.101  19.252  0.00  0.00    +0.000 A 
ATOM     10  C   UNL     1       2.171   3.008  18.853  0.00  0.00    +0.000 A 
ATOM     11  C   UNL     1       2.716   3.477  17.593  0.00  0.00    +0.000 C 
ATOM     12  O   UNL     1       2.136   3.474  16.526  0.00  0.00    +0.000 OA
ENDBRANCH   1   2
BRANCH   1  17
ATOM     13  C   UNL     1       0.729   9.173  20.349  0.00  0.00    +0.000 C 
ATOM     14  C   UNL     1       1.656   8.232  19.639  0.00  0.00    +0.000 A 
ATOM     15  C   UNL     1       2.134   7.092  20.283  0.00  0.00    +0.000 A 
ATOM     16  C   UNL     1       2.943   6.175  19.609  0.00  0.00    +0.000 A 
ATOM     17  C   UNL     1       3.328   6.385  18.282  0.00  0.00    +0.000 A 
ATOM     18  C   UNL     1       2.908   7.586  17.667  0.00  0.00    +0.000 A 
ATOM     19  C   UNL     1       2.049   8.477  18.322  0.00  0.00    +0.000 A 
ENDBRANCH   1  17
BRANCH   1  20
ATOM     20  C   UNL     1       5.695   5.638  17.391  0.00  0.00    +0.000 C 
BRANCH  20  21
ATOM     21  C   UNL     1       6.082   6.071  15.999  0.00  0.00    +0.000 C 
ATOM     22  O   UNL     1       5.333   6.596  15.191  0.00  0.00    +0.000 OA
BRANCH  21  23
ATOM     23  O   UNL     1       7.373   5.794  15.707  0.00  0.00    +0.000 OA
ATOM     24  H   UNL     1       7.830   5.248  16.375  0.00  0.00    +0.000 HD
ENDBRANCH  21  23
ENDBRANCH  20  21
ENDBRANCH   1  20
TORSDOF 5
ENDMDL
MODEL 3
REMARK VINA RESULT:      -8.3      0.895      1.510
REMARK  Name = 
REMARK  6 active torsions:
REMARK  status: ('A' for Active; 'I' for Inactive)
REMARK    1  A    between atoms: C_1  and  C_2
REMARK    2  A    between atoms: C_5  and  C_6
REMARK    3  A    between atoms: C_6  and  C_7
REMARK    4  A    between atoms: C_6  and  N_11
REMARK    5  A    between atoms: C_7  and  C_8
REMARK    6  A    between atoms: C_8  and  O_10
REMARK                            x       y       z     vdW  Elec       q    Type
REMARK                         _______ _______ _______ _____ _____    ______ ____
ROOT
ATOM      1  C   UNL     1       4.245   5.495  17.505  0.00  0.00    +0.000 C 
ENDROOT
BRANCH   1   2
ATOM      2  N   UNL     1       4.019   4.086  17.881  0.00  0.00    +0.000 N 
ATOM      3  C   UNL     1       4.458   3.527  19.059  0.00  0.00    +0.000 C 
ATOM      4  O   UNL     1       5.563   3.554  19.570  0.00  0.00    +0.000 OA
ATOM      5  C   UNL     1       3.252   2.976  19.699  0.00  0.00    +0.000 A 
ATOM      6  C   UNL     1       3.004   2.839  21.057  0.00  0.00    +0.000 A 
ATOM      7  C   UNL     1       1.665   2.904  21.460  0.00  0.00    +0.000 A 
ATOM      8  C   UNL     1       0.627   3.090  20.522  0.00  0.00    +0.000 A 
ATOM      9  C   UNL     1       0.898   3.158  19.157  0.00  0.00    +0.000 A 
ATOM     10  C   UNL     1       2.226   3.083  18.782  0.00  0.00    +0.000 A 
ATOM     11  C   UNL     1       2.790   3.577  17.541  0.00  0.00    +0.000 C 
ATOM     12  O   UNL     1       2.232   3.583  16.462  0.00  0.00    +0.000 OA
ENDBRANCH   1   2
BRANCH   1  17
ATOM     13  C   UNL     1       0.786   9.290  20.352  0.00  0.00    +0.000 C 
ATOM     14  C   UNL     1       1.626   8.293  19.611  0.00  0.00    +0.000 A 
ATOM     15  C   UNL     1       1.923   8.483  18.262  0.00  0.00    +0.000 A 
ATOM     16  C   UNL     1       2.759   7.596  17.581  0.00  0.00    +0.000 A 
ATOM     17  C   UNL     1       3.295   6.472  18.216  0.00  0.00    +0.000 A 
ATOM     18  C   UNL     1       2.918   6.243  19.558  0.00  0.00    +0.000 A 
ATOM     19  C   UNL     1       2.128   7.163  20.258  0.00  0.00    +0.000 A 
ENDBRANCH   1  17
BRANCH   1  20
ATOM     20  C   UNL     1       5.748   5.795  17.521  0.00  0.00    +0.000 C 
BRANCH  20  21
ATOM     21  C   UNL     1       6.292   5.972  16.126  0.00  0.00    +0.000 C 
ATOM     22  O   UNL     1       7.448   5.771  15.790  0.00  0.00    +0.000 OA
BRANCH  21  23
ATOM     23  O   UNL     1       5.356   6.409  15.253  0.00  0.00    +0.000 OA
ATOM     24  H   UNL     1       5.700   6.613  14.362  0.00  0.00    +0.000 HD
ENDBRANCH  21  23
ENDBRANCH  20  21
ENDBRANCH   1  20
TORSDOF 5
ENDMDL
MODEL 4
REMARK VINA RESULT:      -8.0      2.610      4.907
REMARK  Name = 
REMARK  6 active torsions:
REMARK  status: ('A' for Active; 'I' for Inactive)
REMARK    1  A    between atoms: C_1  and  C_2
REMARK    2  A    between atoms: C_5  and  C_6
REMARK    3  A    between atoms: C_6  and  C_7
REMARK    4  A    between atoms: C_6  and  N_11
REMARK    5  A    between atoms: C_7  and  C_8
REMARK    6  A    between atoms: C_8  and  O_10
REMARK                            x       y       z     vdW  Elec       q    Type
REMARK                         _______ _______ _______ _____ _____    ______ ____
ROOT
ATOM      1  C   UNL     1       6.787   6.074  17.328  0.00  0.00    +0.000 C 
ENDROOT
BRANCH   1   2
ATOM      2  N   UNL     1       5.592   6.036  18.192  0.00  0.00    +0.000 N 
ATOM      3  C   UNL     1       4.308   6.219  17.731  0.00  0.00    +0.000 C 
ATOM      4  O   UNL     1       3.851   7.099  17.027  0.00  0.00    +0.000 OA
ATOM      5  C   UNL     1       3.572   5.015  18.153  0.00  0.00    +0.000 A 
ATOM      6  C   UNL     1       2.495   4.417  17.514  0.00  0.00    +0.000 A 
ATOM      7  C   UNL     1       2.356   3.034  17.680  0.00  0.00    +0.000 A 
ATOM      8  C   UNL     1       3.266   2.296  18.467  0.00  0.00    +0.000 A 
ATOM      9  C   UNL     1       4.300   2.932  19.152  0.00  0.00    +0.000 A 
ATOM     10  C   UNL     1       4.413   4.298  18.979  0.00  0.00    +0.000 A 
ATOM     11  C   UNL     1       5.613   5.087  19.183  0.00  0.00    +0.000 C 
ATOM     12  O   UNL     1       6.466   4.874  20.021  0.00  0.00    +0.000 OA
ENDBRANCH   1   2
BRANCH   1  17
ATOM     13  C   UNL     1       5.910   3.116  12.333  0.00  0.00    +0.000 C 
ATOM     14  C   UNL     1       6.179   3.842  13.617  0.00  0.00    +0.000 A 
ATOM     15  C   UNL     1       6.949   5.004  13.624  0.00  0.00    +0.000 A 
ATOM     16  C   UNL     1       7.149   5.725  14.803  0.00  0.00    +0.000 A 
ATOM     17  C   UNL     1       6.615   5.288  16.019  0.00  0.00    +0.000 A 
ATOM     18  C   UNL     1       5.909   4.064  16.016  0.00  0.00    +0.000 A 
ATOM     19  C   UNL     1       5.658   3.372  14.824  0.00  0.00    +0.000 A 
ENDBRANCH   1  17
BRANCH   1  20
ATOM     20  C   UNL     1       7.321   7.509  17.254  0.00  0.00    +0.000 C 
BRANCH  20  21
ATOM     21  C   UNL     1       8.223   7.825  18.420  0.00  0.00    +0.000 C 
ATOM     22  O   UNL     1       8.682   8.927  18.676  0.00  0.00    +0.000 OA
BRANCH  21  23
ATOM     23  O   UNL     1       8.508   6.736  19.169  0.00  0.00    +0.000 OA
ATOM     24  H   UNL     1       9.360   6.785  19.645  0.00  0.00    +0.000 HD
ENDBRANCH  21  23
ENDBRANCH  20  21
ENDBRANCH   1  20
TORSDOF 5
ENDMDL
MODEL 5
REMARK VINA RESULT:      -8.0      2.621      4.835
REMARK  Name = 
REMARK  6 active torsions:
REMARK  status: ('A' for Active; 'I' for Inactive)
REMARK    1  A    between atoms: C_1  and  C_2
REMARK    2  A    between atoms: C_5  and  C_6
REMARK    3  A    between atoms: C_6  and  C_7
REMARK    4  A    between atoms: C_6  and  N_11
REMARK    5  A    between atoms: C_7  and  C_8
REMARK    6  A    between atoms: C_8  and  O_10
REMARK                            x       y       z     vdW  Elec       q    Type
REMARK                         _______ _______ _______ _____ _____    ______ ____
ROOT
ATOM      1  C   UNL     1       6.815   6.009  17.276  0.00  0.00    +0.000 C 
ENDROOT
BRANCH   1   2
ATOM      2  N   UNL     1       5.648   6.023  18.179  0.00  0.00    +0.000 N 
ATOM      3  C   UNL     1       4.360   6.268  17.761  0.00  0.00    +0.000 C 
ATOM      4  O   UNL     1       3.922   7.173  17.075  0.00  0.00    +0.000 OA
ATOM      5  C   UNL     1       3.582   5.099  18.202  0.00  0.00    +0.000 A 
ATOM      6  C   UNL     1       2.457   4.556  17.598  0.00  0.00    +0.000 A 
ATOM      7  C   UNL     1       2.258   3.180  17.763  0.00  0.00    +0.000 A 
ATOM      8  C   UNL     1       3.157   2.396  18.518  0.00  0.00    +0.000 A 
ATOM      9  C   UNL     1       4.242   2.979  19.171  0.00  0.00    +0.000 A 
ATOM     10  C   UNL     1       4.414   4.339  18.999  0.00  0.00    +0.000 A 
ATOM     11  C   UNL     1       5.656   5.069  19.165  0.00  0.00    +0.000 C 
ATOM     12  O   UNL     1       6.525   4.812  19.974  0.00  0.00    +0.000 OA
ENDBRANCH   1   2
BRANCH   1  17
ATOM     13  C   UNL     1       6.063   3.027  12.275  0.00  0.00    +0.000 C 
ATOM     14  C   UNL     1       6.211   3.818  13.540  0.00  0.00    +0.000 A 
ATOM     15  C   UNL     1       5.597   3.390  14.717  0.00  0.00    +0.000 A 
ATOM     16  C   UNL     1       5.784   4.082  15.915  0.00  0.00    +0.000 A 
ATOM     17  C   UNL     1       6.561   5.243  15.969  0.00  0.00    +0.000 A 
ATOM     18  C   UNL     1       7.108   5.714  14.754  0.00  0.00    +0.000 A 
ATOM     19  C   UNL     1       6.970   4.989  13.564  0.00  0.00    +0.000 A 
ENDBRANCH   1  17
BRANCH   1  20
ATOM     20  C   UNL     1       7.417   7.416  17.194  0.00  0.00    +0.000 C 
BRANCH  20  21
ATOM     21  C   UNL     1       8.238   7.739  18.417  0.00  0.00    +0.000 C 
ATOM     22  O   UNL     1       8.646   8.849  18.717  0.00  0.00    +0.000 OA
BRANCH  21  23
ATOM     23  O   UNL     1       8.512   6.646  19.165  0.00  0.00    +0.000 OA
ATOM     24  H   UNL     1       8.008   5.848  18.913  0.00  0.00    +0.000 HD
ENDBRANCH  21  23
ENDBRANCH  20  21
ENDBRANCH   1  20
TORSDOF 5
ENDMDL
MODEL 6
REMARK VINA RESULT:      -7.9      0.619      1.246
REMARK  Name = 
REMARK  6 active torsions:
REMARK  status: ('A' for Active; 'I' for Inactive)
REMARK    1  A    between atoms: C_1  and  C_2
REMARK    2  A    between atoms: C_5  and  C_6
REMARK    3  A    between atoms: C_6  and  C_7
REMARK    4  A    between atoms: C_6  and  N_11
REMARK    5  A    between atoms: C_7  and  C_8
REMARK    6  A    between atoms: C_8  and  O_10
REMARK                            x       y       z     vdW  Elec       q    Type
REMARK                         _______ _______ _______ _____ _____    ______ ____
ROOT
ATOM      1  C   UNL     1       4.846   5.065  17.909  0.00  0.00    +0.000 C 
ENDROOT
BRANCH   1   2
ATOM      2  N   UNL     1       4.335   3.706  18.170  0.00  0.00    +0.000 N 
ATOM      3  C   UNL     1       4.470   3.055  19.375  0.00  0.00    +0.000 C 
ATOM      4  O   UNL     1       5.461   2.884  20.061  0.00  0.00    +0.000 OA
ATOM      5  C   UNL     1       3.100   2.699  19.778  0.00  0.00    +0.000 A 
ATOM      6  C   UNL     1       2.605   2.575  21.068  0.00  0.00    +0.000 A 
ATOM      7  C   UNL     1       1.245   2.855  21.248  0.00  0.00    +0.000 A 
ATOM      8  C   UNL     1       0.426   3.233  20.163  0.00  0.00    +0.000 A 
ATOM      9  C   UNL     1       0.934   3.285  18.866  0.00  0.00    +0.000 A 
ATOM     10  C   UNL     1       2.276   2.998  18.712  0.00  0.00    +0.000 A 
ATOM     11  C   UNL     1       3.116   3.418  17.607  0.00  0.00    +0.000 C 
ATOM     12  O   UNL     1       2.758   3.543  16.453  0.00  0.00    +0.000 OA
ENDBRANCH   1   2
BRANCH   1  17
ATOM     13  C   UNL     1       1.105   9.364  19.322  0.00  0.00    +0.000 C 
ATOM     14  C   UNL     1       2.019   8.237  18.943  0.00  0.00    +0.000 A 
ATOM     15  C   UNL     1       2.595   8.190  17.673  0.00  0.00    +0.000 A 
ATOM     16  C   UNL     1       3.499   7.182  17.334  0.00  0.00    +0.000 A 
ATOM     17  C   UNL     1       3.830   6.169  18.239  0.00  0.00    +0.000 A 
ATOM     18  C   UNL     1       3.175   6.178  19.491  0.00  0.00    +0.000 A 
ATOM     19  C   UNL     1       2.314   7.221  19.854  0.00  0.00    +0.000 A 
ENDBRANCH   1  17
BRANCH   1  20
ATOM     20  C   UNL     1       6.269   5.192  18.463  0.00  0.00    +0.000 C 
BRANCH  20  21
ATOM     21  C   UNL     1       7.063   6.235  17.717  0.00  0.00    +0.000 C 
ATOM     22  O   UNL     1       7.845   7.022  18.226  0.00  0.00    +0.000 OA
BRANCH  21  23
ATOM     23  O   UNL     1       6.805   6.236  16.390  0.00  0.00    +0.000 OA
ATOM     24  H   UNL     1       7.509   5.839  15.841  0.00  0.00    +0.000 HD
ENDBRANCH  21  23
ENDBRANCH  20  21
ENDBRANCH   1  20
TORSDOF 5
ENDMDL
MODEL 7
REMARK VINA RESULT:      -7.8      1.330      1.436
REMARK  Name = 
REMARK  6 active torsions:
REMARK  status: ('A' for Active; 'I' for Inactive)
REMARK    1  A    between atoms: C_1  and  C_2
REMARK    2  A    between atoms: C_5  and  C_6
REMARK    3  A    between atoms: C_6  and  C_7
REMARK    4  A    between atoms: C_6  and  N_11
REMARK    5  A    between atoms: C_7  and  C_8
REMARK    6  A    between atoms: C_8  and  O_10
REMARK                            x       y       z     vdW  Elec       q    Type
REMARK                         _______ _______ _______ _____ _____    ______ ____
ROOT
ATOM      1  C   UNL     1       4.432   4.236  16.942  0.00  0.00    +0.000 C 
ENDROOT
BRANCH   1   2
ATOM      2  N   UNL     1       4.189   3.122  17.878  0.00  0.00    +0.000 N 
ATOM      3  C   UNL     1       4.484   3.172  19.222  0.00  0.00    +0.000 C 
ATOM      4  O   UNL     1       5.512   3.505  19.782  0.00  0.00    +0.000 OA
ATOM      5  C   UNL     1       3.217   2.867  19.907  0.00  0.00    +0.000 A 
ATOM      6  C   UNL     1       2.797   3.322  21.149  0.00  0.00    +0.000 A 
ATOM      7  C   UNL     1       1.416   3.455  21.335  0.00  0.00    +0.000 A 
ATOM      8  C   UNL     1       0.505   3.131  20.308  0.00  0.00    +0.000 A 
ATOM      9  C   UNL     1       0.950   2.613  19.093  0.00  0.00    +0.000 A 
ATOM     10  C   UNL     1       2.316   2.483  18.935  0.00  0.00    +0.000 A 
ATOM     11  C   UNL     1       3.026   2.423  17.672  0.00  0.00    +0.000 C 
ATOM     12  O   UNL     1       2.612   1.913  16.650  0.00  0.00    +0.000 OA
ENDBRANCH   1   2
BRANCH   1  17
ATOM     13  C   UNL     1       1.779   9.288  18.321  0.00  0.00    +0.000 C 
ATOM     14  C   UNL     1       2.476   7.995  18.020  0.00  0.00    +0.000 A 
ATOM     15  C   UNL     1       1.819   6.778  18.205  0.00  0.00    +0.000 A 
ATOM     16  C   UNL     1       2.435   5.573  17.864  0.00  0.00    +0.000 A 
ATOM     17  C   UNL     1       3.738   5.542  17.359  0.00  0.00    +0.000 A 
ATOM     18  C   UNL     1       4.424   6.773  17.256  0.00  0.00    +0.000 A 
ATOM     19  C   UNL     1       3.787   7.986  17.543  0.00  0.00    +0.000 A 
ENDBRANCH   1  17
BRANCH   1  20
ATOM     20  C   UNL     1       5.920   4.283  16.578  0.00  0.00    +0.000 C 
BRANCH  20  21
ATOM     21  C   UNL     1       6.122   4.600  15.117  0.00  0.00    +0.000 C 
ATOM     22  O   UNL     1       5.366   4.277  14.215  0.00  0.00    +0.000 OA
BRANCH  21  23
ATOM     23  O   UNL     1       7.268   5.280  14.885  0.00  0.00    +0.000 OA
ATOM     24  H   UNL     1       7.350   5.636  13.979  0.00  0.00    +0.000 HD
ENDBRANCH  21  23
ENDBRANCH  20  21
ENDBRANCH   1  20
TORSDOF 5
ENDMDL
MODEL 8
REMARK VINA RESULT:      -7.7      1.786      4.792
REMARK  Name = 
REMARK  6 active torsions:
REMARK  status: ('A' for Active; 'I' for Inactive)
REMARK    1  A    between atoms: C_1  and  C_2
REMARK    2  A    between atoms: C_5  and  C_6
REMARK    3  A    between atoms: C_6  and  C_7
REMARK    4  A    between atoms: C_6  and  N_11
REMARK    5  A    between atoms: C_7  and  C_8
REMARK    6  A    between atoms: C_8  and  O_10
REMARK                            x       y       z     vdW  Elec       q    Type
REMARK                         _______ _______ _______ _____ _____    ______ ____
ROOT
ATOM      1  C   UNL     1       3.105   4.327  19.859  0.00  0.00    +0.000 C 
ENDROOT
BRANCH   1   2
ATOM      2  N   UNL     1       4.218   3.769  19.067  0.00  0.00    +0.000 N 
ATOM      3  C   UNL     1       4.069   3.232  17.808  0.00  0.00    +0.000 C 
ATOM      4  O   UNL     1       3.279   2.399  17.405  0.00  0.00    +0.000 OA
ATOM      5  C   UNL     1       4.999   3.988  16.954  0.00  0.00    +0.000 A 
ATOM      6  C   UNL     1       4.863   4.273  15.603  0.00  0.00    +0.000 A 
ATOM      7  C   UNL     1       5.457   5.456  15.147  0.00  0.00    +0.000 A 
ATOM      8  C   UNL     1       6.166   6.304  16.025  0.00  0.00    +0.000 A 
ATOM      9  C   UNL     1       6.345   5.960  17.364  0.00  0.00    +0.000 A 
ATOM     10  C   UNL     1       5.756   4.785  17.789  0.00  0.00    +0.000 A 
ATOM     11  C   UNL     1       5.404   4.453  19.156  0.00  0.00    +0.000 C 
ATOM     12  O   UNL     1       6.020   4.791  20.147  0.00  0.00    +0.000 OA
ENDBRANCH   1   2
BRANCH   1  17
ATOM     13  C   UNL     1       1.612   9.748  18.169  0.00  0.00    +0.000 C 
ATOM     14  C   UNL     1       1.941   8.348  18.596  0.00  0.00    +0.000 A 
ATOM     15  C   UNL     1       2.296   7.386  17.651  0.00  0.00    +0.000 A 
ATOM     16  C   UNL     1       2.670   6.100  18.043  0.00  0.00    +0.000 A 
ATOM     17  C   UNL     1       2.667   5.723  19.390  0.00  0.00    +0.000 A 
ATOM     18  C   UNL     1       2.224   6.679  20.331  0.00  0.00    +0.000 A 
ATOM     19  C   UNL     1       1.906   7.987  19.944  0.00  0.00    +0.000 A 
ENDBRANCH   1  17
BRANCH   1  20
ATOM     20  C   UNL     1       2.030   3.253  20.060  0.00  0.00    +0.000 C 
BRANCH  20  21
ATOM     21  C   UNL     1       2.043   2.714  21.468  0.00  0.00    +0.000 C 
ATOM     22  O   UNL     1       1.074   2.658  22.209  0.00  0.00    +0.000 OA
BRANCH  21  23
ATOM     23  O   UNL     1       3.271   2.303  21.858  0.00  0.00    +0.000 OA
ATOM     24  H   UNL     1       3.961   2.992  21.808  0.00  0.00    +0.000 HD
ENDBRANCH  21  23
ENDBRANCH  20  21
ENDBRANCH   1  20
TORSDOF 5
ENDMDL
MODEL 9
REMARK VINA RESULT:      -7.7      0.853      1.093
REMARK  Name = 
REMARK  6 active torsions:
REMARK  status: ('A' for Active; 'I' for Inactive)
REMARK    1  A    between atoms: C_1  and  C_2
REMARK    2  A    between atoms: C_5  and  C_6
REMARK    3  A    between atoms: C_6  and  C_7
REMARK    4  A    between atoms: C_6  and  N_11
REMARK    5  A    between atoms: C_7  and  C_8
REMARK    6  A    between atoms: C_8  and  O_10
REMARK                            x       y       z     vdW  Elec       q    Type
REMARK                         _______ _______ _______ _____ _____    ______ ____
ROOT
ATOM      1  C   UNL     1       4.705   4.436  17.591  0.00  0.00    +0.000 C 
ENDROOT
BRANCH   1   2
ATOM      2  N   UNL     1       4.163   3.160  18.093  0.00  0.00    +0.000 N 
ATOM      3  C   UNL     1       4.365   2.692  19.372  0.00  0.00    +0.000 C 
ATOM      4  O   UNL     1       5.398   2.577  20.005  0.00  0.00    +0.000 OA
ATOM      5  C   UNL     1       3.017   2.470  19.920  0.00  0.00    +0.000 A 
ATOM      6  C   UNL     1       2.617   2.567  21.245  0.00  0.00    +0.000 A 
ATOM      7  C   UNL     1       1.287   2.939  21.474  0.00  0.00    +0.000 A 
ATOM      8  C   UNL     1       0.403   3.190  20.403  0.00  0.00    +0.000 A 
ATOM      9  C   UNL     1       0.812   3.020  19.082  0.00  0.00    +0.000 A 
ATOM     10  C   UNL     1       2.126   2.645  18.881  0.00  0.00    +0.000 A 
ATOM     11  C   UNL     1       2.895   2.851  17.668  0.00  0.00    +0.000 C 
ATOM     12  O   UNL     1       2.455   2.818  16.536  0.00  0.00    +0.000 OA
ENDBRANCH   1   2
BRANCH   1  17
ATOM     13  C   UNL     1       1.493   9.068  19.233  0.00  0.00    +0.000 C 
ATOM     14  C   UNL     1       2.358   7.910  18.833  0.00  0.00    +0.000 A 
ATOM     15  C   UNL     1       2.580   6.855  19.717  0.00  0.00    +0.000 A 
ATOM     16  C   UNL     1       3.327   5.741  19.330  0.00  0.00    +0.000 A 
ATOM     17  C   UNL     1       3.906   5.661  18.060  0.00  0.00    +0.000 A 
ATOM     18  C   UNL     1       3.747   6.774  17.203  0.00  0.00    +0.000 A 
ATOM     19  C   UNL     1       2.948   7.865  17.569  0.00  0.00    +0.000 A 
ENDBRANCH   1  17
BRANCH   1  20
ATOM     20  C   UNL     1       6.228   4.448  17.760  0.00  0.00    +0.000 C 
BRANCH  20  21
ATOM     21  C   UNL     1       6.672   5.543  18.697  0.00  0.00    +0.000 C 
ATOM     22  O   UNL     1       6.706   5.457  19.915  0.00  0.00    +0.000 OA
BRANCH  21  23
ATOM     23  O   UNL     1       7.022   6.676  18.047  0.00  0.00    +0.000 OA
ATOM     24  H   UNL     1       6.869   6.652  17.083  0.00  0.00    +0.000 HD
ENDBRANCH  21  23
ENDBRANCH  20  21
ENDBRANCH   1  20
TORSDOF 5
ENDMDL
