MODEL 1
REMARK VINA RESULT:      -7.6      0.000      0.000
REMARK  Name = 
REMARK  8 active torsions:
REMARK  status: ('A' for Active; 'I' for Inactive)
REMARK    1  A    between atoms: C_1  and  C_2
REMARK    2  A    between atoms: C_4  and  C_5
REMARK    3  A    between atoms: N_6  and  C_7
REMARK    4  A    between atoms: C_7  and  C_8
REMARK    5  A    between atoms: N_10  and  C_11
REMARK    6  A    between atoms: C_11  and  C_12
REMARK    7  A    between atoms: C_12  and  C_13
REMARK    8  A    between atoms: N_15  and  C_16
REMARK                            x       y       z     vdW  Elec       q    Type
REMARK                         _______ _______ _______ _____ _____    ______ ____
ROOT
ATOM      1  C   UNL     1       4.628   4.964  17.467  0.00  0.00    +0.000 C 
ATOM      2  C   UNL     1       4.923   6.397  16.951  0.00  0.00    +0.000 C 
ATOM      3  N   UNL     1       6.377   6.720  16.860  0.00  0.00    +0.000 NA
ATOM      4  C   UNL     1       7.020   5.640  16.075  0.00  0.00    +0.000 C 
ATOM      5  C   UNL     1       6.691   4.225  16.572  0.00  0.00    +0.000 C 
ATOM      6  O   UNL     1       5.275   4.014  16.593  0.00  0.00    +0.000 OA
ENDROOT
BRANCH   1   7
ATOM      7  C   UNL     1       3.121   4.698  17.484  0.00  0.00    +0.000 C 
BRANCH   7  13
ATOM      8  C   UNL     1       1.486   2.644  21.548  0.00  0.00    +0.000 C 
ATOM      9  C   UNL     1       1.882   3.726  20.616  0.00  0.00    +0.000 A 
ATOM     10  C   UNL     1       1.770   5.119  20.811  0.00  0.00    +0.000 A 
ATOM     11  C   UNL     1       2.257   5.692  19.656  0.00  0.00    +0.000 A 
ATOM     12  C   UNL     1       2.383   7.117  19.264  0.00  0.00    +0.000 C 
ATOM     13  N   UNL     1       2.601   4.642  18.842  0.00  0.00    +0.000 N 
ATOM     14  N   UNL     1       2.412   3.436  19.421  0.00  0.00    +0.000 NA
ENDBRANCH   7  13
ENDBRANCH   1   7
BRANCH   3  15
ATOM     15  C   UNL     1       6.937   6.871  18.219  0.00  0.00    +0.000 C 
BRANCH  15  16
ATOM     16  C   UNL     1       8.345   7.477  18.307  0.00  0.00    +0.000 C 
BRANCH  16  17
ATOM     17  C   UNL     1       8.243   8.983  18.140  0.00  0.00    +0.000 C 
ATOM     18  O   UNL     1       7.395   9.516  17.425  0.00  0.00    +0.000 OA
ATOM     19  N   UNL     1       9.155   9.712  18.874  0.00  0.00    +0.000 N 
ATOM     20  H   UNL     1       9.944   9.232  19.287  0.00  0.00    +0.000 HD
BRANCH  19  21
ATOM     21  C   UNL     1       9.190  11.169  18.754  0.00  0.00    +0.000 C 
ATOM     22  C   UNL     1       9.332  11.855  20.117  0.00  0.00    +0.000 C 
ATOM     23  C   UNL     1      10.751  11.800  20.679  0.00  0.00    +0.000 C 
ATOM     24  C   UNL     1      11.774  12.315  19.673  0.00  0.00    +0.000 C 
ATOM     25  C   UNL     1      11.684  11.555  18.355  0.00  0.00    +0.000 C 
ATOM     26  C   UNL     1      10.276  11.620  17.766  0.00  0.00    +0.000 C 
ENDBRANCH  19  21
ENDBRANCH  16  17
ENDBRANCH  15  16
ENDBRANCH   3  15
TORSDOF 6
ENDMDL
MODEL 2
REMARK VINA RESULT:      -7.6      0.974      1.096
REMARK  Name = 
REMARK  8 active torsions:
REMARK  status: ('A' for Active; 'I' for Inactive)
REMARK    1  A    between atoms: C_1  and  C_2
REMARK    2  A    between atoms: C_4  and  C_5
REMARK    3  A    between atoms: N_6  and  C_7
REMARK    4  A    between atoms: C_7  and  C_8
REMARK    5  A    between atoms: N_10  and  C_11
REMARK    6  A    between atoms: C_11  and  C_12
REMARK    7  A    between atoms: C_12  and  C_13
REMARK    8  A    between atoms: N_15  and  C_16
REMARK                            x       y       z     vdW  Elec       q    Type
REMARK                         _______ _______ _______ _____ _____    ______ ____
ROOT
ATOM      1  C   UNL     1       5.046   5.261  18.138  0.00  0.00    +0.000 C 
ATOM      2  C   UNL     1       5.913   5.233  16.851  0.00  0.00    +0.000 C 
ATOM      3  N   UNL     1       7.295   5.764  17.041  0.00  0.00    +0.000 NA
ATOM      4  C   UNL     1       7.887   5.050  18.196  0.00  0.00    +0.000 C 
ATOM      5  C   UNL     1       7.003   5.053  19.453  0.00  0.00    +0.000 C 
ATOM      6  O   UNL     1       5.715   4.499  19.165  0.00  0.00    +0.000 OA
ENDROOT
BRANCH   1   7
ATOM      7  C   UNL     1       3.667   4.657  17.869  0.00  0.00    +0.000 C 
BRANCH   7  13
ATOM      8  C   UNL     1       1.298   2.637  21.573  0.00  0.00    +0.000 C 
ATOM      9  C   UNL     1       1.818   3.711  20.693  0.00  0.00    +0.000 A 
ATOM     10  C   UNL     1       1.565   5.096  20.778  0.00  0.00    +0.000 A 
ATOM     11  C   UNL     1       2.260   5.661  19.731  0.00  0.00    +0.000 A 
ATOM     12  C   UNL     1       2.370   7.075  19.296  0.00  0.00    +0.000 C 
ATOM     13  N   UNL     1       2.856   4.612  19.077  0.00  0.00    +0.000 N 
ATOM     14  N   UNL     1       2.626   3.418  19.666  0.00  0.00    +0.000 NA
ENDBRANCH   7  13
ENDBRANCH   1   7
BRANCH   3  15
ATOM     15  C   UNL     1       7.242   7.230  17.221  0.00  0.00    +0.000 C 
BRANCH  15  16
ATOM     16  C   UNL     1       8.242   7.825  18.223  0.00  0.00    +0.000 C 
BRANCH  16  17
ATOM     17  C   UNL     1       8.271   9.333  18.051  0.00  0.00    +0.000 C 
ATOM     18  O   UNL     1       7.440   9.941  17.377  0.00  0.00    +0.000 OA
ATOM     19  N   UNL     1       9.285   9.976  18.731  0.00  0.00    +0.000 N 
ATOM     20  H   UNL     1      10.046   9.425  19.105  0.00  0.00    +0.000 HD
BRANCH  19  21
ATOM     21  C   UNL     1       9.449  11.422  18.598  0.00  0.00    +0.000 C 
ATOM     22  C   UNL     1       9.376  12.136  19.953  0.00  0.00    +0.000 C 
ATOM     23  C   UNL     1      10.653  12.000  20.779  0.00  0.00    +0.000 C 
ATOM     24  C   UNL     1      11.885  12.414  19.982  0.00  0.00    +0.000 C 
ATOM     25  C   UNL     1      11.994  11.624  18.683  0.00  0.00    +0.000 C 
ATOM     26  C   UNL     1      10.734  11.770  17.832  0.00  0.00    +0.000 C 
ENDBRANCH  19  21
ENDBRANCH  16  17
ENDBRANCH  15  16
ENDBRANCH   3  15
TORSDOF 6
ENDMDL
MODEL 3
REMARK VINA RESULT:      -7.5      3.925      7.387
REMARK  Name = 
REMARK  8 active torsions:
REMARK  status: ('A' for Active; 'I' for Inactive)
REMARK    1  A    between atoms: C_1  and  C_2
REMARK    2  A    between atoms: C_4  and  C_5
REMARK    3  A    between atoms: N_6  and  C_7
REMARK    4  A    between atoms: C_7  and  C_8
REMARK    5  A    between atoms: N_10  and  C_11
REMARK    6  A    between atoms: C_11  and  C_12
REMARK    7  A    between atoms: C_12  and  C_13
REMARK    8  A    between atoms: N_15  and  C_16
REMARK                            x       y       z     vdW  Elec       q    Type
REMARK                         _______ _______ _______ _____ _____    ______ ____
ROOT
ATOM      1  C   UNL     1       3.516   3.494  17.816  0.00  0.00    +0.000 C 
ATOM      2  C   UNL     1       3.414   2.378  18.889  0.00  0.00    +0.000 C 
ATOM      3  N   UNL     1       2.212   2.491  19.767  0.00  0.00    +0.000 NA
ATOM      4  C   UNL     1       1.029   2.602  18.882  0.00  0.00    +0.000 C 
ATOM      5  C   UNL     1       1.156   3.685  17.801  0.00  0.00    +0.000 C 
ATOM      6  O   UNL     1       2.324   3.465  17.002  0.00  0.00    +0.000 OA
ENDROOT
BRANCH   1   7
ATOM      7  C   UNL     1       4.745   3.278  16.932  0.00  0.00    +0.000 C 
BRANCH   7  13
ATOM      8  C   UNL     1       7.979   5.898  19.400  0.00  0.00    +0.000 C 
ATOM      9  C   UNL     1       7.163   5.449  18.246  0.00  0.00    +0.000 A 
ATOM     10  C   UNL     1       7.102   6.020  16.957  0.00  0.00    +0.000 A 
ATOM     11  C   UNL     1       6.193   5.253  16.259  0.00  0.00    +0.000 A 
ATOM     12  C   UNL     1       5.702   5.370  14.865  0.00  0.00    +0.000 C 
ATOM     13  N   UNL     1       5.751   4.307  17.149  0.00  0.00    +0.000 N 
ATOM     14  N   UNL     1       6.353   4.388  18.355  0.00  0.00    +0.000 NA
ENDBRANCH   7  13
ENDBRANCH   1   7
BRANCH   3  15
ATOM     15  C   UNL     1       2.372   3.641  20.681  0.00  0.00    +0.000 C 
BRANCH  15  16
ATOM     16  C   UNL     1       1.243   4.681  20.664  0.00  0.00    +0.000 C 
BRANCH  16  17
ATOM     17  C   UNL     1       1.850   6.063  20.500  0.00  0.00    +0.000 C 
ATOM     18  O   UNL     1       2.926   6.253  19.934  0.00  0.00    +0.000 OA
ATOM     19  N   UNL     1       1.090   7.095  21.011  0.00  0.00    +0.000 N 
ATOM     20  H   UNL     1       0.322   6.875  21.630  0.00  0.00    +0.000 HD
BRANCH  19  21
ATOM     21  C   UNL     1       1.597   8.466  20.961  0.00  0.00    +0.000 C 
ATOM     22  C   UNL     1       0.900   9.297  19.878  0.00  0.00    +0.000 C 
ATOM     23  C   UNL     1      -0.501   9.757  20.273  0.00  0.00    +0.000 C 
ATOM     24  C   UNL     1      -0.499  10.467  21.622  0.00  0.00    +0.000 C 
ATOM     25  C   UNL     1       0.108   9.587  22.709  0.00  0.00    +0.000 C 
ATOM     26  C   UNL     1       1.521   9.138  22.340  0.00  0.00    +0.000 C 
ENDBRANCH  19  21
ENDBRANCH  16  17
ENDBRANCH  15  16
ENDBRANCH   3  15
TORSDOF 6
ENDMDL
MODEL 4
REMARK VINA RESULT:      -7.3      1.144      1.733
REMARK  Name = 
REMARK  8 active torsions:
REMARK  status: ('A' for Active; 'I' for Inactive)
REMARK    1  A    between atoms: C_1  and  C_2
REMARK    2  A    between atoms: C_4  and  C_5
REMARK    3  A    between atoms: N_6  and  C_7
REMARK    4  A    between atoms: C_7  and  C_8
REMARK    5  A    between atoms: N_10  and  C_11
REMARK    6  A    between atoms: C_11  and  C_12
REMARK    7  A    between atoms: C_12  and  C_13
REMARK    8  A    between atoms: N_15  and  C_16
REMARK                            x       y       z     vdW  Elec       q    Type
REMARK                         _______ _______ _______ _____ _____    ______ ____
ROOT
ATOM      1  C   UNL     1       5.627   4.490  17.917  0.00  0.00    +0.000 C 
ATOM      2  C   UNL     1       5.431   5.996  18.234  0.00  0.00    +0.000 C 
ATOM      3  N   UNL     1       5.963   6.910  17.181  0.00  0.00    +0.000 NA
ATOM      4  C   UNL     1       5.386   6.476  15.888  0.00  0.00    +0.000 C 
ATOM      5  C   UNL     1       5.554   4.976  15.601  0.00  0.00    +0.000 C 
ATOM      6  O   UNL     1       4.986   4.194  16.658  0.00  0.00    +0.000 OA
ENDROOT
BRANCH   1   7
ATOM      7  C   UNL     1       5.014   3.624  19.019  0.00  0.00    +0.000 C 
BRANCH   7  13
ATOM      8  C   UNL     1       1.346   6.117  20.955  0.00  0.00    +0.000 C 
ATOM      9  C   UNL     1       2.031   5.086  20.138  0.00  0.00    +0.000 A 
ATOM     10  C   UNL     1       1.442   4.046  19.390  0.00  0.00    +0.000 A 
ATOM     11  C   UNL     1       2.495   3.356  18.828  0.00  0.00    +0.000 A 
ATOM     12  C   UNL     1       2.509   2.159  17.952  0.00  0.00    +0.000 C 
ATOM     13  N   UNL     1       3.628   3.987  19.278  0.00  0.00    +0.000 N 
ATOM     14  N   UNL     1       3.367   5.063  20.051  0.00  0.00    +0.000 NA
ENDBRANCH   7  13
ENDBRANCH   1   7
BRANCH   3  15
ATOM     15  C   UNL     1       7.440   6.886  17.203  0.00  0.00    +0.000 C 
BRANCH  15  16
ATOM     16  C   UNL     1       8.111   7.598  18.387  0.00  0.00    +0.000 C 
BRANCH  16  17
ATOM     17  C   UNL     1       8.209   9.081  18.076  0.00  0.00    +0.000 C 
ATOM     18  O   UNL     1       7.572   9.612  17.166  0.00  0.00    +0.000 OA
ATOM     19  N   UNL     1       9.044   9.795  18.910  0.00  0.00    +0.000 N 
ATOM     20  H   UNL     1       9.685   9.290  19.507  0.00  0.00    +0.000 HD
BRANCH  19  21
ATOM     21  C   UNL     1       9.261  11.222  18.675  0.00  0.00    +0.000 C 
ATOM     22  C   UNL     1       9.282  12.023  19.982  0.00  0.00    +0.000 C 
ATOM     23  C   UNL     1      10.589  11.882  20.759  0.00  0.00    +0.000 C 
ATOM     24  C   UNL     1      11.799  12.189  19.883  0.00  0.00    +0.000 C 
ATOM     25  C   UNL     1      11.814  11.315  18.635  0.00  0.00    +0.000 C 
ATOM     26  C   UNL     1      10.523  11.462  17.832  0.00  0.00    +0.000 C 
ENDBRANCH  19  21
ENDBRANCH  16  17
ENDBRANCH  15  16
ENDBRANCH   3  15
TORSDOF 6
ENDMDL
MODEL 5
REMARK VINA RESULT:      -7.2      1.654      2.502
REMARK  Name = 
REMARK  8 active torsions:
REMARK  status: ('A' for Active; 'I' for Inactive)
REMARK    1  A    between atoms: C_1  and  C_2
REMARK    2  A    between atoms: C_4  and  C_5
REMARK    3  A    between atoms: N_6  and  C_7
REMARK    4  A    between atoms: C_7  and  C_8
REMARK    5  A    between atoms: N_10  and  C_11
REMARK    6  A    between atoms: C_11  and  C_12
REMARK    7  A    between atoms: C_12  and  C_13
REMARK    8  A    between atoms: N_15  and  C_16
REMARK                            x       y       z     vdW  Elec       q    Type
REMARK                         _______ _______ _______ _____ _____    ______ ____
ROOT
ATOM      1  C   UNL     1       4.966   6.054  17.873  0.00  0.00    +0.000 C 
ATOM      2  C   UNL     1       5.779   6.642  16.690  0.00  0.00    +0.000 C 
ATOM      3  N   UNL     1       7.258   6.537  16.861  0.00  0.00    +0.000 NA
ATOM      4  C   UNL     1       7.567   5.123  17.174  0.00  0.00    +0.000 C 
ATOM      5  C   UNL     1       6.730   4.540  18.323  0.00  0.00    +0.000 C 
ATOM      6  O   UNL     1       5.331   4.668  18.042  0.00  0.00    +0.000 OA
ENDROOT
BRANCH   1   7
ATOM      7  C   UNL     1       3.465   6.157  17.597  0.00  0.00    +0.000 C 
BRANCH   7  13
ATOM      8  C   UNL     1       1.328   8.381  21.326  0.00  0.00    +0.000 C 
ATOM      9  C   UNL     1       1.771   7.261  20.461  0.00  0.00    +0.000 A 
ATOM     10  C   UNL     1       1.604   5.878  20.684  0.00  0.00    +0.000 A 
ATOM     11  C   UNL     1       2.198   5.258  19.606  0.00  0.00    +0.000 A 
ATOM     12  C   UNL     1       2.354   3.818  19.286  0.00  0.00    +0.000 C 
ATOM     13  N   UNL     1       2.699   6.272  18.829  0.00  0.00    +0.000 N 
ATOM     14  N   UNL     1       2.422   7.501  19.315  0.00  0.00    +0.000 NA
ENDBRANCH   7  13
ENDBRANCH   1   7
BRANCH   3  15
ATOM     15  C   UNL     1       7.705   7.481  17.907  0.00  0.00    +0.000 C 
BRANCH  15  16
ATOM     16  C   UNL     1       7.758   8.962  17.504  0.00  0.00    +0.000 C 
BRANCH  16  17
ATOM     17  C   UNL     1       8.737   9.684  18.412  0.00  0.00    +0.000 C 
ATOM     18  O   UNL     1       9.093   9.229  19.499  0.00  0.00    +0.000 OA
ATOM     19  N   UNL     1       9.220  10.877  17.915  0.00  0.00    +0.000 N 
ATOM     20  H   UNL     1       8.756  11.297  17.121  0.00  0.00    +0.000 HD
BRANCH  19  21
ATOM     21  C   UNL     1      10.127  11.689  18.725  0.00  0.00    +0.000 C 
ATOM     22  C   UNL     1      11.440  11.986  17.992  0.00  0.00    +0.000 C 
ATOM     23  C   UNL     1      11.309  13.072  16.927  0.00  0.00    +0.000 C 
ATOM     24  C   UNL     1      10.673  14.337  17.491  0.00  0.00    +0.000 C 
ATOM     25  C   UNL     1       9.321  14.039  18.130  0.00  0.00    +0.000 C 
ATOM     26  C   UNL     1       9.439  12.971  19.216  0.00  0.00    +0.000 C 
ENDBRANCH  19  21
ENDBRANCH  16  17
ENDBRANCH  15  16
ENDBRANCH   3  15
TORSDOF 6
ENDMDL
MODEL 6
REMARK VINA RESULT:      -7.1      1.477      2.083
REMARK  Name = 
REMARK  8 active torsions:
REMARK  status: ('A' for Active; 'I' for Inactive)
REMARK    1  A    between atoms: C_1  and  C_2
REMARK    2  A    between atoms: C_4  and  C_5
REMARK    3  A    between atoms: N_6  and  C_7
REMARK    4  A    between atoms: C_7  and  C_8
REMARK    5  A    between atoms: N_10  and  C_11
REMARK    6  A    between atoms: C_11  and  C_12
REMARK    7  A    between atoms: C_12  and  C_13
REMARK    8  A    between atoms: N_15  and  C_16
REMARK                            x       y       z     vdW  Elec       q    Type
REMARK                         _______ _______ _______ _____ _____    ______ ____
ROOT
ATOM      1  C   UNL     1       5.031   6.025  18.274  0.00  0.00    +0.000 C 
ATOM      2  C   UNL     1       5.471   6.751  16.975  0.00  0.00    +0.000 C 
ATOM      3  N   UNL     1       6.937   6.673  16.707  0.00  0.00    +0.000 NA
ATOM      4  C   UNL     1       7.323   5.244  16.772  0.00  0.00    +0.000 C 
ATOM      5  C   UNL     1       6.849   4.527  18.046  0.00  0.00    +0.000 C 
ATOM      6  O   UNL     1       5.429   4.640  18.189  0.00  0.00    +0.000 OA
ENDROOT
BRANCH   1   7
ATOM      7  C   UNL     1       3.513   6.111  18.448  0.00  0.00    +0.000 C 
BRANCH   7  13
ATOM      8  C   UNL     1       2.187   3.091  21.989  0.00  0.00    +0.000 C 
ATOM      9  C   UNL     1       2.399   3.583  20.606  0.00  0.00    +0.000 A 
ATOM     10  C   UNL     1       2.172   2.891  19.398  0.00  0.00    +0.000 A 
ATOM     11  C   UNL     1       2.533   3.768  18.399  0.00  0.00    +0.000 A 
ATOM     12  C   UNL     1       2.529   3.607  16.924  0.00  0.00    +0.000 C 
ATOM     13  N   UNL     1       2.972   4.898  19.043  0.00  0.00    +0.000 N 
ATOM     14  N   UNL     1       2.867   4.818  20.387  0.00  0.00    +0.000 NA
ENDBRANCH   7  13
ENDBRANCH   1   7
BRANCH   3  15
ATOM     15  C   UNL     1       7.664   7.523  17.674  0.00  0.00    +0.000 C 
BRANCH  15  16
ATOM     16  C   UNL     1       7.565   9.038  17.451  0.00  0.00    +0.000 C 
BRANCH  16  17
ATOM     17  C   UNL     1       8.573   9.734  18.348  0.00  0.00    +0.000 C 
ATOM     18  O   UNL     1       9.236   9.133  19.192  0.00  0.00    +0.000 OA
ATOM     19  N   UNL     1       8.710  11.089  18.127  0.00  0.00    +0.000 N 
ATOM     20  H   UNL     1       8.014  11.564  17.567  0.00  0.00    +0.000 HD
BRANCH  19  21
ATOM     21  C   UNL     1       9.611  11.876  18.966  0.00  0.00    +0.000 C 
ATOM     22  C   UNL     1      11.058  11.824  18.463  0.00  0.00    +0.000 C 
ATOM     23  C   UNL     1      11.310  12.710  17.245  0.00  0.00    +0.000 C 
ATOM     24  C   UNL     1      10.842  14.140  17.485  0.00  0.00    +0.000 C 
ATOM     25  C   UNL     1       9.373  14.181  17.890  0.00  0.00    +0.000 C 
ATOM     26  C   UNL     1       9.108  13.319  19.123  0.00  0.00    +0.000 C 
ENDBRANCH  19  21
ENDBRANCH  16  17
ENDBRANCH  15  16
ENDBRANCH   3  15
TORSDOF 6
ENDMDL
MODEL 7
REMARK VINA RESULT:      -7.0      1.253      1.815
REMARK  Name = 
REMARK  8 active torsions:
REMARK  status: ('A' for Active; 'I' for Inactive)
REMARK    1  A    between atoms: C_1  and  C_2
REMARK    2  A    between atoms: C_4  and  C_5
REMARK    3  A    between atoms: N_6  and  C_7
REMARK    4  A    between atoms: C_7  and  C_8
REMARK    5  A    between atoms: N_10  and  C_11
REMARK    6  A    between atoms: C_11  and  C_12
REMARK    7  A    between atoms: C_12  and  C_13
REMARK    8  A    between atoms: N_15  and  C_16
REMARK                            x       y       z     vdW  Elec       q    Type
REMARK                         _______ _______ _______ _____ _____    ______ ____
ROOT
ATOM      1  C   UNL     1       4.845   5.853  18.171  0.00  0.00    +0.000 C 
ATOM      2  C   UNL     1       5.667   5.490  16.906  0.00  0.00    +0.000 C 
ATOM      3  N   UNL     1       7.127   5.775  17.031  0.00  0.00    +0.000 NA
ATOM      4  C   UNL     1       7.598   5.125  18.277  0.00  0.00    +0.000 C 
ATOM      5  C   UNL     1       6.754   5.462  19.515  0.00  0.00    +0.000 C 
ATOM      6  O   UNL     1       5.380   5.124  19.297  0.00  0.00    +0.000 OA
ENDROOT
BRANCH   1   7
ATOM      7  C   UNL     1       3.373   5.487  17.978  0.00  0.00    +0.000 C 
BRANCH   7  13
ATOM      8  C   UNL     1       1.735   3.031  21.812  0.00  0.00    +0.000 C 
ATOM      9  C   UNL     1       2.286   3.256  20.454  0.00  0.00    +0.000 A 
ATOM     10  C   UNL     1       2.700   2.286  19.518  0.00  0.00    +0.000 A 
ATOM     11  C   UNL     1       3.145   2.997  18.424  0.00  0.00    +0.000 A 
ATOM     12  C   UNL     1       3.711   2.531  17.135  0.00  0.00    +0.000 C 
ATOM     13  N   UNL     1       3.002   4.319  18.764  0.00  0.00    +0.000 N 
ATOM     14  N   UNL     1       2.450   4.499  19.983  0.00  0.00    +0.000 NA
ENDBRANCH   7  13
ENDBRANCH   1   7
BRANCH   3  15
ATOM     15  C   UNL     1       7.351   7.236  17.011  0.00  0.00    +0.000 C 
BRANCH  15  16
ATOM     16  C   UNL     1       8.185   7.809  18.165  0.00  0.00    +0.000 C 
BRANCH  16  17
ATOM     17  C   UNL     1       8.212   9.322  18.048  0.00  0.00    +0.000 C 
ATOM     18  O   UNL     1       7.334   9.959  17.466  0.00  0.00    +0.000 OA
ATOM     19  N   UNL     1       9.282   9.934  18.668  0.00  0.00    +0.000 N 
ATOM     20  H   UNL     1      10.067   9.366  18.959  0.00  0.00    +0.000 HD
BRANCH  19  21
ATOM     21  C   UNL     1       9.445  11.384  18.576  0.00  0.00    +0.000 C 
ATOM     22  C   UNL     1       9.351  12.061  19.948  0.00  0.00    +0.000 C 
ATOM     23  C   UNL     1      10.614  11.904  20.791  0.00  0.00    +0.000 C 
ATOM     24  C   UNL     1      11.858  12.341  20.025  0.00  0.00    +0.000 C 
ATOM     25  C   UNL     1      11.989  11.587  18.706  0.00  0.00    +0.000 C 
ATOM     26  C   UNL     1      10.742  11.753  17.840  0.00  0.00    +0.000 C 
ENDBRANCH  19  21
ENDBRANCH  16  17
ENDBRANCH  15  16
ENDBRANCH   3  15
TORSDOF 6
ENDMDL
MODEL 8
REMARK VINA RESULT:      -7.0      1.318      2.193
REMARK  Name = 
REMARK  8 active torsions:
REMARK  status: ('A' for Active; 'I' for Inactive)
REMARK    1  A    between atoms: C_1  and  C_2
REMARK    2  A    between atoms: C_4  and  C_5
REMARK    3  A    between atoms: N_6  and  C_7
REMARK    4  A    between atoms: C_7  and  C_8
REMARK    5  A    between atoms: N_10  and  C_11
REMARK    6  A    between atoms: C_11  and  C_12
REMARK    7  A    between atoms: C_12  and  C_13
REMARK    8  A    between atoms: N_15  and  C_16
REMARK                            x       y       z     vdW  Elec       q    Type
REMARK                         _______ _______ _______ _____ _____    ______ ____
ROOT
ATOM      1  C   UNL     1       4.980   5.495  18.666  0.00  0.00    +0.000 C 
ATOM      2  C   UNL     1       5.566   5.557  17.231  0.00  0.00    +0.000 C 
ATOM      3  N   UNL     1       6.976   6.042  17.173  0.00  0.00    +0.000 NA
ATOM      4  C   UNL     1       7.764   5.221  18.122  0.00  0.00    +0.000 C 
ATOM      5  C   UNL     1       7.155   5.136  19.530  0.00  0.00    +0.000 C 
ATOM      6  O   UNL     1       5.815   4.634  19.470  0.00  0.00    +0.000 OA
ENDROOT
BRANCH   1   7
ATOM      7  C   UNL     1       3.553   4.944  18.640  0.00  0.00    +0.000 C 
BRANCH   7  13
ATOM      8  C   UNL     1       1.319   8.924  20.246  0.00  0.00    +0.000 C 
ATOM      9  C   UNL     1       1.688   7.491  20.165  0.00  0.00    +0.000 A 
ATOM     10  C   UNL     1       1.272   6.442  21.012  0.00  0.00    +0.000 A 
ATOM     11  C   UNL     1       1.899   5.312  20.532  0.00  0.00    +0.000 A 
ATOM     12  C   UNL     1       1.863   3.910  21.013  0.00  0.00    +0.000 C 
ATOM     13  N   UNL     1       2.657   5.736  19.469  0.00  0.00    +0.000 N 
ATOM     14  N   UNL     1       2.517   7.053  19.208  0.00  0.00    +0.000 NA
ENDBRANCH   7  13
ENDBRANCH   1   7
BRANCH   3  15
ATOM     15  C   UNL     1       7.016   7.488  17.475  0.00  0.00    +0.000 C 
BRANCH  15  16
ATOM     16  C   UNL     1       8.277   7.996  18.189  0.00  0.00    +0.000 C 
BRANCH  16  17
ATOM     17  C   UNL     1       8.302   9.512  18.123  0.00  0.00    +0.000 C 
ATOM     18  O   UNL     1       7.546  10.158  17.397  0.00  0.00    +0.000 OA
ATOM     19  N   UNL     1       9.219  10.115  18.958  0.00  0.00    +0.000 N 
ATOM     20  H   UNL     1       9.941   9.547  19.382  0.00  0.00    +0.000 HD
BRANCH  19  21
ATOM     21  C   UNL     1       9.374  11.569  18.941  0.00  0.00    +0.000 C 
ATOM     22  C   UNL     1       9.917  12.104  20.271  0.00  0.00    +0.000 C 
ATOM     23  C   UNL     1      11.417  11.878  20.449  0.00  0.00    +0.000 C 
ATOM     24  C   UNL     1      12.209  12.404  19.258  0.00  0.00    +0.000 C 
ATOM     25  C   UNL     1      11.720  11.787  17.953  0.00  0.00    +0.000 C 
ATOM     26  C   UNL     1      10.225  12.025  17.747  0.00  0.00    +0.000 C 
ENDBRANCH  19  21
ENDBRANCH  16  17
ENDBRANCH  15  16
ENDBRANCH   3  15
TORSDOF 6
ENDMDL
MODEL 9
REMARK VINA RESULT:      -7.0      3.873      7.484
REMARK  Name = 
REMARK  8 active torsions:
REMARK  status: ('A' for Active; 'I' for Inactive)
REMARK    1  A    between atoms: C_1  and  C_2
REMARK    2  A    between atoms: C_4  and  C_5
REMARK    3  A    between atoms: N_6  and  C_7
REMARK    4  A    between atoms: C_7  and  C_8
REMARK    5  A    between atoms: N_10  and  C_11
REMARK    6  A    between atoms: C_11  and  C_12
REMARK    7  A    between atoms: C_12  and  C_13
REMARK    8  A    between atoms: N_15  and  C_16
REMARK                            x       y       z     vdW  Elec       q    Type
REMARK                         _______ _______ _______ _____ _____    ______ ____
ROOT
ATOM      1  C   UNL     1       4.368   3.905  18.261  0.00  0.00    +0.000 C 
ATOM      2  C   UNL     1       4.064   4.124  19.767  0.00  0.00    +0.000 C 
ATOM      3  N   UNL     1       2.613   4.051  20.108  0.00  0.00    +0.000 NA
ATOM      4  C   UNL     1       2.094   2.778  19.557  0.00  0.00    +0.000 C 
ATOM      5  C   UNL     1       2.433   2.554  18.075  0.00  0.00    +0.000 C 
ATOM      6  O   UNL     1       3.848   2.617  17.866  0.00  0.00    +0.000 OA
ENDROOT
BRANCH   1   7
ATOM      7  C   UNL     1       5.876   3.947  18.006  0.00  0.00    +0.000 C 
BRANCH   7  13
ATOM      8  C   UNL     1       6.127   3.632  13.184  0.00  0.00    +0.000 C 
ATOM      9  C   UNL     1       6.286   4.221  14.535  0.00  0.00    +0.000 A 
ATOM     10  C   UNL     1       6.905   5.441  14.878  0.00  0.00    +0.000 A 
ATOM     11  C   UNL     1       6.809   5.528  16.251  0.00  0.00    +0.000 A 
ATOM     12  C   UNL     1       7.287   6.574  17.188  0.00  0.00    +0.000 C 
ATOM     13  N   UNL     1       6.179   4.376  16.648  0.00  0.00    +0.000 N 
ATOM     14  N   UNL     1       5.823   3.581  15.617  0.00  0.00    +0.000 NA
ENDBRANCH   7  13
ENDBRANCH   1   7
BRANCH   3  15
ATOM     15  C   UNL     1       1.920   5.245  19.582  0.00  0.00    +0.000 C 
BRANCH  15  16
ATOM     16  C   UNL     1       1.844   6.454  20.526  0.00  0.00    +0.000 C 
BRANCH  16  17
ATOM     17  C   UNL     1       1.907   7.726  19.700  0.00  0.00    +0.000 C 
ATOM     18  O   UNL     1       2.604   7.829  18.691  0.00  0.00    +0.000 OA
ATOM     19  N   UNL     1       1.102   8.752  20.151  0.00  0.00    +0.000 N 
ATOM     20  H   UNL     1       0.706   8.689  21.080  0.00  0.00    +0.000 HD
BRANCH  19  21
ATOM     21  C   UNL     1       1.121  10.046  19.470  0.00  0.00    +0.000 C 
ATOM     22  C   UNL     1       0.136  10.090  18.295  0.00  0.00    +0.000 C 
ATOM     23  C   UNL     1      -1.318  10.262  18.728  0.00  0.00    +0.000 C 
ATOM     24  C   UNL     1      -1.489  11.456  19.660  0.00  0.00    +0.000 C 
ATOM     25  C   UNL     1      -0.572  11.347  20.873  0.00  0.00    +0.000 C 
ATOM     26  C   UNL     1       0.890  11.199  20.458  0.00  0.00    +0.000 C 
ENDBRANCH  19  21
ENDBRANCH  16  17
ENDBRANCH  15  16
ENDBRANCH   3  15
TORSDOF 6
ENDMDL
