MODEL 1
REMARK VINA RESULT:      -6.3      0.000      0.000
REMARK  Name = 
REMARK  4 active torsions:
REMARK  status: ('A' for Active; 'I' for Inactive)
REMARK    1  A    between atoms: C_1  and  C_2
REMARK    2  A    between atoms: N_4  and  S_5
REMARK    3  A    between atoms: S_5  and  C_8
REMARK    4  A    between atoms: C_11  and  N_12
REMARK                            x       y       z     vdW  Elec       q    Type
REMARK                         _______ _______ _______ _____ _____    ______ ____
ROOT
ATOM      1  C   UNL     1       4.083   4.757  18.336  0.00  0.00    +0.000 A 
ATOM      2  C   UNL     1       3.166   3.987  17.616  0.00  0.00    +0.000 A 
ATOM      3  C   UNL     1       1.956   3.621  18.214  0.00  0.00    +0.000 A 
ATOM      4  C   UNL     1       1.638   4.045  19.509  0.00  0.00    +0.000 A 
ATOM      5  C   UNL     1       2.591   4.768  20.234  0.00  0.00    +0.000 A 
ATOM      6  C   UNL     1       3.808   5.131  19.652  0.00  0.00    +0.000 A 
ENDROOT
BRANCH   1   7
ATOM      7  S   UNL     1       5.639   5.196  17.605  0.00  0.00    +0.000 S 
ATOM      8  O   UNL     1       6.674   4.452  18.297  0.00  0.00    +0.000 OA
ATOM      9  O   UNL     1       5.721   6.632  17.478  0.00  0.00    +0.000 OA
BRANCH   7  13
ATOM     10  C   UNL     1       6.154   3.947  13.800  0.00  0.00    +0.000 C 
ATOM     11  C   UNL     1       6.490   4.649  15.083  0.00  0.00    +0.000 C 
ATOM     12  O   UNL     1       7.505   5.321  15.201  0.00  0.00    +0.000 OA
ATOM     13  N   UNL     1       5.537   4.498  16.096  0.00  0.00    +0.000 N 
ATOM     14  H   UNL     1       4.695   3.949  15.965  0.00  0.00    +0.000 HD
ENDBRANCH   7  13
ENDBRANCH   1   7
BRANCH   4  15
ATOM     15  N   UNL     1       0.499   3.551  20.151  0.00  0.00    +0.000 N 
ATOM     16  H   UNL     1       0.684   2.832  20.844  0.00  0.00    +0.000 HD
ATOM     17  H   UNL     1      -0.258   3.300  19.521  0.00  0.00    +0.000 HD
ENDBRANCH   4  15
TORSDOF 3
ENDMDL
MODEL 2
REMARK VINA RESULT:      -6.3      0.776      1.125
REMARK  Name = 
REMARK  4 active torsions:
REMARK  status: ('A' for Active; 'I' for Inactive)
REMARK    1  A    between atoms: C_1  and  C_2
REMARK    2  A    between atoms: N_4  and  S_5
REMARK    3  A    between atoms: S_5  and  C_8
REMARK    4  A    between atoms: C_11  and  N_12
REMARK                            x       y       z     vdW  Elec       q    Type
REMARK                         _______ _______ _______ _____ _____    ______ ____
ROOT
ATOM      1  C   UNL     1       4.103   4.412  18.359  0.00  0.00    +0.000 A 
ATOM      2  C   UNL     1       4.151   3.478  19.396  0.00  0.00    +0.000 A 
ATOM      3  C   UNL     1       2.957   3.010  19.956  0.00  0.00    +0.000 A 
ATOM      4  C   UNL     1       1.719   3.440  19.468  0.00  0.00    +0.000 A 
ATOM      5  C   UNL     1       1.692   4.417  18.468  0.00  0.00    +0.000 A 
ATOM      6  C   UNL     1       2.877   4.900  17.907  0.00  0.00    +0.000 A 
ENDROOT
BRANCH   1   7
ATOM      7  S   UNL     1       5.610   5.044  17.665  0.00  0.00    +0.000 S 
ATOM      8  O   UNL     1       6.712   4.392  18.345  0.00  0.00    +0.000 OA
ATOM      9  O   UNL     1       5.536   6.483  17.589  0.00  0.00    +0.000 OA
BRANCH   7  13
ATOM     10  C   UNL     1       6.309   3.979  13.834  0.00  0.00    +0.000 C 
ATOM     11  C   UNL     1       6.556   4.662  15.147  0.00  0.00    +0.000 C 
ATOM     12  O   UNL     1       7.506   5.414  15.311  0.00  0.00    +0.000 OA
ATOM     13  N   UNL     1       5.599   4.393  16.132  0.00  0.00    +0.000 N 
ATOM     14  H   UNL     1       4.811   3.779  15.963  0.00  0.00    +0.000 HD
ENDBRANCH   7  13
ENDBRANCH   1   7
BRANCH   4  15
ATOM     15  N   UNL     1       0.540   3.085  20.131  0.00  0.00    +0.000 N 
ATOM     16  H   UNL     1       0.658   2.875  21.117  0.00  0.00    +0.000 HD
ATOM     17  H   UNL     1      -0.015   2.386  19.647  0.00  0.00    +0.000 HD
ENDBRANCH   4  15
TORSDOF 3
ENDMDL
MODEL 3
REMARK VINA RESULT:      -6.2      2.316      2.998
REMARK  Name = 
REMARK  4 active torsions:
REMARK  status: ('A' for Active; 'I' for Inactive)
REMARK    1  A    between atoms: C_1  and  C_2
REMARK    2  A    between atoms: N_4  and  S_5
REMARK    3  A    between atoms: S_5  and  C_8
REMARK    4  A    between atoms: C_11  and  N_12
REMARK                            x       y       z     vdW  Elec       q    Type
REMARK                         _______ _______ _______ _____ _____    ______ ____
ROOT
ATOM      1  C   UNL     1       5.609   4.476  17.400  0.00  0.00    +0.000 A 
ATOM      2  C   UNL     1       4.488   4.205  16.612  0.00  0.00    +0.000 A 
ATOM      3  C   UNL     1       3.259   3.950  17.228  0.00  0.00    +0.000 A 
ATOM      4  C   UNL     1       3.131   3.997  18.621  0.00  0.00    +0.000 A 
ATOM      5  C   UNL     1       4.275   4.215  19.395  0.00  0.00    +0.000 A 
ATOM      6  C   UNL     1       5.511   4.461  18.792  0.00  0.00    +0.000 A 
ENDROOT
BRANCH   1   7
ATOM      7  S   UNL     1       7.183   4.763  16.633  0.00  0.00    +0.000 S 
ATOM      8  O   UNL     1       7.045   4.460  15.222  0.00  0.00    +0.000 OA
ATOM      9  O   UNL     1       8.221   4.143  17.423  0.00  0.00    +0.000 OA
BRANCH   7  13
ATOM     10  C   UNL     1       7.781   8.620  17.663  0.00  0.00    +0.000 C 
ATOM     11  C   UNL     1       7.775   7.129  17.830  0.00  0.00    +0.000 C 
ATOM     12  O   UNL     1       8.111   6.598  18.879  0.00  0.00    +0.000 OA
ATOM     13  N   UNL     1       7.325   6.420  16.711  0.00  0.00    +0.000 N 
ATOM     14  H   UNL     1       7.036   6.887  15.859  0.00  0.00    +0.000 HD
ENDBRANCH   7  13
ENDBRANCH   1   7
BRANCH   4  15
ATOM     15  N   UNL     1       1.939   3.594  19.232  0.00  0.00    +0.000 N 
ATOM     16  H   UNL     1       1.097   3.912  18.763  0.00  0.00    +0.000 HD
ATOM     17  H   UNL     1       1.911   3.752  20.235  0.00  0.00    +0.000 HD
ENDBRANCH   4  15
TORSDOF 3
ENDMDL
MODEL 4
REMARK VINA RESULT:      -6.2      2.510      3.286
REMARK  Name = 
REMARK  4 active torsions:
REMARK  status: ('A' for Active; 'I' for Inactive)
REMARK    1  A    between atoms: C_1  and  C_2
REMARK    2  A    between atoms: N_4  and  S_5
REMARK    3  A    between atoms: S_5  and  C_8
REMARK    4  A    between atoms: C_11  and  N_12
REMARK                            x       y       z     vdW  Elec       q    Type
REMARK                         _______ _______ _______ _____ _____    ______ ____
ROOT
ATOM      1  C   UNL     1       5.423   5.244  17.399  0.00  0.00    +0.000 A 
ATOM      2  C   UNL     1       5.466   4.303  18.430  0.00  0.00    +0.000 A 
ATOM      3  C   UNL     1       4.364   4.162  19.279  0.00  0.00    +0.000 A 
ATOM      4  C   UNL     1       3.208   4.927  19.087  0.00  0.00    +0.000 A 
ATOM      5  C   UNL     1       3.204   5.902  18.085  0.00  0.00    +0.000 A 
ATOM      6  C   UNL     1       4.303   6.060  17.237  0.00  0.00    +0.000 A 
ENDROOT
BRANCH   1   7
ATOM      7  S   UNL     1       6.829   5.461  16.337  0.00  0.00    +0.000 S 
ATOM      8  O   UNL     1       6.343   5.513  14.972  0.00  0.00    +0.000 OA
ATOM      9  O   UNL     1       7.865   4.530  16.718  0.00  0.00    +0.000 OA
BRANCH   7  13
ATOM     10  C   UNL     1       8.193   8.884  17.986  0.00  0.00    +0.000 C 
ATOM     11  C   UNL     1       7.877   7.420  17.901  0.00  0.00    +0.000 C 
ATOM     12  O   UNL     1       8.077   6.663  18.841  0.00  0.00    +0.000 OA
ATOM     13  N   UNL     1       7.308   7.016  16.688  0.00  0.00    +0.000 N 
ATOM     14  H   UNL     1       7.136   7.669  15.932  0.00  0.00    +0.000 HD
ENDBRANCH   7  13
ENDBRANCH   1   7
BRANCH   4  15
ATOM     15  N   UNL     1       2.174   4.887  20.029  0.00  0.00    +0.000 N 
ATOM     16  H   UNL     1       1.817   3.957  20.223  0.00  0.00    +0.000 HD
ATOM     17  H   UNL     1       1.434   5.563  19.863  0.00  0.00    +0.000 HD
ENDBRANCH   4  15
TORSDOF 3
ENDMDL
MODEL 5
REMARK VINA RESULT:      -6.2      1.387      2.011
REMARK  Name = 
REMARK  4 active torsions:
REMARK  status: ('A' for Active; 'I' for Inactive)
REMARK    1  A    between atoms: C_1  and  C_2
REMARK    2  A    between atoms: N_4  and  S_5
REMARK    3  A    between atoms: S_5  and  C_8
REMARK    4  A    between atoms: C_11  and  N_12
REMARK                            x       y       z     vdW  Elec       q    Type
REMARK                         _______ _______ _______ _____ _____    ______ ____
ROOT
ATOM      1  C   UNL     1       5.406   4.806  17.501  0.00  0.00    +0.000 A 
ATOM      2  C   UNL     1       5.326   5.295  18.807  0.00  0.00    +0.000 A 
ATOM      3  C   UNL     1       4.171   5.060  19.560  0.00  0.00    +0.000 A 
ATOM      4  C   UNL     1       3.112   4.312  19.034  0.00  0.00    +0.000 A 
ATOM      5  C   UNL     1       3.187   3.878  17.706  0.00  0.00    +0.000 A 
ATOM      6  C   UNL     1       4.331   4.116  16.940  0.00  0.00    +0.000 A 
ENDROOT
BRANCH   1   7
ATOM      7  S   UNL     1       6.850   5.131  16.521  0.00  0.00    +0.000 S 
ATOM      8  O   UNL     1       7.945   4.368  17.088  0.00  0.00    +0.000 OA
ATOM      9  O   UNL     1       6.973   6.553  16.305  0.00  0.00    +0.000 OA
BRANCH   7  13
ATOM     10  C   UNL     1       6.568   3.856  12.700  0.00  0.00    +0.000 C 
ATOM     11  C   UNL     1       7.090   4.658  13.856  0.00  0.00    +0.000 C 
ATOM     12  O   UNL     1       7.950   5.515  13.707  0.00  0.00    +0.000 OA
ATOM     13  N   UNL     1       6.488   4.369  15.085  0.00  0.00    +0.000 N 
ATOM     14  H   UNL     1       5.764   3.665  15.176  0.00  0.00    +0.000 HD
ENDBRANCH   7  13
ENDBRANCH   1   7
BRANCH   4  15
ATOM     15  N   UNL     1       1.906   4.211  19.735  0.00  0.00    +0.000 N 
ATOM     16  H   UNL     1       1.554   3.264  19.833  0.00  0.00    +0.000 HD
ATOM     17  H   UNL     1       1.191   4.864  19.429  0.00  0.00    +0.000 HD
ENDBRANCH   4  15
TORSDOF 3
ENDMDL
MODEL 6
REMARK VINA RESULT:      -6.2      2.503      3.241
REMARK  Name = 
REMARK  4 active torsions:
REMARK  status: ('A' for Active; 'I' for Inactive)
REMARK    1  A    between atoms: C_1  and  C_2
REMARK    2  A    between atoms: N_4  and  S_5
REMARK    3  A    between atoms: S_5  and  C_8
REMARK    4  A    between atoms: C_11  and  N_12
REMARK                            x       y       z     vdW  Elec       q    Type
REMARK                         _______ _______ _______ _____ _____    ______ ____
ROOT
ATOM      1  C   UNL     1       5.361   5.310  17.339  0.00  0.00    +0.000 A 
ATOM      2  C   UNL     1       4.322   6.238  17.246  0.00  0.00    +0.000 A 
ATOM      3  C   UNL     1       3.177   6.071  18.032  0.00  0.00    +0.000 A 
ATOM      4  C   UNL     1       3.076   5.006  18.935  0.00  0.00    +0.000 A 
ATOM      5  C   UNL     1       4.101   4.057  18.973  0.00  0.00    +0.000 A 
ATOM      6  C   UNL     1       5.245   4.207  18.185  0.00  0.00    +0.000 A 
ENDROOT
BRANCH   1   7
ATOM      7  S   UNL     1       6.802   5.487  16.318  0.00  0.00    +0.000 S 
ATOM      8  O   UNL     1       6.359   5.532  14.938  0.00  0.00    +0.000 OA
ATOM      9  O   UNL     1       7.808   4.542  16.741  0.00  0.00    +0.000 OA
BRANCH   7  13
ATOM     10  C   UNL     1       8.202   8.900  17.959  0.00  0.00    +0.000 C 
ATOM     11  C   UNL     1       7.867   7.439  17.879  0.00  0.00    +0.000 C 
ATOM     12  O   UNL     1       8.054   6.684  18.823  0.00  0.00    +0.000 OA
ATOM     13  N   UNL     1       7.299   7.038  16.665  0.00  0.00    +0.000 N 
ATOM     14  H   UNL     1       7.140   7.689  15.905  0.00  0.00    +0.000 HD
ENDBRANCH   7  13
ENDBRANCH   1   7
BRANCH   4  15
ATOM     15  N   UNL     1       1.872   4.763  19.603  0.00  0.00    +0.000 N 
ATOM     16  H   UNL     1       1.040   4.959  19.056  0.00  0.00    +0.000 HD
ATOM     17  H   UNL     1       1.827   5.159  20.537  0.00  0.00    +0.000 HD
ENDBRANCH   4  15
TORSDOF 3
ENDMDL
MODEL 7
REMARK VINA RESULT:      -6.1      2.650      5.476
REMARK  Name = 
REMARK  4 active torsions:
REMARK  status: ('A' for Active; 'I' for Inactive)
REMARK    1  A    between atoms: C_1  and  C_2
REMARK    2  A    between atoms: N_4  and  S_5
REMARK    3  A    between atoms: S_5  and  C_8
REMARK    4  A    between atoms: C_11  and  N_12
REMARK                            x       y       z     vdW  Elec       q    Type
REMARK                         _______ _______ _______ _____ _____    ______ ____
ROOT
ATOM      1  C   UNL     1       5.329   4.249  17.762  0.00  0.00    +0.000 A 
ATOM      2  C   UNL     1       4.680   4.261  16.526  0.00  0.00    +0.000 A 
ATOM      3  C   UNL     1       5.406   4.567  15.370  0.00  0.00    +0.000 A 
ATOM      4  C   UNL     1       6.780   4.827  15.434  0.00  0.00    +0.000 A 
ATOM      5  C   UNL     1       7.401   4.865  16.686  0.00  0.00    +0.000 A 
ATOM      6  C   UNL     1       6.684   4.571  17.849  0.00  0.00    +0.000 A 
ENDROOT
BRANCH   1   7
ATOM      7  S   UNL     1       4.413   3.901  19.242  0.00  0.00    +0.000 S 
ATOM      8  O   UNL     1       4.085   5.169  19.863  0.00  0.00    +0.000 OA
ATOM      9  O   UNL     1       5.085   2.864  19.988  0.00  0.00    +0.000 OA
BRANCH   7  13
ATOM     10  C   UNL     1       0.741   2.330  18.650  0.00  0.00    +0.000 C 
ATOM     11  C   UNL     1       1.927   2.820  19.428  0.00  0.00    +0.000 C 
ATOM     12  O   UNL     1       1.972   2.744  20.648  0.00  0.00    +0.000 OA
ATOM     13  N   UNL     1       2.970   3.324  18.643  0.00  0.00    +0.000 N 
ATOM     14  H   UNL     1       2.913   3.359  17.632  0.00  0.00    +0.000 HD
ENDBRANCH   7  13
ENDBRANCH   1   7
BRANCH   4  15
ATOM     15  N   UNL     1       7.463   5.278  14.300  0.00  0.00    +0.000 N 
ATOM     16  H   UNL     1       8.374   4.852  14.160  0.00  0.00    +0.000 HD
ATOM     17  H   UNL     1       7.485   6.289  14.202  0.00  0.00    +0.000 HD
ENDBRANCH   4  15
TORSDOF 3
ENDMDL
MODEL 8
REMARK VINA RESULT:      -6.1      3.241      5.687
REMARK  Name = 
REMARK  4 active torsions:
REMARK  status: ('A' for Active; 'I' for Inactive)
REMARK    1  A    between atoms: C_1  and  C_2
REMARK    2  A    between atoms: N_4  and  S_5
REMARK    3  A    between atoms: S_5  and  C_8
REMARK    4  A    between atoms: C_11  and  N_12
REMARK                            x       y       z     vdW  Elec       q    Type
REMARK                         _______ _______ _______ _____ _____    ______ ____
ROOT
ATOM      1  C   UNL     1       3.816   4.440  17.319  0.00  0.00    +0.000 A 
ATOM      2  C   UNL     1       4.884   3.736  16.759  0.00  0.00    +0.000 A 
ATOM      3  C   UNL     1       6.079   4.408  16.479  0.00  0.00    +0.000 A 
ATOM      4  C   UNL     1       6.228   5.765  16.786  0.00  0.00    +0.000 A 
ATOM      5  C   UNL     1       5.130   6.465  17.295  0.00  0.00    +0.000 A 
ATOM      6  C   UNL     1       3.927   5.808  17.569  0.00  0.00    +0.000 A 
ENDROOT
BRANCH   1   7
ATOM      7  S   UNL     1       2.281   3.610  17.642  0.00  0.00    +0.000 S 
ATOM      8  O   UNL     1       2.391   2.264  17.113  0.00  0.00    +0.000 OA
ATOM      9  O   UNL     1       1.183   4.466  17.261  0.00  0.00    +0.000 OA
BRANCH   7  13
ATOM     10  C   UNL     1       1.536   2.837  21.535  0.00  0.00    +0.000 C 
ATOM     11  C   UNL     1       1.285   2.854  20.055  0.00  0.00    +0.000 C 
ATOM     12  O   UNL     1       0.246   2.424  19.574  0.00  0.00    +0.000 OA
ATOM     13  N   UNL     1       2.311   3.430  19.298  0.00  0.00    +0.000 N 
ATOM     14  H   UNL     1       3.155   3.795  19.725  0.00  0.00    +0.000 HD
ENDBRANCH   7  13
ENDBRANCH   1   7
BRANCH   4  15
ATOM     15  N   UNL     1       7.367   6.460  16.366  0.00  0.00    +0.000 N 
ATOM     16  H   UNL     1       7.181   7.225  15.725  0.00  0.00    +0.000 HD
ATOM     17  H   UNL     1       8.126   5.863  16.052  0.00  0.00    +0.000 HD
ENDBRANCH   4  15
TORSDOF 3
ENDMDL
MODEL 9
REMARK VINA RESULT:      -6.1      2.996      5.652
REMARK  Name = 
REMARK  4 active torsions:
REMARK  status: ('A' for Active; 'I' for Inactive)
REMARK    1  A    between atoms: C_1  and  C_2
REMARK    2  A    between atoms: N_4  and  S_5
REMARK    3  A    between atoms: S_5  and  C_8
REMARK    4  A    between atoms: C_11  and  N_12
REMARK                            x       y       z     vdW  Elec       q    Type
REMARK                         _______ _______ _______ _____ _____    ______ ____
ROOT
ATOM      1  C   UNL     1       3.971   5.096  17.300  0.00  0.00    +0.000 A 
ATOM      2  C   UNL     1       4.461   3.934  16.701  0.00  0.00    +0.000 A 
ATOM      3  C   UNL     1       5.657   3.984  15.978  0.00  0.00    +0.000 A 
ATOM      4  C   UNL     1       6.385   5.175  15.878  0.00  0.00    +0.000 A 
ATOM      5  C   UNL     1       5.852   6.340  16.437  0.00  0.00    +0.000 A 
ATOM      6  C   UNL     1       4.652   6.305  17.153  0.00  0.00    +0.000 A 
ENDROOT
BRANCH   1   7
ATOM      7  S   UNL     1       2.434   5.056  18.188  0.00  0.00    +0.000 S 
ATOM      8  O   UNL     1       1.483   4.315  17.382  0.00  0.00    +0.000 OA
ATOM      9  O   UNL     1       2.123   6.382  18.666  0.00  0.00    +0.000 OA
BRANCH   7  13
ATOM     10  C   UNL     1       2.436   2.781  21.523  0.00  0.00    +0.000 C 
ATOM     11  C   UNL     1       1.865   3.657  20.446  0.00  0.00    +0.000 C 
ATOM     12  O   UNL     1       0.694   4.007  20.456  0.00  0.00    +0.000 OA
ATOM     13  N   UNL     1       2.787   4.058  19.473  0.00  0.00    +0.000 N 
ATOM     14  H   UNL     1       3.758   3.766  19.499  0.00  0.00    +0.000 HD
ENDBRANCH   7  13
ENDBRANCH   1   7
BRANCH   4  15
ATOM     15  N   UNL     1       7.496   5.251  15.031  0.00  0.00    +0.000 N 
ATOM     16  H   UNL     1       8.116   4.448  15.077  0.00  0.00    +0.000 HD
ATOM     17  H   UNL     1       7.996   6.134  15.078  0.00  0.00    +0.000 HD
ENDBRANCH   4  15
TORSDOF 3
ENDMDL
