MODEL 1
REMARK VINA RESULT:      -6.1      0.000      0.000
REMARK  Name = 
REMARK  5 active torsions:
REMARK  status: ('A' for Active; 'I' for Inactive)
REMARK    1  A    between atoms: C_1  and  O_2
REMARK    2  A    between atoms: O_2  and  C_3
REMARK    3  A    between atoms: C_3  and  C_5
REMARK    4  A    between atoms: N_7  and  O_8
REMARK    5  A    between atoms: O_8  and  C_9
REMARK                            x       y       z     vdW  Elec       q    Type
REMARK                         _______ _______ _______ _____ _____    ______ ____
ROOT
ATOM      1  C   UNL     1       5.545   4.571  16.714  0.00  0.00    +0.000 A 
ATOM      2  C   UNL     1       4.935   3.335  16.834  0.00  0.00    +0.000 A 
ATOM      3  N   UNL     1       3.701   3.506  17.382  0.00  0.00    +0.000 N 
ATOM      4  C   UNL     1       3.449   4.846  17.584  0.00  0.00    +0.000 A 
ATOM      5  C   UNL     1       2.305   5.501  18.063  0.00  0.00    +0.000 A 
ATOM      6  C   UNL     1       2.324   6.896  18.130  0.00  0.00    +0.000 A 
ATOM      7  C   UNL     1       3.451   7.613  17.738  0.00  0.00    +0.000 A 
ATOM      8  C   UNL     1       4.586   6.951  17.263  0.00  0.00    +0.000 A 
ATOM      9  C   UNL     1       4.594   5.540  17.177  0.00  0.00    +0.000 A 
ENDROOT
BRANCH   1  10
ATOM     10  C   UNL     1       6.885   4.799  16.187  0.00  0.00    +0.000 C 
ATOM     11  O   UNL     1       7.914   4.459  16.759  0.00  0.00    +0.000 OA
BRANCH  10  13
ATOM     12  C   UNL     1       6.707   4.567  13.849  0.00  0.00    +0.000 C 
ATOM     13  O   UNL     1       6.857   5.433  14.975  0.00  0.00    +0.000 OA
ENDBRANCH  10  13
ENDBRANCH   1  10
BRANCH   3  14
ATOM     14  O   UNL     1       2.721   2.512  17.554  0.00  0.00    +0.000 OA
ATOM     15  C   UNL     1       2.880   1.840  18.797  0.00  0.00    +0.000 C 
ENDBRANCH   3  14
TORSDOF 3
ENDMDL
MODEL 2
REMARK VINA RESULT:      -6.1      0.569      1.403
REMARK  Name = 
REMARK  5 active torsions:
REMARK  status: ('A' for Active; 'I' for Inactive)
REMARK    1  A    between atoms: C_1  and  O_2
REMARK    2  A    between atoms: O_2  and  C_3
REMARK    3  A    between atoms: C_3  and  C_5
REMARK    4  A    between atoms: N_7  and  O_8
REMARK    5  A    between atoms: O_8  and  C_9
REMARK                            x       y       z     vdW  Elec       q    Type
REMARK                         _______ _______ _______ _____ _____    ______ ____
ROOT
ATOM      1  C   UNL     1       5.466   4.651  16.526  0.00  0.00    +0.000 A 
ATOM      2  C   UNL     1       4.899   3.395  16.646  0.00  0.00    +0.000 A 
ATOM      3  N   UNL     1       3.696   3.515  17.272  0.00  0.00    +0.000 N 
ATOM      4  C   UNL     1       3.420   4.841  17.527  0.00  0.00    +0.000 A 
ATOM      5  C   UNL     1       2.289   5.449  18.093  0.00  0.00    +0.000 A 
ATOM      6  C   UNL     1       2.274   6.842  18.199  0.00  0.00    +0.000 A 
ATOM      7  C   UNL     1       3.354   7.602  17.761  0.00  0.00    +0.000 A 
ATOM      8  C   UNL     1       4.477   6.986  17.200  0.00  0.00    +0.000 A 
ATOM      9  C   UNL     1       4.518   5.580  17.072  0.00  0.00    +0.000 A 
ENDROOT
BRANCH   1  10
ATOM     10  C   UNL     1       6.765   4.933  15.926  0.00  0.00    +0.000 C 
ATOM     11  O   UNL     1       6.918   5.583  14.898  0.00  0.00    +0.000 OA
BRANCH  10  13
ATOM     12  C   UNL     1       7.828   4.779  18.022  0.00  0.00    +0.000 C 
ATOM     13  O   UNL     1       7.791   4.389  16.649  0.00  0.00    +0.000 OA
ENDBRANCH  10  13
ENDBRANCH   1  10
BRANCH   3  14
ATOM     14  O   UNL     1       2.755   2.489  17.473  0.00  0.00    +0.000 OA
ATOM     15  C   UNL     1       3.057   1.735  18.641  0.00  0.00    +0.000 C 
ENDBRANCH   3  14
TORSDOF 3
ENDMDL
MODEL 3
REMARK VINA RESULT:      -6.0      1.795      3.242
REMARK  Name = 
REMARK  5 active torsions:
REMARK  status: ('A' for Active; 'I' for Inactive)
REMARK    1  A    between atoms: C_1  and  O_2
REMARK    2  A    between atoms: O_2  and  C_3
REMARK    3  A    between atoms: C_3  and  C_5
REMARK    4  A    between atoms: N_7  and  O_8
REMARK    5  A    between atoms: O_8  and  C_9
REMARK                            x       y       z     vdW  Elec       q    Type
REMARK                         _______ _______ _______ _____ _____    ______ ____
ROOT
ATOM      1  C   UNL     1       5.054   5.402  17.109  0.00  0.00    +0.000 A 
ATOM      2  C   UNL     1       4.581   6.637  17.515  0.00  0.00    +0.000 A 
ATOM      3  N   UNL     1       3.310   6.489  17.979  0.00  0.00    +0.000 N 
ATOM      4  C   UNL     1       2.938   5.162  17.941  0.00  0.00    +0.000 A 
ATOM      5  C   UNL     1       1.761   4.528  18.365  0.00  0.00    +0.000 A 
ATOM      6  C   UNL     1       1.676   3.140  18.230  0.00  0.00    +0.000 A 
ATOM      7  C   UNL     1       2.728   2.411  17.683  0.00  0.00    +0.000 A 
ATOM      8  C   UNL     1       3.896   3.053  17.263  0.00  0.00    +0.000 A 
ATOM      9  C   UNL     1       4.015   4.455  17.394  0.00  0.00    +0.000 A 
ENDROOT
BRANCH   1  10
ATOM     10  C   UNL     1       6.372   5.154  16.535  0.00  0.00    +0.000 C 
ATOM     11  O   UNL     1       7.310   4.674  17.159  0.00  0.00    +0.000 OA
BRANCH  10  13
ATOM     12  C   UNL     1       6.278   4.443  14.292  0.00  0.00    +0.000 C 
ATOM     13  O   UNL     1       6.432   5.519  15.218  0.00  0.00    +0.000 OA
ENDBRANCH  10  13
ENDBRANCH   1  10
BRANCH   3  14
ATOM     14  O   UNL     1       2.526   7.482  18.596  0.00  0.00    +0.000 OA
ATOM     15  C   UNL     1       2.309   8.583  17.722  0.00  0.00    +0.000 C 
ENDBRANCH   3  14
TORSDOF 3
ENDMDL
MODEL 4
REMARK VINA RESULT:      -6.0      2.183      3.475
REMARK  Name = 
REMARK  5 active torsions:
REMARK  status: ('A' for Active; 'I' for Inactive)
REMARK    1  A    between atoms: C_1  and  O_2
REMARK    2  A    between atoms: O_2  and  C_3
REMARK    3  A    between atoms: C_3  and  C_5
REMARK    4  A    between atoms: N_7  and  O_8
REMARK    5  A    between atoms: O_8  and  C_9
REMARK                            x       y       z     vdW  Elec       q    Type
REMARK                         _______ _______ _______ _____ _____    ______ ____
ROOT
ATOM      1  C   UNL     1       6.792   5.136  18.245  0.00  0.00    +0.000 A 
ATOM      2  C   UNL     1       7.199   4.608  17.033  0.00  0.00    +0.000 A 
ATOM      3  N   UNL     1       6.122   4.052  16.413  0.00  0.00    +0.000 N 
ATOM      4  C   UNL     1       4.984   4.246  17.166  0.00  0.00    +0.000 A 
ATOM      5  C   UNL     1       3.647   3.907  16.909  0.00  0.00    +0.000 A 
ATOM      6  C   UNL     1       2.684   4.265  17.856  0.00  0.00    +0.000 A 
ATOM      7  C   UNL     1       3.045   4.932  19.023  0.00  0.00    +0.000 A 
ATOM      8  C   UNL     1       4.380   5.264  19.270  0.00  0.00    +0.000 A 
ATOM      9  C   UNL     1       5.376   4.922  18.327  0.00  0.00    +0.000 A 
ENDROOT
BRANCH   1  10
ATOM     10  C   UNL     1       7.664   5.800  19.207  0.00  0.00    +0.000 C 
ATOM     11  O   UNL     1       7.775   5.460  20.379  0.00  0.00    +0.000 OA
BRANCH  10  13
ATOM     12  C   UNL     1       7.556   7.692  17.807  0.00  0.00    +0.000 C 
ATOM     13  O   UNL     1       8.344   6.845  18.644  0.00  0.00    +0.000 OA
ENDBRANCH  10  13
ENDBRANCH   1  10
BRANCH   3  14
ATOM     14  O   UNL     1       6.092   3.521  15.110  0.00  0.00    +0.000 OA
ATOM     15  C   UNL     1       6.592   4.456  14.161  0.00  0.00    +0.000 C 
ENDBRANCH   3  14
TORSDOF 3
ENDMDL
MODEL 5
REMARK VINA RESULT:      -6.0      1.952      3.504
REMARK  Name = 
REMARK  5 active torsions:
REMARK  status: ('A' for Active; 'I' for Inactive)
REMARK    1  A    between atoms: C_1  and  O_2
REMARK    2  A    between atoms: O_2  and  C_3
REMARK    3  A    between atoms: C_3  and  C_5
REMARK    4  A    between atoms: N_7  and  O_8
REMARK    5  A    between atoms: O_8  and  C_9
REMARK                            x       y       z     vdW  Elec       q    Type
REMARK                         _______ _______ _______ _____ _____    ______ ____
ROOT
ATOM      1  C   UNL     1       4.975   5.679  16.757  0.00  0.00    +0.000 A 
ATOM      2  C   UNL     1       4.529   6.897  17.236  0.00  0.00    +0.000 A 
ATOM      3  N   UNL     1       3.342   6.710  17.876  0.00  0.00    +0.000 N 
ATOM      4  C   UNL     1       3.008   5.373  17.881  0.00  0.00    +0.000 A 
ATOM      5  C   UNL     1       1.923   4.702  18.465  0.00  0.00    +0.000 A 
ATOM      6  C   UNL     1       1.859   3.313  18.334  0.00  0.00    +0.000 A 
ATOM      7  C   UNL     1       2.843   2.617  17.637  0.00  0.00    +0.000 A 
ATOM      8  C   UNL     1       3.920   3.295  17.059  0.00  0.00    +0.000 A 
ATOM      9  C   UNL     1       4.015   4.700  17.181  0.00  0.00    +0.000 A 
ENDROOT
BRANCH   1  10
ATOM     10  C   UNL     1       6.203   5.472  16.000  0.00  0.00    +0.000 C 
ATOM     11  O   UNL     1       6.233   5.141  14.821  0.00  0.00    +0.000 OA
BRANCH  10  13
ATOM     12  C   UNL     1       7.623   4.661  17.695  0.00  0.00    +0.000 C 
ATOM     13  O   UNL     1       7.317   5.697  16.761  0.00  0.00    +0.000 OA
ENDBRANCH  10  13
ENDBRANCH   1  10
BRANCH   3  14
ATOM     14  O   UNL     1       2.626   7.677  18.605  0.00  0.00    +0.000 OA
ATOM     15  C   UNL     1       2.206   8.748  17.767  0.00  0.00    +0.000 C 
ENDBRANCH   3  14
TORSDOF 3
ENDMDL
MODEL 6
REMARK VINA RESULT:      -6.0      2.001      3.600
REMARK  Name = 
REMARK  5 active torsions:
REMARK  status: ('A' for Active; 'I' for Inactive)
REMARK    1  A    between atoms: C_1  and  O_2
REMARK    2  A    between atoms: O_2  and  C_3
REMARK    3  A    between atoms: C_3  and  C_5
REMARK    4  A    between atoms: N_7  and  O_8
REMARK    5  A    between atoms: O_8  and  C_9
REMARK                            x       y       z     vdW  Elec       q    Type
REMARK                         _______ _______ _______ _____ _____    ______ ____
ROOT
ATOM      1  C   UNL     1       5.078   4.962  17.617  0.00  0.00    +0.000 A 
ATOM      2  C   UNL     1       4.538   6.234  17.677  0.00  0.00    +0.000 A 
ATOM      3  N   UNL     1       3.189   6.131  17.826  0.00  0.00    +0.000 N 
ATOM      4  C   UNL     1       2.818   4.806  17.922  0.00  0.00    +0.000 A 
ATOM      5  C   UNL     1       1.562   4.220  18.139  0.00  0.00    +0.000 A 
ATOM      6  C   UNL     1       1.492   2.828  18.224  0.00  0.00    +0.000 A 
ATOM      7  C   UNL     1       2.636   2.047  18.090  0.00  0.00    +0.000 A 
ATOM      8  C   UNL     1       3.882   2.641  17.873  0.00  0.00    +0.000 A 
ATOM      9  C   UNL     1       3.986   4.047  17.790  0.00  0.00    +0.000 A 
ENDROOT
BRANCH   1  10
ATOM     10  C   UNL     1       6.494   4.658  17.442  0.00  0.00    +0.000 C 
ATOM     11  O   UNL     1       7.036   4.525  16.352  0.00  0.00    +0.000 OA
BRANCH  10  13
ATOM     12  C   UNL     1       7.832   5.721  19.063  0.00  0.00    +0.000 C 
ATOM     13  O   UNL     1       7.144   4.544  18.641  0.00  0.00    +0.000 OA
ENDBRANCH  10  13
ENDBRANCH   1  10
BRANCH   3  14
ATOM     14  O   UNL     1       2.291   7.191  18.049  0.00  0.00    +0.000 OA
ATOM     15  C   UNL     1       2.247   7.548  19.426  0.00  0.00    +0.000 C 
ENDBRANCH   3  14
TORSDOF 3
ENDMDL
MODEL 7
REMARK VINA RESULT:      -5.9      1.577      1.617
REMARK  Name = 
REMARK  5 active torsions:
REMARK  status: ('A' for Active; 'I' for Inactive)
REMARK    1  A    between atoms: C_1  and  O_2
REMARK    2  A    between atoms: O_2  and  C_3
REMARK    3  A    between atoms: C_3  and  C_5
REMARK    4  A    between atoms: N_7  and  O_8
REMARK    5  A    between atoms: O_8  and  C_9
REMARK                            x       y       z     vdW  Elec       q    Type
REMARK                         _______ _______ _______ _____ _____    ______ ____
ROOT
ATOM      1  C   UNL     1       5.737   5.464  17.325  0.00  0.00    +0.000 A 
ATOM      2  C   UNL     1       5.974   4.305  18.042  0.00  0.00    +0.000 A 
ATOM      3  N   UNL     1       5.051   4.207  19.037  0.00  0.00    +0.000 N 
ATOM      4  C   UNL     1       4.161   5.258  18.967  0.00  0.00    +0.000 A 
ATOM      5  C   UNL     1       3.021   5.544  19.733  0.00  0.00    +0.000 A 
ATOM      6  C   UNL     1       2.278   6.682  19.408  0.00  0.00    +0.000 A 
ATOM      7  C   UNL     1       2.665   7.509  18.358  0.00  0.00    +0.000 A 
ATOM      8  C   UNL     1       3.803   7.215  17.602  0.00  0.00    +0.000 A 
ATOM      9  C   UNL     1       4.570   6.067  17.902  0.00  0.00    +0.000 A 
ENDROOT
BRANCH   1  10
ATOM     10  C   UNL     1       6.528   5.927  16.191  0.00  0.00    +0.000 C 
ATOM     11  O   UNL     1       7.604   6.502  16.296  0.00  0.00    +0.000 OA
BRANCH  10  13
ATOM     12  C   UNL     1       6.466   4.511  14.310  0.00  0.00    +0.000 C 
ATOM     13  O   UNL     1       5.926   5.640  14.996  0.00  0.00    +0.000 OA
ENDBRANCH  10  13
ENDBRANCH   1  10
BRANCH   3  14
ATOM     14  O   UNL     1       4.875   3.116  19.907  0.00  0.00    +0.000 OA
ATOM     15  C   UNL     1       4.039   2.123  19.326  0.00  0.00    +0.000 C 
ENDBRANCH   3  14
TORSDOF 3
ENDMDL
MODEL 8
REMARK VINA RESULT:      -5.9      1.743      2.266
REMARK  Name = 
REMARK  5 active torsions:
REMARK  status: ('A' for Active; 'I' for Inactive)
REMARK    1  A    between atoms: C_1  and  O_2
REMARK    2  A    between atoms: O_2  and  C_3
REMARK    3  A    between atoms: C_3  and  C_5
REMARK    4  A    between atoms: N_7  and  O_8
REMARK    5  A    between atoms: O_8  and  C_9
REMARK                            x       y       z     vdW  Elec       q    Type
REMARK                         _______ _______ _______ _____ _____    ______ ____
ROOT
ATOM      1  C   UNL     1       5.027   5.577  17.382  0.00  0.00    +0.000 A 
ATOM      2  C   UNL     1       5.295   4.273  17.759  0.00  0.00    +0.000 A 
ATOM      3  N   UNL     1       4.504   3.952  18.819  0.00  0.00    +0.000 N 
ATOM      4  C   UNL     1       3.669   5.003  19.128  0.00  0.00    +0.000 A 
ATOM      5  C   UNL     1       2.654   5.115  20.091  0.00  0.00    +0.000 A 
ATOM      6  C   UNL     1       1.937   6.312  20.156  0.00  0.00    +0.000 A 
ATOM      7  C   UNL     1       2.227   7.364  19.293  0.00  0.00    +0.000 A 
ATOM      8  C   UNL     1       3.240   7.243  18.338  0.00  0.00    +0.000 A 
ATOM      9  C   UNL     1       3.978   6.042  18.243  0.00  0.00    +0.000 A 
ENDROOT
BRANCH   1  10
ATOM     10  C   UNL     1       5.688   6.290  16.295  0.00  0.00    +0.000 C 
ATOM     11  O   UNL     1       5.102   6.749  15.322  0.00  0.00    +0.000 OA
BRANCH  10  13
ATOM     12  C   UNL     1       7.432   7.373  17.449  0.00  0.00    +0.000 C 
ATOM     13  O   UNL     1       7.038   6.388  16.493  0.00  0.00    +0.000 OA
ENDBRANCH  10  13
ENDBRANCH   1  10
BRANCH   3  14
ATOM     14  O   UNL     1       4.386   2.683  19.416  0.00  0.00    +0.000 OA
ATOM     15  C   UNL     1       3.603   1.807  18.614  0.00  0.00    +0.000 C 
ENDBRANCH   3  14
TORSDOF 3
ENDMDL
MODEL 9
REMARK VINA RESULT:      -5.9      1.094      4.151
REMARK  Name = 
REMARK  5 active torsions:
REMARK  status: ('A' for Active; 'I' for Inactive)
REMARK    1  A    between atoms: C_1  and  O_2
REMARK    2  A    between atoms: O_2  and  C_3
REMARK    3  A    between atoms: C_3  and  C_5
REMARK    4  A    between atoms: N_7  and  O_8
REMARK    5  A    between atoms: O_8  and  C_9
REMARK                            x       y       z     vdW  Elec       q    Type
REMARK                         _______ _______ _______ _____ _____    ______ ____
ROOT
ATOM      1  C   UNL     1       3.815   3.523  17.461  0.00  0.00    +0.000 A 
ATOM      2  C   UNL     1       5.012   3.507  16.768  0.00  0.00    +0.000 A 
ATOM      3  N   UNL     1       5.373   4.789  16.488  0.00  0.00    +0.000 N 
ATOM      4  C   UNL     1       4.463   5.672  17.029  0.00  0.00    +0.000 A 
ATOM      5  C   UNL     1       4.449   7.074  17.050  0.00  0.00    +0.000 A 
ATOM      6  C   UNL     1       3.397   7.712  17.712  0.00  0.00    +0.000 A 
ATOM      7  C   UNL     1       2.390   6.974  18.327  0.00  0.00    +0.000 A 
ATOM      8  C   UNL     1       2.414   5.577  18.300  0.00  0.00    +0.000 A 
ATOM      9  C   UNL     1       3.469   4.903  17.644  0.00  0.00    +0.000 A 
ENDROOT
BRANCH   1  10
ATOM     10  C   UNL     1       3.095   2.341  17.922  0.00  0.00    +0.000 C 
ATOM     11  O   UNL     1       3.620   1.411  18.523  0.00  0.00    +0.000 OA
BRANCH  10  13
ATOM     12  C   UNL     1       0.881   2.311  18.727  0.00  0.00    +0.000 C 
ATOM     13  O   UNL     1       1.765   2.398  17.609  0.00  0.00    +0.000 OA
ENDBRANCH  10  13
ENDBRANCH   1  10
BRANCH   3  14
ATOM     14  O   UNL     1       6.585   5.205  15.906  0.00  0.00    +0.000 OA
ATOM     15  C   UNL     1       6.701   4.737  14.567  0.00  0.00    +0.000 C 
ENDBRANCH   3  14
TORSDOF 3
ENDMDL
