MODEL 1
REMARK VINA RESULT:      -7.5      0.000      0.000
REMARK  Name = 
REMARK  10 active torsions:
REMARK  status: ('A' for Active; 'I' for Inactive)
REMARK    1  A    between atoms: C_1  and  C_2
REMARK    2  A    between atoms: C_2  and  C_3
REMARK    3  A    between atoms: C_3  and  N_4
REMARK    4  A    between atoms: C_8  and  C_9
REMARK    5  A    between atoms: C_12  and  O_13
REMARK    6  A    between atoms: O_13  and  C_14
REMARK    7  A    between atoms: C_14  and  C_15
REMARK    8  A    between atoms: C_15  and  O_16
REMARK    9  A    between atoms: N_22  and  C_23
REMARK   10  A    between atoms: C_28  and  C_29
REMARK                            x       y       z     vdW  Elec       q    Type
REMARK                         _______ _______ _______ _____ _____    ______ ____
ROOT
ATOM      1  N   UNL     1      -1.706  12.050  19.578  0.00  0.00    +0.000 NA
ATOM      2  C   UNL     1      -1.044  11.182  20.259  0.00  0.00    +0.000 C 
ATOM      3  S   UNL     1      -0.224   9.781  19.608  0.00  0.00    +0.000 S 
ATOM      4  C   UNL     1       0.414   9.332  21.139  0.00  0.00    +0.000 C 
ATOM      5  C   UNL     1       1.195   8.282  21.407  0.00  0.00    +0.000 C 
ATOM      6  C   UNL     1      -0.041  10.288  22.194  0.00  0.00    +0.000 C 
ATOM      7  O   UNL     1       0.270  10.163  23.370  0.00  0.00    +0.000 OA
ATOM      8  N   UNL     1      -0.858  11.256  21.624  0.00  0.00    +0.000 N 
ENDROOT
BRANCH   5   9
ATOM      9  C   UNL     1       1.703   7.336  20.409  0.00  0.00    +0.000 A 
ATOM     10  C   UNL     1       2.274   7.787  19.221  0.00  0.00    +0.000 A 
ATOM     11  C   UNL     1       2.735   6.866  18.274  0.00  0.00    +0.000 A 
ATOM     12  C   UNL     1       2.628   5.483  18.480  0.00  0.00    +0.000 A 
ATOM     13  C   UNL     1       2.070   5.032  19.690  0.00  0.00    +0.000 A 
ATOM     14 CL   UNL     1       1.884   3.375  20.143  0.00  0.00    +0.000 Cl
ATOM     15  C   UNL     1       1.615   5.962  20.641  0.00  0.00    +0.000 A 
BRANCH  12  16
ATOM     16  O   UNL     1       3.136   4.766  17.427  0.00  0.00    +0.000 OA
BRANCH  16  17
ATOM     17  C   UNL     1       4.501   4.347  17.480  0.00  0.00    +0.000 C 
BRANCH  17  18
ATOM     18  C   UNL     1       5.054   4.185  16.062  0.00  0.00    +0.000 C 
BRANCH  18  19
ATOM     19  O   UNL     1       6.332   3.555  16.071  0.00  0.00    +0.000 OA
ATOM     20  H   UNL     1       6.338   2.932  15.320  0.00  0.00    +0.000 HD
ENDBRANCH  18  19
ENDBRANCH  17  18
ENDBRANCH  16  17
ENDBRANCH  12  16
ENDBRANCH   5   9
BRANCH   8  21
ATOM     21  C   UNL     1      -1.425  12.288  22.420  0.00  0.00    +0.000 A 
ATOM     22  C   UNL     1      -2.666  12.050  23.041  0.00  0.00    +0.000 A 
ATOM     23  C   UNL     1      -3.247  13.012  23.868  0.00  0.00    +0.000 A 
ATOM     24  C   UNL     1      -2.607  14.226  24.069  0.00  0.00    +0.000 A 
ATOM     25  C   UNL     1      -1.394  14.494  23.437  0.00  0.00    +0.000 A 
ATOM     26  C   UNL     1      -0.791  13.538  22.596  0.00  0.00    +0.000 A 
ATOM     27  C   UNL     1       0.456  13.938  21.855  0.00  0.00    +0.000 C 
ENDBRANCH   8  21
BRANCH   1  28
ATOM     28  C   UNL     1      -1.940  11.856  18.156  0.00  0.00    +0.000 C 
BRANCH  28  30
ATOM     29  C   UNL     1      -3.235   9.973  17.106  0.00  0.00    +0.000 C 
ATOM     30  C   UNL     1      -3.316  11.208  17.989  0.00  0.00    +0.000 C 
ENDBRANCH  28  30
ENDBRANCH   1  28
TORSDOF 8
ENDMDL
MODEL 2
REMARK VINA RESULT:      -7.4      2.879      4.796
REMARK  Name = 
REMARK  10 active torsions:
REMARK  status: ('A' for Active; 'I' for Inactive)
REMARK    1  A    between atoms: C_1  and  C_2
REMARK    2  A    between atoms: C_2  and  C_3
REMARK    3  A    between atoms: C_3  and  N_4
REMARK    4  A    between atoms: C_8  and  C_9
REMARK    5  A    between atoms: C_12  and  O_13
REMARK    6  A    between atoms: O_13  and  C_14
REMARK    7  A    between atoms: C_14  and  C_15
REMARK    8  A    between atoms: C_15  and  O_16
REMARK    9  A    between atoms: N_22  and  C_23
REMARK   10  A    between atoms: C_28  and  C_29
REMARK                            x       y       z     vdW  Elec       q    Type
REMARK                         _______ _______ _______ _____ _____    ______ ____
ROOT
ATOM      1  N   UNL     1       0.478   9.744  21.406  0.00  0.00    +0.000 NA
ATOM      2  C   UNL     1       1.106   9.218  20.413  0.00  0.00    +0.000 C 
ATOM      3  S   UNL     1       1.892   7.656  20.413  0.00  0.00    +0.000 S 
ATOM      4  C   UNL     1       2.315   7.771  18.751  0.00  0.00    +0.000 C 
ATOM      5  C   UNL     1       2.978   6.865  18.027  0.00  0.00    +0.000 C 
ATOM      6  C   UNL     1       1.850   9.074  18.183  0.00  0.00    +0.000 C 
ATOM      7  O   UNL     1       2.054   9.392  17.020  0.00  0.00    +0.000 OA
ATOM      8  N   UNL     1       1.220   9.814  19.174  0.00  0.00    +0.000 N 
ENDROOT
BRANCH   5   9
ATOM      9  C   UNL     1       3.423   5.558  18.519  0.00  0.00    +0.000 A 
ATOM     10  C   UNL     1       4.770   5.305  18.762  0.00  0.00    +0.000 A 
ATOM     11  C   UNL     1       5.173   4.044  19.213  0.00  0.00    +0.000 A 
ATOM     12  C   UNL     1       4.253   3.007  19.421  0.00  0.00    +0.000 A 
ATOM     13  C   UNL     1       2.890   3.273  19.194  0.00  0.00    +0.000 A 
ATOM     14 CL   UNL     1       1.604   2.142  19.425  0.00  0.00    +0.000 Cl
ATOM     15  C   UNL     1       2.489   4.545  18.748  0.00  0.00    +0.000 A 
BRANCH  12  16
ATOM     16  O   UNL     1       4.861   1.858  19.858  0.00  0.00    +0.000 OA
BRANCH  16  17
ATOM     17  C   UNL     1       4.755   1.512  21.240  0.00  0.00    +0.000 C 
BRANCH  17  18
ATOM     18  C   UNL     1       5.766   0.414  21.583  0.00  0.00    +0.000 C 
BRANCH  18  19
ATOM     19  O   UNL     1       6.601   0.799  22.671  0.00  0.00    +0.000 OA
ATOM     20  H   UNL     1       7.464   0.368  22.522  0.00  0.00    +0.000 HD
ENDBRANCH  18  19
ENDBRANCH  17  18
ENDBRANCH  16  17
ENDBRANCH  12  16
ENDBRANCH   5   9
BRANCH   8  21
ATOM     21  C   UNL     1       0.684  11.100  18.890  0.00  0.00    +0.000 A 
ATOM     22  C   UNL     1       1.515  12.223  19.060  0.00  0.00    +0.000 A 
ATOM     23  C   UNL     1       1.055  13.505  18.753  0.00  0.00    +0.000 A 
ATOM     24  C   UNL     1      -0.242  13.680  18.294  0.00  0.00    +0.000 A 
ATOM     25  C   UNL     1      -1.091  12.584  18.151  0.00  0.00    +0.000 A 
ATOM     26  C   UNL     1      -0.648  11.282  18.457  0.00  0.00    +0.000 A 
ATOM     27  C   UNL     1      -1.651  10.163  18.392  0.00  0.00    +0.000 C 
ENDBRANCH   8  21
BRANCH   1  28
ATOM     28  C   UNL     1       0.480   9.101  22.710  0.00  0.00    +0.000 C 
BRANCH  28  30
ATOM     29  C   UNL     1      -1.139  11.012  22.942  0.00  0.00    +0.000 C 
ATOM     30  C   UNL     1      -0.671   9.689  23.528  0.00  0.00    +0.000 C 
ENDBRANCH  28  30
ENDBRANCH   1  28
TORSDOF 8
ENDMDL
MODEL 3
REMARK VINA RESULT:      -7.4      1.424      1.720
REMARK  Name = 
REMARK  10 active torsions:
REMARK  status: ('A' for Active; 'I' for Inactive)
REMARK    1  A    between atoms: C_1  and  C_2
REMARK    2  A    between atoms: C_2  and  C_3
REMARK    3  A    between atoms: C_3  and  N_4
REMARK    4  A    between atoms: C_8  and  C_9
REMARK    5  A    between atoms: C_12  and  O_13
REMARK    6  A    between atoms: O_13  and  C_14
REMARK    7  A    between atoms: C_14  and  C_15
REMARK    8  A    between atoms: C_15  and  O_16
REMARK    9  A    between atoms: N_22  and  C_23
REMARK   10  A    between atoms: C_28  and  C_29
REMARK                            x       y       z     vdW  Elec       q    Type
REMARK                         _______ _______ _______ _____ _____    ______ ____
ROOT
ATOM      1  N   UNL     1      -1.567  12.012  19.555  0.00  0.00    +0.000 NA
ATOM      2  C   UNL     1      -0.955  11.137  20.273  0.00  0.00    +0.000 C 
ATOM      3  S   UNL     1      -0.165   9.696  19.674  0.00  0.00    +0.000 S 
ATOM      4  C   UNL     1       0.413   9.259  21.232  0.00  0.00    +0.000 C 
ATOM      5  C   UNL     1       1.150   8.190  21.545  0.00  0.00    +0.000 C 
ATOM      6  C   UNL     1      -0.040  10.253  22.255  0.00  0.00    +0.000 C 
ATOM      7  O   UNL     1       0.232  10.142  23.442  0.00  0.00    +0.000 OA
ATOM      8  N   UNL     1      -0.807  11.234  21.640  0.00  0.00    +0.000 N 
ENDROOT
BRANCH   5   9
ATOM      9  C   UNL     1       1.655   7.207  20.582  0.00  0.00    +0.000 A 
ATOM     10  C   UNL     1       1.429   5.845  20.764  0.00  0.00    +0.000 A 
ATOM     11  C   UNL     1       1.936   4.923  19.842  0.00  0.00    +0.000 A 
ATOM     12  C   UNL     1       2.686   5.332  18.730  0.00  0.00    +0.000 A 
ATOM     13  C   UNL     1       2.893   6.709  18.538  0.00  0.00    +0.000 A 
ATOM     14 CL   UNL     1       3.757   7.410  17.215  0.00  0.00    +0.000 Cl
ATOM     15  C   UNL     1       2.374   7.632  19.464  0.00  0.00    +0.000 A 
BRANCH  12  16
ATOM     16  O   UNL     1       3.088   4.269  17.962  0.00  0.00    +0.000 OA
BRANCH  16  17
ATOM     17  C   UNL     1       2.194   3.166  17.800  0.00  0.00    +0.000 C 
BRANCH  17  18
ATOM     18  C   UNL     1       2.846   1.883  18.324  0.00  0.00    +0.000 C 
BRANCH  18  19
ATOM     19  O   UNL     1       4.162   1.720  17.806  0.00  0.00    +0.000 OA
ATOM     20  H   UNL     1       4.062   1.509  16.859  0.00  0.00    +0.000 HD
ENDBRANCH  18  19
ENDBRANCH  17  18
ENDBRANCH  16  17
ENDBRANCH  12  16
ENDBRANCH   5   9
BRANCH   8  21
ATOM     21  C   UNL     1      -1.361  12.302  22.398  0.00  0.00    +0.000 A 
ATOM     22  C   UNL     1      -2.616  12.110  23.006  0.00  0.00    +0.000 A 
ATOM     23  C   UNL     1      -3.187  13.108  23.797  0.00  0.00    +0.000 A 
ATOM     24  C   UNL     1      -2.522  14.312  23.974  0.00  0.00    +0.000 A 
ATOM     25  C   UNL     1      -1.294  14.534  23.352  0.00  0.00    +0.000 A 
ATOM     26  C   UNL     1      -0.701  13.542  22.548  0.00  0.00    +0.000 A 
ATOM     27  C   UNL     1       0.565  13.891  21.815  0.00  0.00    +0.000 C 
ENDBRANCH   8  21
BRANCH   1  28
ATOM     28  C   UNL     1      -1.767  11.796  18.130  0.00  0.00    +0.000 C 
BRANCH  28  30
ATOM     29  C   UNL     1      -3.171   9.933  17.190  0.00  0.00    +0.000 C 
ATOM     30  C   UNL     1      -3.186  11.262  17.929  0.00  0.00    +0.000 C 
ENDBRANCH  28  30
ENDBRANCH   1  28
TORSDOF 8
ENDMDL
MODEL 4
REMARK VINA RESULT:      -7.3      1.058      1.379
REMARK  Name = 
REMARK  10 active torsions:
REMARK  status: ('A' for Active; 'I' for Inactive)
REMARK    1  A    between atoms: C_1  and  C_2
REMARK    2  A    between atoms: C_2  and  C_3
REMARK    3  A    between atoms: C_3  and  N_4
REMARK    4  A    between atoms: C_8  and  C_9
REMARK    5  A    between atoms: C_12  and  O_13
REMARK    6  A    between atoms: O_13  and  C_14
REMARK    7  A    between atoms: C_14  and  C_15
REMARK    8  A    between atoms: C_15  and  O_16
REMARK    9  A    between atoms: N_22  and  C_23
REMARK   10  A    between atoms: C_28  and  C_29
REMARK                            x       y       z     vdW  Elec       q    Type
REMARK                         _______ _______ _______ _____ _____    ______ ____
ROOT
ATOM      1  N   UNL     1      -1.511  11.963  19.464  0.00  0.00    +0.000 NA
ATOM      2  C   UNL     1      -0.909  11.082  20.182  0.00  0.00    +0.000 C 
ATOM      3  S   UNL     1      -0.132   9.634  19.585  0.00  0.00    +0.000 S 
ATOM      4  C   UNL     1       0.439   9.190  21.144  0.00  0.00    +0.000 C 
ATOM      5  C   UNL     1       1.165   8.113  21.458  0.00  0.00    +0.000 C 
ATOM      6  C   UNL     1      -0.007  10.187  22.166  0.00  0.00    +0.000 C 
ATOM      7  O   UNL     1       0.261  10.074  23.353  0.00  0.00    +0.000 OA
ATOM      8  N   UNL     1      -0.763  11.176  21.551  0.00  0.00    +0.000 N 
ENDROOT
BRANCH   5   9
ATOM      9  C   UNL     1       1.662   7.126  20.495  0.00  0.00    +0.000 A 
ATOM     10  C   UNL     1       1.371   5.773  20.643  0.00  0.00    +0.000 A 
ATOM     11  C   UNL     1       1.872   4.846  19.723  0.00  0.00    +0.000 A 
ATOM     12  C   UNL     1       2.679   5.240  18.647  0.00  0.00    +0.000 A 
ATOM     13  C   UNL     1       2.953   6.610  18.489  0.00  0.00    +0.000 A 
ATOM     14 CL   UNL     1       3.895   7.296  17.212  0.00  0.00    +0.000 Cl
ATOM     15  C   UNL     1       2.440   7.539  19.412  0.00  0.00    +0.000 A 
BRANCH  12  16
ATOM     16  O   UNL     1       3.063   4.174  17.874  0.00  0.00    +0.000 OA
BRANCH  16  17
ATOM     17  C   UNL     1       4.396   3.677  18.009  0.00  0.00    +0.000 C 
BRANCH  17  18
ATOM     18  C   UNL     1       5.199   3.982  16.741  0.00  0.00    +0.000 C 
BRANCH  18  19
ATOM     19  O   UNL     1       6.596   4.037  17.011  0.00  0.00    +0.000 OA
ATOM     20  H   UNL     1       6.739   4.828  17.565  0.00  0.00    +0.000 HD
ENDBRANCH  18  19
ENDBRANCH  17  18
ENDBRANCH  16  17
ENDBRANCH  12  16
ENDBRANCH   5   9
BRANCH   8  21
ATOM     21  C   UNL     1      -1.309  12.249  22.308  0.00  0.00    +0.000 A 
ATOM     22  C   UNL     1      -2.565  12.068  22.915  0.00  0.00    +0.000 A 
ATOM     23  C   UNL     1      -3.128  13.071  23.706  0.00  0.00    +0.000 A 
ATOM     24  C   UNL     1      -2.453  14.270  23.882  0.00  0.00    +0.000 A 
ATOM     25  C   UNL     1      -1.223  14.481  23.260  0.00  0.00    +0.000 A 
ATOM     26  C   UNL     1      -0.639  13.484  22.457  0.00  0.00    +0.000 A 
ATOM     27  C   UNL     1       0.631  13.822  21.724  0.00  0.00    +0.000 C 
ENDBRANCH   8  21
BRANCH   1  28
ATOM     28  C   UNL     1      -1.710  11.750  18.039  0.00  0.00    +0.000 C 
BRANCH  28  30
ATOM     29  C   UNL     1      -3.007   9.952  16.850  0.00  0.00    +0.000 C 
ATOM     30  C   UNL     1      -3.081  11.098  17.846  0.00  0.00    +0.000 C 
ENDBRANCH  28  30
ENDBRANCH   1  28
TORSDOF 8
ENDMDL
MODEL 5
REMARK VINA RESULT:      -7.2      1.087      1.285
REMARK  Name = 
REMARK  10 active torsions:
REMARK  status: ('A' for Active; 'I' for Inactive)
REMARK    1  A    between atoms: C_1  and  C_2
REMARK    2  A    between atoms: C_2  and  C_3
REMARK    3  A    between atoms: C_3  and  N_4
REMARK    4  A    between atoms: C_8  and  C_9
REMARK    5  A    between atoms: C_12  and  O_13
REMARK    6  A    between atoms: O_13  and  C_14
REMARK    7  A    between atoms: C_14  and  C_15
REMARK    8  A    between atoms: C_15  and  O_16
REMARK    9  A    between atoms: N_22  and  C_23
REMARK   10  A    between atoms: C_28  and  C_29
REMARK                            x       y       z     vdW  Elec       q    Type
REMARK                         _______ _______ _______ _____ _____    ______ ____
ROOT
ATOM      1  N   UNL     1      -1.653  12.162  19.392  0.00  0.00    +0.000 NA
ATOM      2  C   UNL     1      -1.072  11.317  20.170  0.00  0.00    +0.000 C 
ATOM      3  S   UNL     1      -0.240   9.865  19.663  0.00  0.00    +0.000 S 
ATOM      4  C   UNL     1       0.260   9.486  21.263  0.00  0.00    +0.000 C 
ATOM      5  C   UNL     1       0.988   8.435  21.650  0.00  0.00    +0.000 C 
ATOM      6  C   UNL     1      -0.254  10.509  22.226  0.00  0.00    +0.000 C 
ATOM      7  O   UNL     1      -0.043  10.442  23.429  0.00  0.00    +0.000 OA
ATOM      8  N   UNL     1      -0.996  11.461  21.540  0.00  0.00    +0.000 N 
ENDROOT
BRANCH   5   9
ATOM      9  C   UNL     1       1.550   7.425  20.748  0.00  0.00    +0.000 A 
ATOM     10  C   UNL     1       2.179   7.795  19.562  0.00  0.00    +0.000 A 
ATOM     11  C   UNL     1       2.691   6.813  18.708  0.00  0.00    +0.000 A 
ATOM     12  C   UNL     1       2.579   5.448  19.005  0.00  0.00    +0.000 A 
ATOM     13  C   UNL     1       1.962   5.079  20.214  0.00  0.00    +0.000 A 
ATOM     14 CL   UNL     1       1.760   3.456  20.774  0.00  0.00    +0.000 Cl
ATOM     15  C   UNL     1       1.456   6.071  21.073  0.00  0.00    +0.000 A 
BRANCH  12  16
ATOM     16  O   UNL     1       3.143   4.662  18.033  0.00  0.00    +0.000 OA
BRANCH  16  17
ATOM     17  C   UNL     1       2.307   3.743  17.326  0.00  0.00    +0.000 C 
BRANCH  17  18
ATOM     18  C   UNL     1       2.854   2.320  17.470  0.00  0.00    +0.000 C 
BRANCH  18  19
ATOM     19  O   UNL     1       1.954   1.489  18.197  0.00  0.00    +0.000 OA
ATOM     20  H   UNL     1       2.076   1.708  19.140  0.00  0.00    +0.000 HD
ENDBRANCH  18  19
ENDBRANCH  17  18
ENDBRANCH  16  17
ENDBRANCH  12  16
ENDBRANCH   5   9
BRANCH   8  21
ATOM     21  C   UNL     1      -1.598  12.549  22.231  0.00  0.00    +0.000 A 
ATOM     22  C   UNL     1      -2.915  12.395  22.702  0.00  0.00    +0.000 A 
ATOM     23  C   UNL     1      -3.538  13.414  23.425  0.00  0.00    +0.000 A 
ATOM     24  C   UNL     1      -2.863  14.600  23.668  0.00  0.00    +0.000 A 
ATOM     25  C   UNL     1      -1.569  14.784  23.180  0.00  0.00    +0.000 A 
ATOM     26  C   UNL     1      -0.922  13.771  22.447  0.00  0.00    +0.000 A 
ATOM     27  C   UNL     1       0.424  14.080  21.852  0.00  0.00    +0.000 C 
ENDBRANCH   8  21
BRANCH   1  28
ATOM     28  C   UNL     1      -1.777  11.895  17.968  0.00  0.00    +0.000 C 
BRANCH  28  30
ATOM     29  C   UNL     1      -3.204   9.924  17.333  0.00  0.00    +0.000 C 
ATOM     30  C   UNL     1      -3.199  11.399  17.702  0.00  0.00    +0.000 C 
ENDBRANCH  28  30
ENDBRANCH   1  28
TORSDOF 8
ENDMDL
MODEL 6
REMARK VINA RESULT:      -7.0      2.471      4.305
REMARK  Name = 
REMARK  10 active torsions:
REMARK  status: ('A' for Active; 'I' for Inactive)
REMARK    1  A    between atoms: C_1  and  C_2
REMARK    2  A    between atoms: C_2  and  C_3
REMARK    3  A    between atoms: C_3  and  N_4
REMARK    4  A    between atoms: C_8  and  C_9
REMARK    5  A    between atoms: C_12  and  O_13
REMARK    6  A    between atoms: O_13  and  C_14
REMARK    7  A    between atoms: C_14  and  C_15
REMARK    8  A    between atoms: C_15  and  O_16
REMARK    9  A    between atoms: N_22  and  C_23
REMARK   10  A    between atoms: C_28  and  C_29
REMARK                            x       y       z     vdW  Elec       q    Type
REMARK                         _______ _______ _______ _____ _____    ______ ____
ROOT
ATOM      1  N   UNL     1      -0.018   9.971  21.060  0.00  0.00    +0.000 NA
ATOM      2  C   UNL     1       0.802   9.683  20.111  0.00  0.00    +0.000 C 
ATOM      3  S   UNL     1       1.487   8.105  19.795  0.00  0.00    +0.000 S 
ATOM      4  C   UNL     1       2.302   8.644  18.382  0.00  0.00    +0.000 C 
ATOM      5  C   UNL     1       3.074   7.913  17.572  0.00  0.00    +0.000 C 
ATOM      6  C   UNL     1       2.054  10.102  18.160  0.00  0.00    +0.000 C 
ATOM      7  O   UNL     1       2.547  10.716  17.225  0.00  0.00    +0.000 OA
ATOM      8  N   UNL     1       1.241  10.594  19.173  0.00  0.00    +0.000 N 
ENDROOT
BRANCH   5   9
ATOM      9  C   UNL     1       3.321   6.476  17.719  0.00  0.00    +0.000 A 
ATOM     10  C   UNL     1       4.612   5.960  17.640  0.00  0.00    +0.000 A 
ATOM     11  C   UNL     1       4.822   4.582  17.764  0.00  0.00    +0.000 A 
ATOM     12  C   UNL     1       3.758   3.690  17.955  0.00  0.00    +0.000 A 
ATOM     13  C   UNL     1       2.458   4.217  18.054  0.00  0.00    +0.000 A 
ATOM     14 CL   UNL     1       1.025   3.288  18.322  0.00  0.00    +0.000 Cl
ATOM     15  C   UNL     1       2.253   5.604  17.937  0.00  0.00    +0.000 A 
BRANCH  12  16
ATOM     16  O   UNL     1       4.186   2.390  18.045  0.00  0.00    +0.000 OA
BRANCH  16  17
ATOM     17  C   UNL     1       3.798   1.620  19.184  0.00  0.00    +0.000 C 
BRANCH  17  18
ATOM     18  C   UNL     1       4.291   2.296  20.466  0.00  0.00    +0.000 C 
BRANCH  18  19
ATOM     19  O   UNL     1       5.325   1.539  21.088  0.00  0.00    +0.000 OA
ATOM     20  H   UNL     1       4.965   1.226  21.939  0.00  0.00    +0.000 HD
ENDBRANCH  18  19
ENDBRANCH  17  18
ENDBRANCH  16  17
ENDBRANCH  12  16
ENDBRANCH   5   9
BRANCH   8  21
ATOM     21  C   UNL     1       0.854  11.962  19.193  0.00  0.00    +0.000 A 
ATOM     22  C   UNL     1       1.698  12.886  19.837  0.00  0.00    +0.000 A 
ATOM     23  C   UNL     1       1.389  14.247  19.848  0.00  0.00    +0.000 A 
ATOM     24  C   UNL     1       0.229  14.697  19.236  0.00  0.00    +0.000 A 
ATOM     25  C   UNL     1      -0.636  13.792  18.622  0.00  0.00    +0.000 A 
ATOM     26  C   UNL     1      -0.346  12.415  18.600  0.00  0.00    +0.000 A 
ATOM     27  C   UNL     1      -1.378  11.485  18.024  0.00  0.00    +0.000 C 
ENDBRANCH   8  21
BRANCH   1  28
ATOM     28  C   UNL     1      -0.362   8.982  22.070  0.00  0.00    +0.000 C 
BRANCH  28  30
ATOM     29  C   UNL     1      -1.315  11.052  23.135  0.00  0.00    +0.000 C 
ATOM     30  C   UNL     1      -0.622   9.721  23.384  0.00  0.00    +0.000 C 
ENDBRANCH  28  30
ENDBRANCH   1  28
TORSDOF 8
ENDMDL
MODEL 7
REMARK VINA RESULT:      -7.0      1.800      2.075
REMARK  Name = 
REMARK  10 active torsions:
REMARK  status: ('A' for Active; 'I' for Inactive)
REMARK    1  A    between atoms: C_1  and  C_2
REMARK    2  A    between atoms: C_2  and  C_3
REMARK    3  A    between atoms: C_3  and  N_4
REMARK    4  A    between atoms: C_8  and  C_9
REMARK    5  A    between atoms: C_12  and  O_13
REMARK    6  A    between atoms: O_13  and  C_14
REMARK    7  A    between atoms: C_14  and  C_15
REMARK    8  A    between atoms: C_15  and  O_16
REMARK    9  A    between atoms: N_22  and  C_23
REMARK   10  A    between atoms: C_28  and  C_29
REMARK                            x       y       z     vdW  Elec       q    Type
REMARK                         _______ _______ _______ _____ _____    ______ ____
ROOT
ATOM      1  N   UNL     1      -2.087  11.789  17.716  0.00  0.00    +0.000 NA
ATOM      2  C   UNL     1      -1.267  11.303  18.580  0.00  0.00    +0.000 C 
ATOM      3  S   UNL     1      -0.426   9.776  18.445  0.00  0.00    +0.000 S 
ATOM      4  C   UNL     1       0.449  10.027  19.903  0.00  0.00    +0.000 C 
ATOM      5  C   UNL     1       1.346   9.204  20.454  0.00  0.00    +0.000 C 
ATOM      6  C   UNL     1       0.059  11.329  20.527  0.00  0.00    +0.000 C 
ATOM      7  O   UNL     1       0.534  11.717  21.585  0.00  0.00    +0.000 OA
ATOM      8  N   UNL     1      -0.907  11.948  19.745  0.00  0.00    +0.000 N 
ENDROOT
BRANCH   5   9
ATOM      9  C   UNL     1       1.794   7.938  19.868  0.00  0.00    +0.000 A 
ATOM     10  C   UNL     1       2.365   7.898  18.599  0.00  0.00    +0.000 A 
ATOM     11  C   UNL     1       2.768   6.675  18.052  0.00  0.00    +0.000 A 
ATOM     12  C   UNL     1       2.603   5.469  18.746  0.00  0.00    +0.000 A 
ATOM     13  C   UNL     1       2.046   5.515  20.037  0.00  0.00    +0.000 A 
ATOM     14 CL   UNL     1       1.794   4.147  21.062  0.00  0.00    +0.000 Cl
ATOM     15  C   UNL     1       1.649   6.748  20.585  0.00  0.00    +0.000 A 
BRANCH  12  16
ATOM     16  O   UNL     1       3.061   4.395  18.027  0.00  0.00    +0.000 OA
BRANCH  16  17
ATOM     17  C   UNL     1       4.454   4.322  17.718  0.00  0.00    +0.000 C 
BRANCH  17  18
ATOM     18  C   UNL     1       5.271   4.190  19.006  0.00  0.00    +0.000 C 
BRANCH  18  19
ATOM     19  O   UNL     1       5.265   2.850  19.490  0.00  0.00    +0.000 OA
ATOM     20  H   UNL     1       6.185   2.532  19.431  0.00  0.00    +0.000 HD
ENDBRANCH  18  19
ENDBRANCH  17  18
ENDBRANCH  16  17
ENDBRANCH  12  16
ENDBRANCH   5   9
BRANCH   8  21
ATOM     21  C   UNL     1      -1.449  13.208  20.122  0.00  0.00    +0.000 A 
ATOM     22  C   UNL     1      -2.649  13.227  20.856  0.00  0.00    +0.000 A 
ATOM     23  C   UNL     1      -3.202  14.433  21.291  0.00  0.00    +0.000 A 
ATOM     24  C   UNL     1      -2.574  15.630  20.981  0.00  0.00    +0.000 A 
ATOM     25  C   UNL     1      -1.402  15.634  20.226  0.00  0.00    +0.000 A 
ATOM     26  C   UNL     1      -0.829  14.429  19.776  0.00  0.00    +0.000 A 
ATOM     27  C   UNL     1       0.369  14.513  18.869  0.00  0.00    +0.000 C 
ENDBRANCH   8  21
BRANCH   1  28
ATOM     28  C   UNL     1      -2.492  11.010  16.557  0.00  0.00    +0.000 C 
BRANCH  28  30
ATOM     29  C   UNL     1      -4.752  11.331  17.614  0.00  0.00    +0.000 C 
ATOM     30  C   UNL     1      -3.978  11.275  16.307  0.00  0.00    +0.000 C 
ENDBRANCH  28  30
ENDBRANCH   1  28
TORSDOF 8
ENDMDL
MODEL 8
REMARK VINA RESULT:      -7.0      1.346      1.854
REMARK  Name = 
REMARK  10 active torsions:
REMARK  status: ('A' for Active; 'I' for Inactive)
REMARK    1  A    between atoms: C_1  and  C_2
REMARK    2  A    between atoms: C_2  and  C_3
REMARK    3  A    between atoms: C_3  and  N_4
REMARK    4  A    between atoms: C_8  and  C_9
REMARK    5  A    between atoms: C_12  and  O_13
REMARK    6  A    between atoms: O_13  and  C_14
REMARK    7  A    between atoms: C_14  and  C_15
REMARK    8  A    between atoms: C_15  and  O_16
REMARK    9  A    between atoms: N_22  and  C_23
REMARK   10  A    between atoms: C_28  and  C_29
REMARK                            x       y       z     vdW  Elec       q    Type
REMARK                         _______ _______ _______ _____ _____    ______ ____
ROOT
ATOM      1  N   UNL     1      -1.804  12.107  19.836  0.00  0.00    +0.000 NA
ATOM      2  C   UNL     1      -1.175  11.222  20.526  0.00  0.00    +0.000 C 
ATOM      3  S   UNL     1      -0.349   9.821  19.883  0.00  0.00    +0.000 S 
ATOM      4  C   UNL     1       0.231   9.344  21.429  0.00  0.00    +0.000 C 
ATOM      5  C   UNL     1       0.991   8.281  21.708  0.00  0.00    +0.000 C 
ATOM      6  C   UNL     1      -0.250  10.290  22.482  0.00  0.00    +0.000 C 
ATOM      7  O   UNL     1       0.019  10.145  23.666  0.00  0.00    +0.000 OA
ATOM      8  N   UNL     1      -1.036  11.275  21.898  0.00  0.00    +0.000 N 
ENDROOT
BRANCH   5   9
ATOM      9  C   UNL     1       1.523   7.344  20.715  0.00  0.00    +0.000 A 
ATOM     10  C   UNL     1       1.373   5.969  20.875  0.00  0.00    +0.000 A 
ATOM     11  C   UNL     1       1.906   5.093  19.924  0.00  0.00    +0.000 A 
ATOM     12  C   UNL     1       2.607   5.560  18.803  0.00  0.00    +0.000 A 
ATOM     13  C   UNL     1       2.737   6.950  18.634  0.00  0.00    +0.000 A 
ATOM     14 CL   UNL     1       3.533   7.720  17.306  0.00  0.00    +0.000 Cl
ATOM     15  C   UNL     1       2.193   7.827  19.589  0.00  0.00    +0.000 A 
BRANCH  12  16
ATOM     16  O   UNL     1       3.045   4.535  18.006  0.00  0.00    +0.000 OA
BRANCH  16  17
ATOM     17  C   UNL     1       4.247   3.853  18.367  0.00  0.00    +0.000 C 
BRANCH  17  18
ATOM     18  C   UNL     1       5.465   4.667  17.920  0.00  0.00    +0.000 C 
BRANCH  18  19
ATOM     19  O   UNL     1       6.681   4.055  18.339  0.00  0.00    +0.000 OA
ATOM     20  H   UNL     1       6.819   4.322  19.267  0.00  0.00    +0.000 HD
ENDBRANCH  18  19
ENDBRANCH  17  18
ENDBRANCH  16  17
ENDBRANCH  12  16
ENDBRANCH   5   9
BRANCH   8  21
ATOM     21  C   UNL     1      -1.619  12.302  22.689  0.00  0.00    +0.000 A 
ATOM     22  C   UNL     1      -2.865  12.055  23.295  0.00  0.00    +0.000 A 
ATOM     23  C   UNL     1      -3.462  13.012  24.117  0.00  0.00    +0.000 A 
ATOM     24  C   UNL     1      -2.832  14.229  24.327  0.00  0.00    +0.000 A 
ATOM     25  C   UNL     1      -1.614  14.506  23.708  0.00  0.00    +0.000 A 
ATOM     26  C   UNL     1      -0.995  13.556  22.873  0.00  0.00    +0.000 A 
ATOM     27  C   UNL     1       0.257  13.965  22.147  0.00  0.00    +0.000 C 
ENDBRANCH   8  21
BRANCH   1  28
ATOM     28  C   UNL     1      -1.991  11.936  18.404  0.00  0.00    +0.000 C 
BRANCH  28  30
ATOM     29  C   UNL     1      -0.350  13.837  18.546  0.00  0.00    +0.000 C 
ATOM     30  C   UNL     1      -0.873  12.696  17.688  0.00  0.00    +0.000 C 
ENDBRANCH  28  30
ENDBRANCH   1  28
TORSDOF 8
ENDMDL
MODEL 9
REMARK VINA RESULT:      -6.9      1.807      2.130
REMARK  Name = 
REMARK  10 active torsions:
REMARK  status: ('A' for Active; 'I' for Inactive)
REMARK    1  A    between atoms: C_1  and  C_2
REMARK    2  A    between atoms: C_2  and  C_3
REMARK    3  A    between atoms: C_3  and  N_4
REMARK    4  A    between atoms: C_8  and  C_9
REMARK    5  A    between atoms: C_12  and  O_13
REMARK    6  A    between atoms: O_13  and  C_14
REMARK    7  A    between atoms: C_14  and  C_15
REMARK    8  A    between atoms: C_15  and  O_16
REMARK    9  A    between atoms: N_22  and  C_23
REMARK   10  A    between atoms: C_28  and  C_29
REMARK                            x       y       z     vdW  Elec       q    Type
REMARK                         _______ _______ _______ _____ _____    ______ ____
ROOT
ATOM      1  N   UNL     1      -2.403  11.765  18.031  0.00  0.00    +0.000 NA
ATOM      2  C   UNL     1      -1.575  11.281  18.890  0.00  0.00    +0.000 C 
ATOM      3  S   UNL     1      -0.645   9.813  18.697  0.00  0.00    +0.000 S 
ATOM      4  C   UNL     1       0.184  10.038  20.186  0.00  0.00    +0.000 C 
ATOM      5  C   UNL     1       1.115   9.240  20.716  0.00  0.00    +0.000 C 
ATOM      6  C   UNL     1      -0.293  11.282  20.865  0.00  0.00    +0.000 C 
ATOM      7  O   UNL     1       0.138  11.642  21.952  0.00  0.00    +0.000 OA
ATOM      8  N   UNL     1      -1.277  11.886  20.093  0.00  0.00    +0.000 N 
ENDROOT
BRANCH   5   9
ATOM      9  C   UNL     1       1.648   8.032  20.078  0.00  0.00    +0.000 A 
ATOM     10  C   UNL     1       2.237   8.089  18.818  0.00  0.00    +0.000 A 
ATOM     11  C   UNL     1       2.721   6.920  18.221  0.00  0.00    +0.000 A 
ATOM     12  C   UNL     1       2.620   5.674  18.854  0.00  0.00    +0.000 A 
ATOM     13  C   UNL     1       2.044   5.624  20.136  0.00  0.00    +0.000 A 
ATOM     14 CL   UNL     1       1.862   4.195  21.091  0.00  0.00    +0.000 Cl
ATOM     15  C   UNL     1       1.566   6.803  20.735  0.00  0.00    +0.000 A 
BRANCH  12  16
ATOM     16  O   UNL     1       3.152   4.665  18.093  0.00  0.00    +0.000 OA
BRANCH  16  17
ATOM     17  C   UNL     1       2.262   3.738  17.467  0.00  0.00    +0.000 C 
BRANCH  17  18
ATOM     18  C   UNL     1       2.661   2.305  17.827  0.00  0.00    +0.000 C 
BRANCH  18  19
ATOM     19  O   UNL     1       1.661   1.670  18.618  0.00  0.00    +0.000 OA
ATOM     20  H   UNL     1       0.896   2.274  18.633  0.00  0.00    +0.000 HD
ENDBRANCH  18  19
ENDBRANCH  17  18
ENDBRANCH  16  17
ENDBRANCH  12  16
ENDBRANCH   5   9
BRANCH   8  21
ATOM     21  C   UNL     1      -1.897  13.091  20.520  0.00  0.00    +0.000 A 
ATOM     22  C   UNL     1      -3.102  13.005  21.242  0.00  0.00    +0.000 A 
ATOM     23  C   UNL     1      -3.731  14.154  21.724  0.00  0.00    +0.000 A 
ATOM     24  C   UNL     1      -3.175  15.400  21.474  0.00  0.00    +0.000 A 
ATOM     25  C   UNL     1      -2.000  15.509  20.731  0.00  0.00    +0.000 A 
ATOM     26  C   UNL     1      -1.350  14.362  20.234  0.00  0.00    +0.000 A 
ATOM     27  C   UNL     1      -0.153  14.560  19.345  0.00  0.00    +0.000 C 
ENDBRANCH   8  21
BRANCH   1  28
ATOM     28  C   UNL     1      -2.740  11.024  16.826  0.00  0.00    +0.000 C 
BRANCH  28  30
ATOM     29  C   UNL     1      -4.940  11.851  17.721  0.00  0.00    +0.000 C 
ATOM     30  C   UNL     1      -4.216  11.276  16.514  0.00  0.00    +0.000 C 
ENDBRANCH  28  30
ENDBRANCH   1  28
TORSDOF 8
ENDMDL
