MODEL 1
REMARK VINA RESULT:      -6.5      0.000      0.000
REMARK  Name = 
REMARK  12 active torsions:
REMARK  status: ('A' for Active; 'I' for Inactive)
REMARK    1  A    between atoms: C_1  and  C_2
REMARK    2  A    between atoms: C_4  and  O_5
REMARK    3  A    between atoms: O_5  and  C_6
REMARK    4  A    between atoms: C_6  and  C_7
REMARK    5  A    between atoms: C_7  and  O_8
REMARK    6  A    between atoms: C_7  and  C_9
REMARK    7  A    between atoms: C_9  and  N_10
REMARK    8  A    between atoms: N_10  and  C_11
REMARK    9  A    between atoms: C_11  and  C_12
REMARK   10  A    between atoms: C_11  and  C_13
REMARK   11  A    between atoms: C_11  and  C_14
REMARK   12  A    between atoms: C_15  and  C_16
REMARK                            x       y       z     vdW  Elec       q    Type
REMARK                         _______ _______ _______ _____ _____    ______ ____
ROOT
ATOM      1  O   UNL     1       4.868   3.392  17.860  0.00  0.00    +0.000 OA
ENDROOT
BRANCH   1   5
ATOM      2  C   UNL     1       3.030   7.899  17.717  0.00  0.00    +0.000 C 
ATOM      3  C   UNL     1       3.983   6.761  17.574  0.00  0.00    +0.000 A 
ATOM      4  N   UNL     1       3.713   5.520  17.912  0.00  0.00    +0.000 NA
ATOM      5  C   UNL     1       4.806   4.723  17.640  0.00  0.00    +0.000 A 
ATOM      6  C   UNL     1       5.905   5.358  17.105  0.00  0.00    +0.000 A 
ATOM      7  S   UNL     1       5.554   7.028  16.930  0.00  0.00    +0.000 S 
BRANCH   6   8
ATOM      8  C   UNL     1       7.189   4.814  16.719  0.00  0.00    +0.000 C 
ATOM      9  N   UNL     1       7.944   4.254  17.717  0.00  0.00    +0.000 N 
ATOM     10  O   UNL     1       7.646   4.824  15.575  0.00  0.00    +0.000 OA
ATOM     11  H   UNL     1       7.639   4.249  18.686  0.00  0.00    +0.000 HD
ATOM     12  H   UNL     1       8.854   3.885  17.489  0.00  0.00    +0.000 HD
ENDBRANCH   6   8
ENDBRANCH   1   5
BRANCH   1  13
ATOM     13  C   UNL     1       3.677   2.712  17.492  0.00  0.00    +0.000 C 
BRANCH  13  14
ATOM     14  C   UNL     1       3.438   1.631  18.548  0.00  0.00    +0.000 C 
BRANCH  14  15
ATOM     15  O   UNL     1       4.389   0.561  18.414  0.00  0.00    +0.000 OA
ATOM     16  H   UNL     1       3.893  -0.273  18.324  0.00  0.00    +0.000 HD
ENDBRANCH  14  15
BRANCH  14  17
ATOM     17  C   UNL     1       3.549   2.221  19.955  0.00  0.00    +0.000 C 
BRANCH  17  18
ATOM     18  N   UNL     1       3.094   3.615  20.016  0.00  0.00    +0.000 NA
ATOM     19  H   UNL     1       3.145   4.023  19.081  0.00  0.00    +0.000 HD
BRANCH  18  20
ATOM     20  C   UNL     1       1.731   3.796  20.548  0.00  0.00    +0.000 C 
ATOM     21  C   UNL     1       0.670   3.268  19.568  0.00  0.00    +0.000 C 
ATOM     22  C   UNL     1       1.629   2.998  21.864  0.00  0.00    +0.000 C 
ATOM     23  C   UNL     1       1.465   5.276  20.860  0.00  0.00    +0.000 C 
ENDBRANCH  18  20
ENDBRANCH  17  18
ENDBRANCH  14  17
ENDBRANCH  13  14
ENDBRANCH   1  13
TORSDOF 8
ENDMDL
MODEL 2
REMARK VINA RESULT:      -6.3      2.458      5.293
REMARK  Name = 
REMARK  12 active torsions:
REMARK  status: ('A' for Active; 'I' for Inactive)
REMARK    1  A    between atoms: C_1  and  C_2
REMARK    2  A    between atoms: C_4  and  O_5
REMARK    3  A    between atoms: O_5  and  C_6
REMARK    4  A    between atoms: C_6  and  C_7
REMARK    5  A    between atoms: C_7  and  O_8
REMARK    6  A    between atoms: C_7  and  C_9
REMARK    7  A    between atoms: C_9  and  N_10
REMARK    8  A    between atoms: N_10  and  C_11
REMARK    9  A    between atoms: C_11  and  C_12
REMARK   10  A    between atoms: C_11  and  C_13
REMARK   11  A    between atoms: C_11  and  C_14
REMARK   12  A    between atoms: C_15  and  C_16
REMARK                            x       y       z     vdW  Elec       q    Type
REMARK                         _______ _______ _______ _____ _____    ______ ____
ROOT
ATOM      1  O   UNL     1       5.682   4.508  19.240  0.00  0.00    +0.000 OA
ENDROOT
BRANCH   1   5
ATOM      2  C   UNL     1       1.360   6.318  20.563  0.00  0.00    +0.000 C 
ATOM      3  C   UNL     1       2.420   5.344  20.178  0.00  0.00    +0.000 A 
ATOM      4  N   UNL     1       3.657   5.673  19.882  0.00  0.00    +0.000 NA
ATOM      5  C   UNL     1       4.376   4.533  19.583  0.00  0.00    +0.000 A 
ATOM      6  C   UNL     1       3.684   3.344  19.643  0.00  0.00    +0.000 A 
ATOM      7  S   UNL     1       2.062   3.664  20.100  0.00  0.00    +0.000 S 
BRANCH   6   8
ATOM      8  C   UNL     1       4.141   1.995  19.386  0.00  0.00    +0.000 C 
ATOM      9  N   UNL     1       5.221   1.564  20.111  0.00  0.00    +0.000 N 
ATOM     10  O   UNL     1       3.638   1.222  18.569  0.00  0.00    +0.000 OA
ATOM     11  H   UNL     1       5.704   2.167  20.771  0.00  0.00    +0.000 HD
ATOM     12  H   UNL     1       5.582   0.638  19.942  0.00  0.00    +0.000 HD
ENDBRANCH   6   8
ENDBRANCH   1   5
BRANCH   1  13
ATOM     13  C   UNL     1       6.178   5.780  18.851  0.00  0.00    +0.000 C 
BRANCH  13  14
ATOM     14  C   UNL     1       7.523   5.541  18.161  0.00  0.00    +0.000 C 
BRANCH  14  15
ATOM     15  O   UNL     1       7.895   4.153  18.226  0.00  0.00    +0.000 OA
ATOM     16  H   UNL     1       8.845   4.087  18.026  0.00  0.00    +0.000 HD
ENDBRANCH  14  15
BRANCH  14  17
ATOM     17  C   UNL     1       7.456   5.970  16.694  0.00  0.00    +0.000 C 
BRANCH  17  18
ATOM     18  N   UNL     1       7.407   4.826  15.776  0.00  0.00    +0.000 NA
ATOM     19  H   UNL     1       7.682   3.981  16.282  0.00  0.00    +0.000 HD
BRANCH  18  20
ATOM     20  C   UNL     1       6.095   4.601  15.140  0.00  0.00    +0.000 C 
ATOM     21  C   UNL     1       6.251   4.078  13.702  0.00  0.00    +0.000 C 
ATOM     22  C   UNL     1       5.343   3.543  15.974  0.00  0.00    +0.000 C 
ATOM     23  C   UNL     1       5.266   5.893  15.140  0.00  0.00    +0.000 C 
ENDBRANCH  18  20
ENDBRANCH  17  18
ENDBRANCH  14  17
ENDBRANCH  13  14
ENDBRANCH   1  13
TORSDOF 8
ENDMDL
MODEL 3
REMARK VINA RESULT:      -6.2      3.368      6.215
REMARK  Name = 
REMARK  12 active torsions:
REMARK  status: ('A' for Active; 'I' for Inactive)
REMARK    1  A    between atoms: C_1  and  C_2
REMARK    2  A    between atoms: C_4  and  O_5
REMARK    3  A    between atoms: O_5  and  C_6
REMARK    4  A    between atoms: C_6  and  C_7
REMARK    5  A    between atoms: C_7  and  O_8
REMARK    6  A    between atoms: C_7  and  C_9
REMARK    7  A    between atoms: C_9  and  N_10
REMARK    8  A    between atoms: N_10  and  C_11
REMARK    9  A    between atoms: C_11  and  C_12
REMARK   10  A    between atoms: C_11  and  C_13
REMARK   11  A    between atoms: C_11  and  C_14
REMARK   12  A    between atoms: C_15  and  C_16
REMARK                            x       y       z     vdW  Elec       q    Type
REMARK                         _______ _______ _______ _____ _____    ______ ____
ROOT
ATOM      1  O   UNL     1       4.392   5.169  16.743  0.00  0.00    +0.000 OA
ENDROOT
BRANCH   1   5
ATOM      2  C   UNL     1       1.661   2.029  19.272  0.00  0.00    +0.000 C 
ATOM      3  C   UNL     1       2.811   2.887  18.867  0.00  0.00    +0.000 A 
ATOM      4  N   UNL     1       2.833   3.638  17.790  0.00  0.00    +0.000 NA
ATOM      5  C   UNL     1       4.038   4.308  17.721  0.00  0.00    +0.000 A 
ATOM      6  C   UNL     1       4.932   4.057  18.739  0.00  0.00    +0.000 A 
ATOM      7  S   UNL     1       4.232   2.939  19.835  0.00  0.00    +0.000 S 
BRANCH   6   8
ATOM      8  C   UNL     1       6.261   4.588  18.952  0.00  0.00    +0.000 C 
ATOM      9  N   UNL     1       7.216   4.241  18.032  0.00  0.00    +0.000 N 
ATOM     10  O   UNL     1       6.590   5.314  19.892  0.00  0.00    +0.000 OA
ATOM     11  H   UNL     1       7.016   3.615  17.256  0.00  0.00    +0.000 HD
ATOM     12  H   UNL     1       8.159   4.574  18.160  0.00  0.00    +0.000 HD
ENDBRANCH   6   8
ENDBRANCH   1   5
BRANCH   1  13
ATOM     13  C   UNL     1       4.732   4.519  15.528  0.00  0.00    +0.000 C 
BRANCH  13  14
ATOM     14  C   UNL     1       5.848   5.343  14.881  0.00  0.00    +0.000 C 
BRANCH  14  15
ATOM     15  O   UNL     1       6.486   6.194  15.848  0.00  0.00    +0.000 OA
ATOM     16  H   UNL     1       6.200   7.109  15.678  0.00  0.00    +0.000 HD
ENDBRANCH  14  15
BRANCH  14  17
ATOM     17  C   UNL     1       6.900   4.424  14.256  0.00  0.00    +0.000 C 
BRANCH  17  18
ATOM     18  N   UNL     1       6.307   3.233  13.636  0.00  0.00    +0.000 NA
ATOM     19  H   UNL     1       5.382   3.074  14.039  0.00  0.00    +0.000 HD
BRANCH  18  20
ATOM     20  C   UNL     1       6.190   3.296  12.167  0.00  0.00    +0.000 C 
ATOM     21  C   UNL     1       7.093   4.393  11.578  0.00  0.00    +0.000 C 
ATOM     22  C   UNL     1       6.635   1.932  11.601  0.00  0.00    +0.000 C 
ATOM     23  C   UNL     1       4.732   3.539  11.752  0.00  0.00    +0.000 C 
ENDBRANCH  18  20
ENDBRANCH  17  18
ENDBRANCH  14  17
ENDBRANCH  13  14
ENDBRANCH   1  13
TORSDOF 8
ENDMDL
MODEL 4
REMARK VINA RESULT:      -6.2      3.265      6.165
REMARK  Name = 
REMARK  12 active torsions:
REMARK  status: ('A' for Active; 'I' for Inactive)
REMARK    1  A    between atoms: C_1  and  C_2
REMARK    2  A    between atoms: C_4  and  O_5
REMARK    3  A    between atoms: O_5  and  C_6
REMARK    4  A    between atoms: C_6  and  C_7
REMARK    5  A    between atoms: C_7  and  O_8
REMARK    6  A    between atoms: C_7  and  C_9
REMARK    7  A    between atoms: C_9  and  N_10
REMARK    8  A    between atoms: N_10  and  C_11
REMARK    9  A    between atoms: C_11  and  C_12
REMARK   10  A    between atoms: C_11  and  C_13
REMARK   11  A    between atoms: C_11  and  C_14
REMARK   12  A    between atoms: C_15  and  C_16
REMARK                            x       y       z     vdW  Elec       q    Type
REMARK                         _______ _______ _______ _____ _____    ______ ____
ROOT
ATOM      1  O   UNL     1       5.335   4.242  17.301  0.00  0.00    +0.000 OA
ENDROOT
BRANCH   1   5
ATOM      2  C   UNL     1       2.289   7.239  19.634  0.00  0.00    +0.000 C 
ATOM      3  C   UNL     1       3.051   6.012  19.267  0.00  0.00    +0.000 A 
ATOM      4  N   UNL     1       3.892   5.934  18.260  0.00  0.00    +0.000 NA
ATOM      5  C   UNL     1       4.431   4.664  18.210  0.00  0.00    +0.000 A 
ATOM      6  C   UNL     1       3.994   3.779  19.171  0.00  0.00    +0.000 A 
ATOM      7  S   UNL     1       2.862   4.572  20.187  0.00  0.00    +0.000 S 
BRANCH   6   8
ATOM      8  C   UNL     1       4.357   2.395  19.385  0.00  0.00    +0.000 C 
ATOM      9  N   UNL     1       4.032   1.513  18.387  0.00  0.00    +0.000 N 
ATOM     10  O   UNL     1       4.924   1.960  20.388  0.00  0.00    +0.000 OA
ATOM     11  H   UNL     1       3.530   1.804  17.552  0.00  0.00    +0.000 HD
ATOM     12  H   UNL     1       4.250   0.537  18.510  0.00  0.00    +0.000 HD
ENDBRANCH   6   8
ENDBRANCH   1   5
BRANCH   1  13
ATOM     13  C   UNL     1       4.819   4.210  15.978  0.00  0.00    +0.000 C 
BRANCH  13  14
ATOM     14  C   UNL     1       5.636   5.212  15.158  0.00  0.00    +0.000 C 
BRANCH  14  15
ATOM     15  O   UNL     1       6.235   6.205  16.008  0.00  0.00    +0.000 OA
ATOM     16  H   UNL     1       5.595   6.931  16.118  0.00  0.00    +0.000 HD
ENDBRANCH  14  15
BRANCH  14  17
ATOM     17  C   UNL     1       6.739   4.493  14.379  0.00  0.00    +0.000 C 
BRANCH  17  18
ATOM     18  N   UNL     1       6.264   3.260  13.741  0.00  0.00    +0.000 NA
ATOM     19  H   UNL     1       5.345   3.022  14.120  0.00  0.00    +0.000 HD
BRANCH  18  20
ATOM     20  C   UNL     1       6.179   3.320  12.270  0.00  0.00    +0.000 C 
ATOM     21  C   UNL     1       4.742   3.601  11.801  0.00  0.00    +0.000 C 
ATOM     22  C   UNL     1       7.090   4.469  11.792  0.00  0.00    +0.000 C 
ATOM     23  C   UNL     1       6.687   2.011  11.647  0.00  0.00    +0.000 C 
ENDBRANCH  18  20
ENDBRANCH  17  18
ENDBRANCH  14  17
ENDBRANCH  13  14
ENDBRANCH   1  13
TORSDOF 8
ENDMDL
MODEL 5
REMARK VINA RESULT:      -6.2      2.501      5.550
REMARK  Name = 
REMARK  12 active torsions:
REMARK  status: ('A' for Active; 'I' for Inactive)
REMARK    1  A    between atoms: C_1  and  C_2
REMARK    2  A    between atoms: C_4  and  O_5
REMARK    3  A    between atoms: O_5  and  C_6
REMARK    4  A    between atoms: C_6  and  C_7
REMARK    5  A    between atoms: C_7  and  O_8
REMARK    6  A    between atoms: C_7  and  C_9
REMARK    7  A    between atoms: C_9  and  N_10
REMARK    8  A    between atoms: N_10  and  C_11
REMARK    9  A    between atoms: C_11  and  C_12
REMARK   10  A    between atoms: C_11  and  C_13
REMARK   11  A    between atoms: C_11  and  C_14
REMARK   12  A    between atoms: C_15  and  C_16
REMARK                            x       y       z     vdW  Elec       q    Type
REMARK                         _______ _______ _______ _____ _____    ______ ____
ROOT
ATOM      1  O   UNL     1       4.982   4.901  18.652  0.00  0.00    +0.000 OA
ENDROOT
BRANCH   1   5
ATOM      2  C   UNL     1       1.178   7.004  20.846  0.00  0.00    +0.000 C 
ATOM      3  C   UNL     1       2.086   5.955  20.299  0.00  0.00    +0.000 A 
ATOM      4  N   UNL     1       3.213   6.203  19.671  0.00  0.00    +0.000 NA
ATOM      5  C   UNL     1       3.808   5.012  19.309  0.00  0.00    +0.000 A 
ATOM      6  C   UNL     1       3.131   3.863  19.654  0.00  0.00    +0.000 A 
ATOM      7  S   UNL     1       1.686   4.291  20.473  0.00  0.00    +0.000 S 
BRANCH   6   8
ATOM      8  C   UNL     1       3.480   2.479  19.418  0.00  0.00    +0.000 C 
ATOM      9  N   UNL     1       4.740   2.091  19.792  0.00  0.00    +0.000 N 
ATOM     10  O   UNL     1       2.736   1.639  18.907  0.00  0.00    +0.000 OA
ATOM     11  H   UNL     1       5.413   2.745  20.183  0.00  0.00    +0.000 HD
ATOM     12  H   UNL     1       5.027   1.139  19.622  0.00  0.00    +0.000 HD
ENDBRANCH   6   8
ENDBRANCH   1   5
BRANCH   1  13
ATOM     13  C   UNL     1       6.094   5.327  19.425  0.00  0.00    +0.000 C 
BRANCH  13  14
ATOM     14  C   UNL     1       7.156   5.823  18.441  0.00  0.00    +0.000 C 
BRANCH  14  15
ATOM     15  O   UNL     1       8.343   6.245  19.135  0.00  0.00    +0.000 OA
ATOM     16  H   UNL     1       8.769   6.942  18.606  0.00  0.00    +0.000 HD
ENDBRANCH  14  15
BRANCH  14  17
ATOM     17  C   UNL     1       7.526   4.719  17.450  0.00  0.00    +0.000 C 
BRANCH  17  18
ATOM     18  N   UNL     1       7.595   5.206  16.067  0.00  0.00    +0.000 NA
ATOM     19  H   UNL     1       8.428   4.819  15.619  0.00  0.00    +0.000 HD
BRANCH  18  20
ATOM     20  C   UNL     1       6.414   4.891  15.242  0.00  0.00    +0.000 C 
ATOM     21  C   UNL     1       5.358   6.006  15.324  0.00  0.00    +0.000 C 
ATOM     22  C   UNL     1       6.883   4.759  13.779  0.00  0.00    +0.000 C 
ATOM     23  C   UNL     1       5.796   3.553  15.673  0.00  0.00    +0.000 C 
ENDBRANCH  18  20
ENDBRANCH  17  18
ENDBRANCH  14  17
ENDBRANCH  13  14
ENDBRANCH   1  13
TORSDOF 8
ENDMDL
MODEL 6
REMARK VINA RESULT:      -6.2      2.113      2.982
REMARK  Name = 
REMARK  12 active torsions:
REMARK  status: ('A' for Active; 'I' for Inactive)
REMARK    1  A    between atoms: C_1  and  C_2
REMARK    2  A    between atoms: C_4  and  O_5
REMARK    3  A    between atoms: O_5  and  C_6
REMARK    4  A    between atoms: C_6  and  C_7
REMARK    5  A    between atoms: C_7  and  O_8
REMARK    6  A    between atoms: C_7  and  C_9
REMARK    7  A    between atoms: C_9  and  N_10
REMARK    8  A    between atoms: N_10  and  C_11
REMARK    9  A    between atoms: C_11  and  C_12
REMARK   10  A    between atoms: C_11  and  C_13
REMARK   11  A    between atoms: C_11  and  C_14
REMARK   12  A    between atoms: C_15  and  C_16
REMARK                            x       y       z     vdW  Elec       q    Type
REMARK                         _______ _______ _______ _____ _____    ______ ____
ROOT
ATOM      1  O   UNL     1       4.419   5.458  16.951  0.00  0.00    +0.000 OA
ENDROOT
BRANCH   1   5
ATOM      2  C   UNL     1       6.035   3.490  12.801  0.00  0.00    +0.000 C 
ATOM      3  C   UNL     1       6.012   4.243  14.087  0.00  0.00    +0.000 A 
ATOM      4  N   UNL     1       4.947   4.387  14.843  0.00  0.00    +0.000 NA
ATOM      5  C   UNL     1       5.276   5.127  15.962  0.00  0.00    +0.000 A 
ATOM      6  C   UNL     1       6.584   5.550  16.049  0.00  0.00    +0.000 A 
ATOM      7  S   UNL     1       7.444   4.992  14.674  0.00  0.00    +0.000 S 
BRANCH   6   8
ATOM      8  C   UNL     1       7.234   6.333  17.077  0.00  0.00    +0.000 C 
ATOM      9  N   UNL     1       7.380   5.739  18.303  0.00  0.00    +0.000 N 
ATOM     10  O   UNL     1       7.654   7.483  16.930  0.00  0.00    +0.000 OA
ATOM     11  H   UNL     1       7.021   4.808  18.498  0.00  0.00    +0.000 HD
ATOM     12  H   UNL     1       7.809   6.263  19.050  0.00  0.00    +0.000 HD
ENDBRANCH   6   8
ENDBRANCH   1   5
BRANCH   1  13
ATOM     13  C   UNL     1       3.595   4.375  17.357  0.00  0.00    +0.000 C 
BRANCH  13  14
ATOM     14  C   UNL     1       4.429   3.512  18.307  0.00  0.00    +0.000 C 
BRANCH  14  15
ATOM     15  O   UNL     1       5.034   4.317  19.334  0.00  0.00    +0.000 OA
ATOM     16  H   UNL     1       5.217   5.196  18.958  0.00  0.00    +0.000 HD
ENDBRANCH  14  15
BRANCH  14  17
ATOM     17  C   UNL     1       3.558   2.440  18.963  0.00  0.00    +0.000 C 
BRANCH  17  18
ATOM     18  N   UNL     1       3.238   2.754  20.360  0.00  0.00    +0.000 NA
ATOM     19  H   UNL     1       3.875   3.482  20.692  0.00  0.00    +0.000 HD
BRANCH  18  20
ATOM     20  C   UNL     1       1.848   3.187  20.593  0.00  0.00    +0.000 C 
ATOM     21  C   UNL     1       1.737   4.720  20.646  0.00  0.00    +0.000 C 
ATOM     22  C   UNL     1       0.991   2.668  19.420  0.00  0.00    +0.000 C 
ATOM     23  C   UNL     1       1.304   2.578  21.894  0.00  0.00    +0.000 C 
ENDBRANCH  18  20
ENDBRANCH  17  18
ENDBRANCH  14  17
ENDBRANCH  13  14
ENDBRANCH   1  13
TORSDOF 8
ENDMDL
MODEL 7
REMARK VINA RESULT:      -6.1      3.290      6.202
REMARK  Name = 
REMARK  12 active torsions:
REMARK  status: ('A' for Active; 'I' for Inactive)
REMARK    1  A    between atoms: C_1  and  C_2
REMARK    2  A    between atoms: C_4  and  O_5
REMARK    3  A    between atoms: O_5  and  C_6
REMARK    4  A    between atoms: C_6  and  C_7
REMARK    5  A    between atoms: C_7  and  O_8
REMARK    6  A    between atoms: C_7  and  C_9
REMARK    7  A    between atoms: C_9  and  N_10
REMARK    8  A    between atoms: N_10  and  C_11
REMARK    9  A    between atoms: C_11  and  C_12
REMARK   10  A    between atoms: C_11  and  C_13
REMARK   11  A    between atoms: C_11  and  C_14
REMARK   12  A    between atoms: C_15  and  C_16
REMARK                            x       y       z     vdW  Elec       q    Type
REMARK                         _______ _______ _______ _____ _____    ______ ____
ROOT
ATOM      1  O   UNL     1       4.355   3.829  17.022  0.00  0.00    +0.000 OA
ENDROOT
BRANCH   1   5
ATOM      2  C   UNL     1       2.258   7.943  18.565  0.00  0.00    +0.000 C 
ATOM      3  C   UNL     1       2.777   6.546  18.553  0.00  0.00    +0.000 A 
ATOM      4  N   UNL     1       3.360   5.980  17.520  0.00  0.00    +0.000 NA
ATOM      5  C   UNL     1       3.728   4.692  17.850  0.00  0.00    +0.000 A 
ATOM      6  C   UNL     1       3.417   4.278  19.126  0.00  0.00    +0.000 A 
ATOM      7  S   UNL     1       2.634   5.560  19.954  0.00  0.00    +0.000 S 
BRANCH   6   8
ATOM      8  C   UNL     1       3.659   3.004  19.769  0.00  0.00    +0.000 C 
ATOM      9  N   UNL     1       4.937   2.513  19.697  0.00  0.00    +0.000 N 
ATOM     10  O   UNL     1       2.809   2.338  20.363  0.00  0.00    +0.000 OA
ATOM     11  H   UNL     1       5.673   2.996  19.189  0.00  0.00    +0.000 HD
ATOM     12  H   UNL     1       5.138   1.617  20.114  0.00  0.00    +0.000 HD
ENDBRANCH   6   8
ENDBRANCH   1   5
BRANCH   1  13
ATOM     13  C   UNL     1       5.642   4.278  16.624  0.00  0.00    +0.000 C 
BRANCH  13  14
ATOM     14  C   UNL     1       5.490   4.878  15.224  0.00  0.00    +0.000 C 
BRANCH  14  15
ATOM     15  O   UNL     1       5.561   6.314  15.269  0.00  0.00    +0.000 OA
ATOM     16  H   UNL     1       4.767   6.667  14.831  0.00  0.00    +0.000 HD
ENDBRANCH  14  15
BRANCH  14  17
ATOM     17  C   UNL     1       6.586   4.355  14.294  0.00  0.00    +0.000 C 
BRANCH  17  18
ATOM     18  N   UNL     1       6.194   3.122  13.602  0.00  0.00    +0.000 NA
ATOM     19  H   UNL     1       5.291   2.809  13.965  0.00  0.00    +0.000 HD
BRANCH  18  20
ATOM     20  C   UNL     1       6.111   3.238  12.134  0.00  0.00    +0.000 C 
ATOM     21  C   UNL     1       6.983   4.392  11.612  0.00  0.00    +0.000 C 
ATOM     22  C   UNL     1       6.623   1.916  11.528  0.00  0.00    +0.000 C 
ATOM     23  C   UNL     1       4.655   3.440  11.691  0.00  0.00    +0.000 C 
ENDBRANCH  18  20
ENDBRANCH  17  18
ENDBRANCH  14  17
ENDBRANCH  13  14
ENDBRANCH   1  13
TORSDOF 8
ENDMDL
MODEL 8
REMARK VINA RESULT:      -6.1      3.201      6.124
REMARK  Name = 
REMARK  12 active torsions:
REMARK  status: ('A' for Active; 'I' for Inactive)
REMARK    1  A    between atoms: C_1  and  C_2
REMARK    2  A    between atoms: C_4  and  O_5
REMARK    3  A    between atoms: O_5  and  C_6
REMARK    4  A    between atoms: C_6  and  C_7
REMARK    5  A    between atoms: C_7  and  O_8
REMARK    6  A    between atoms: C_7  and  C_9
REMARK    7  A    between atoms: C_9  and  N_10
REMARK    8  A    between atoms: N_10  and  C_11
REMARK    9  A    between atoms: C_11  and  C_12
REMARK   10  A    between atoms: C_11  and  C_13
REMARK   11  A    between atoms: C_11  and  C_14
REMARK   12  A    between atoms: C_15  and  C_16
REMARK                            x       y       z     vdW  Elec       q    Type
REMARK                         _______ _______ _______ _____ _____    ______ ____
ROOT
ATOM      1  O   UNL     1       5.628   4.423  17.479  0.00  0.00    +0.000 OA
ENDROOT
BRANCH   1   5
ATOM      2  C   UNL     1       2.308   7.760  18.721  0.00  0.00    +0.000 C 
ATOM      3  C   UNL     1       3.025   6.457  18.618  0.00  0.00    +0.000 A 
ATOM      4  N   UNL     1       4.127   6.270  17.928  0.00  0.00    +0.000 NA
ATOM      5  C   UNL     1       4.530   4.956  18.054  0.00  0.00    +0.000 A 
ATOM      6  C   UNL     1       3.729   4.146  18.830  0.00  0.00    +0.000 A 
ATOM      7  S   UNL     1       2.418   5.071  19.435  0.00  0.00    +0.000 S 
BRANCH   6   8
ATOM      8  C   UNL     1       3.871   2.742  19.151  0.00  0.00    +0.000 C 
ATOM      9  N   UNL     1       5.032   2.369  19.778  0.00  0.00    +0.000 N 
ATOM     10  O   UNL     1       3.036   1.871  18.900  0.00  0.00    +0.000 OA
ATOM     11  H   UNL     1       5.775   3.034  19.978  0.00  0.00    +0.000 HD
ATOM     12  H   UNL     1       5.176   1.396  19.997  0.00  0.00    +0.000 HD
ENDBRANCH   6   8
ENDBRANCH   1   5
BRANCH   1  13
ATOM     13  C   UNL     1       5.442   4.116  16.105  0.00  0.00    +0.000 C 
BRANCH  13  14
ATOM     14  C   UNL     1       6.267   5.128  15.307  0.00  0.00    +0.000 C 
BRANCH  14  15
ATOM     15  O   UNL     1       7.269   5.742  16.136  0.00  0.00    +0.000 OA
ATOM     16  H   UNL     1       7.977   6.074  15.556  0.00  0.00    +0.000 HD
ENDBRANCH  14  15
BRANCH  14  17
ATOM     17  C   UNL     1       6.952   4.445  14.122  0.00  0.00    +0.000 C 
BRANCH  17  18
ATOM     18  N   UNL     1       6.190   3.297  13.618  0.00  0.00    +0.000 NA
ATOM     19  H   UNL     1       5.249   3.321  14.018  0.00  0.00    +0.000 HD
BRANCH  18  20
ATOM     20  C   UNL     1       6.087   3.221  12.149  0.00  0.00    +0.000 C 
ATOM     21  C   UNL     1       6.380   1.801  11.638  0.00  0.00    +0.000 C 
ATOM     22  C   UNL     1       4.644   3.600  11.758  0.00  0.00    +0.000 C 
ATOM     23  C   UNL     1       7.044   4.224  11.488  0.00  0.00    +0.000 C 
ENDBRANCH  18  20
ENDBRANCH  17  18
ENDBRANCH  14  17
ENDBRANCH  13  14
ENDBRANCH   1  13
TORSDOF 8
ENDMDL
MODEL 9
REMARK VINA RESULT:      -6.1      2.277      3.195
REMARK  Name = 
REMARK  12 active torsions:
REMARK  status: ('A' for Active; 'I' for Inactive)
REMARK    1  A    between atoms: C_1  and  C_2
REMARK    2  A    between atoms: C_4  and  O_5
REMARK    3  A    between atoms: O_5  and  C_6
REMARK    4  A    between atoms: C_6  and  C_7
REMARK    5  A    between atoms: C_7  and  O_8
REMARK    6  A    between atoms: C_7  and  C_9
REMARK    7  A    between atoms: C_9  and  N_10
REMARK    8  A    between atoms: N_10  and  C_11
REMARK    9  A    between atoms: C_11  and  C_12
REMARK   10  A    between atoms: C_11  and  C_13
REMARK   11  A    between atoms: C_11  and  C_14
REMARK   12  A    between atoms: C_15  and  C_16
REMARK                            x       y       z     vdW  Elec       q    Type
REMARK                         _______ _______ _______ _____ _____    ______ ____
ROOT
ATOM      1  O   UNL     1       4.872   3.672  17.063  0.00  0.00    +0.000 OA
ENDROOT
BRANCH   1   5
ATOM      2  C   UNL     1       5.998   3.603  12.326  0.00  0.00    +0.000 C 
ATOM      3  C   UNL     1       6.068   3.895  13.787  0.00  0.00    +0.000 A 
ATOM      4  N   UNL     1       5.184   3.486  14.668  0.00  0.00    +0.000 NA
ATOM      5  C   UNL     1       5.555   3.920  15.925  0.00  0.00    +0.000 A 
ATOM      6  C   UNL     1       6.712   4.664  15.995  0.00  0.00    +0.000 A 
ATOM      7  S   UNL     1       7.370   4.823  14.420  0.00  0.00    +0.000 S 
BRANCH   6   8
ATOM      8  C   UNL     1       7.359   5.260  17.145  0.00  0.00    +0.000 C 
ATOM      9  N   UNL     1       7.639   4.424  18.194  0.00  0.00    +0.000 N 
ATOM     10  O   UNL     1       7.665   6.450  17.245  0.00  0.00    +0.000 OA
ATOM     11  H   UNL     1       7.378   3.442  18.187  0.00  0.00    +0.000 HD
ATOM     12  H   UNL     1       8.069   4.809  19.021  0.00  0.00    +0.000 HD
ENDBRANCH   6   8
ENDBRANCH   1   5
BRANCH   1  13
ATOM     13  C   UNL     1       3.621   4.339  17.117  0.00  0.00    +0.000 C 
BRANCH  13  14
ATOM     14  C   UNL     1       3.799   5.547  18.040  0.00  0.00    +0.000 C 
BRANCH  14  15
ATOM     15  O   UNL     1       2.687   6.451  17.925  0.00  0.00    +0.000 OA
ATOM     16  H   UNL     1       2.447   6.748  18.820  0.00  0.00    +0.000 HD
ENDBRANCH  14  15
BRANCH  14  17
ATOM     17  C   UNL     1       3.924   5.095  19.496  0.00  0.00    +0.000 C 
BRANCH  17  18
ATOM     18  N   UNL     1       3.390   3.745  19.712  0.00  0.00    +0.000 NA
ATOM     19  H   UNL     1       4.078   3.194  20.230  0.00  0.00    +0.000 HD
BRANCH  18  20
ATOM     20  C   UNL     1       2.099   3.699  20.424  0.00  0.00    +0.000 C 
ATOM     21  C   UNL     1       0.980   3.148  19.524  0.00  0.00    +0.000 C 
ATOM     22  C   UNL     1       2.265   2.762  21.638  0.00  0.00    +0.000 C 
ATOM     23  C   UNL     1       1.717   5.094  20.941  0.00  0.00    +0.000 C 
ENDBRANCH  18  20
ENDBRANCH  17  18
ENDBRANCH  14  17
ENDBRANCH  13  14
ENDBRANCH   1  13
TORSDOF 8
ENDMDL
