MODEL 1
REMARK VINA RESULT:      -6.1      0.000      0.000
REMARK  Name = 
REMARK  6 active torsions:
REMARK  status: ('A' for Active; 'I' for Inactive)
REMARK    1  A    between atoms: C_1  and  C_2
REMARK    2  A    between atoms: C_2  and  O_3
REMARK    3  A    between atoms: O_3  and  C_4
REMARK    4  A    between atoms: C_4  and  C_6
REMARK    5  A    between atoms: N_22  and  C_23
REMARK    6  A    between atoms: C_26  and  C_27
REMARK                            x       y       z     vdW  Elec       q    Type
REMARK                         _______ _______ _______ _____ _____    ______ ____
ROOT
ATOM      1  C   UNL     1      10.082  14.650  18.498  0.00  0.00    +0.000 C 
ATOM      2  C   UNL     1      10.096  14.879  20.035  0.00  0.00    +0.000 C 
ATOM      3  C   UNL     1       9.907  16.208  20.725  0.00  0.00    +0.000 C 
ATOM      4  O   UNL     1       9.975  16.032  22.161  0.00  0.00    +0.000 OA
ATOM      5  C   UNL     1       9.215  15.009  22.673  0.00  0.00    +0.000 A 
ATOM      6  C   UNL     1       8.962  15.031  24.045  0.00  0.00    +0.000 A 
ATOM      7  C   UNL     1       8.141  14.058  24.628  0.00  0.00    +0.000 A 
ATOM      8  C   UNL     1       7.539  13.094  23.825  0.00  0.00    +0.000 A 
ATOM      9 BR   UNL     1       6.406  11.787  24.587  0.00  0.00    +0.000 Br
ATOM     10  C   UNL     1       7.789  13.070  22.459  0.00  0.00    +0.000 A 
ATOM     11  C   UNL     1       8.704  13.970  21.892  0.00  0.00    +0.000 A 
ATOM     12  C   UNL     1       9.024  13.911  20.445  0.00  0.00    +0.000 C 
ATOM     13  N   UNL     1       9.584  12.743  19.786  0.00  0.00    +0.000 N 
ATOM     14  C   UNL     1       9.685  11.469  20.304  0.00  0.00    +0.000 C 
ATOM     15  O   UNL     1       9.673  11.163  21.488  0.00  0.00    +0.000 OA
ATOM     16  C   UNL     1       9.868  10.448  19.213  0.00  0.00    +0.000 C 
ATOM     17  N   UNL     1       8.843  10.786  18.209  0.00  0.00    +0.000 N 
ATOM     18  C   UNL     1       7.993   9.677  17.825  0.00  0.00    +0.000 C 
ATOM     19  C   UNL     1       8.680  12.150  17.753  0.00  0.00    +0.000 C 
ATOM     20  O   UNL     1       7.831  12.505  16.947  0.00  0.00    +0.000 OA
ATOM     21  C   UNL     1       9.830  13.091  18.346  0.00  0.00    +0.000 C 
ATOM     22  C   UNL     1      11.094  12.594  17.594  0.00  0.00    +0.000 C 
ENDROOT
BRANCH   1  23
ATOM     23  C   UNL     1       9.307  15.706  17.773  0.00  0.00    +0.000 C 
ATOM     24  O   UNL     1       8.083  15.765  17.872  0.00  0.00    +0.000 OA
BRANCH  23  25
ATOM     25  O   UNL     1      10.058  16.542  17.050  0.00  0.00    +0.000 OA
BRANCH  25  27
ATOM     26  C   UNL     1      11.516  18.437  17.449  0.00  0.00    +0.000 C 
ATOM     27  C   UNL     1      10.103  17.891  17.543  0.00  0.00    +0.000 C 
ENDBRANCH  25  27
ENDBRANCH  23  25
ENDBRANCH   1  23
TORSDOF 3
ENDMDL
MODEL 2
REMARK VINA RESULT:      -6.1     12.184     13.914
REMARK  Name = 
REMARK  6 active torsions:
REMARK  status: ('A' for Active; 'I' for Inactive)
REMARK    1  A    between atoms: C_1  and  C_2
REMARK    2  A    between atoms: C_2  and  O_3
REMARK    3  A    between atoms: O_3  and  C_4
REMARK    4  A    between atoms: C_4  and  C_6
REMARK    5  A    between atoms: N_22  and  C_23
REMARK    6  A    between atoms: C_26  and  C_27
REMARK                            x       y       z     vdW  Elec       q    Type
REMARK                         _______ _______ _______ _____ _____    ______ ____
ROOT
ATOM      1  C   UNL     1      -2.957  11.347  17.578  0.00  0.00    +0.000 C 
ATOM      2  C   UNL     1      -4.326  12.005  17.902  0.00  0.00    +0.000 C 
ATOM      3  C   UNL     1      -5.664  11.551  17.370  0.00  0.00    +0.000 C 
ATOM      4  O   UNL     1      -6.716  12.398  17.893  0.00  0.00    +0.000 OA
ATOM      5  C   UNL     1      -6.685  12.619  19.248  0.00  0.00    +0.000 A 
ATOM      6  C   UNL     1      -7.852  13.107  19.839  0.00  0.00    +0.000 A 
ATOM      7  C   UNL     1      -7.916  13.293  21.225  0.00  0.00    +0.000 A 
ATOM      8  C   UNL     1      -6.828  12.946  22.019  0.00  0.00    +0.000 A 
ATOM      9 BR   UNL     1      -6.904  13.166  23.895  0.00  0.00    +0.000 Br
ATOM     10  C   UNL     1      -5.666  12.460  21.434  0.00  0.00    +0.000 A 
ATOM     11  C   UNL     1      -5.557  12.384  20.037  0.00  0.00    +0.000 A 
ATOM     12  C   UNL     1      -4.298  11.925  19.401  0.00  0.00    +0.000 C 
ATOM     13  N   UNL     1      -3.013  12.578  19.584  0.00  0.00    +0.000 N 
ATOM     14  C   UNL     1      -2.698  13.539  20.522  0.00  0.00    +0.000 C 
ATOM     15  O   UNL     1      -3.487  14.269  21.106  0.00  0.00    +0.000 OA
ATOM     16  C   UNL     1      -1.211  13.637  20.729  0.00  0.00    +0.000 C 
ATOM     17  N   UNL     1      -0.763  12.241  20.886  0.00  0.00    +0.000 N 
ATOM     18  C   UNL     1       0.026  11.997  22.076  0.00  0.00    +0.000 C 
ATOM     19  C   UNL     1      -1.188  11.221  19.951  0.00  0.00    +0.000 C 
ATOM     20  O   UNL     1      -0.880  10.041  20.039  0.00  0.00    +0.000 OA
ATOM     21  C   UNL     1      -2.000  11.867  18.733  0.00  0.00    +0.000 C 
ATOM     22  C   UNL     1      -0.896  12.643  17.964  0.00  0.00    +0.000 C 
ENDROOT
BRANCH   1  23
ATOM     23  C   UNL     1      -3.095   9.912  17.178  0.00  0.00    +0.000 C 
ATOM     24  O   UNL     1      -3.597   9.092  17.946  0.00  0.00    +0.000 OA
BRANCH  23  25
ATOM     25  O   UNL     1      -2.643   9.635  15.951  0.00  0.00    +0.000 OA
BRANCH  25  27
ATOM     26  C   UNL     1      -3.755   9.956  13.821  0.00  0.00    +0.000 C 
ATOM     27  C   UNL     1      -2.981  10.610  14.951  0.00  0.00    +0.000 C 
ENDBRANCH  25  27
ENDBRANCH  23  25
ENDBRANCH   1  23
TORSDOF 3
ENDMDL
MODEL 3
REMARK VINA RESULT:      -6.1     11.077     13.065
REMARK  Name = 
REMARK  6 active torsions:
REMARK  status: ('A' for Active; 'I' for Inactive)
REMARK    1  A    between atoms: C_1  and  C_2
REMARK    2  A    between atoms: C_2  and  O_3
REMARK    3  A    between atoms: O_3  and  C_4
REMARK    4  A    between atoms: C_4  and  C_6
REMARK    5  A    between atoms: N_22  and  C_23
REMARK    6  A    between atoms: C_26  and  C_27
REMARK                            x       y       z     vdW  Elec       q    Type
REMARK                         _______ _______ _______ _____ _____    ______ ____
ROOT
ATOM      1  C   UNL     1      -0.607  12.220  19.152  0.00  0.00    +0.000 C 
ATOM      2  C   UNL     1      -2.009  12.224  18.485  0.00  0.00    +0.000 C 
ATOM      3  C   UNL     1      -2.524  11.183  17.519  0.00  0.00    +0.000 C 
ATOM      4  O   UNL     1      -3.874  11.512  17.113  0.00  0.00    +0.000 OA
ATOM      5  C   UNL     1      -4.743  11.827  18.130  0.00  0.00    +0.000 A 
ATOM      6  C   UNL     1      -6.107  11.789  17.835  0.00  0.00    +0.000 A 
ATOM      7  C   UNL     1      -7.052  12.032  18.838  0.00  0.00    +0.000 A 
ATOM      8  C   UNL     1      -6.630  12.266  20.142  0.00  0.00    +0.000 A 
ATOM      9 BR   UNL     1      -7.891  12.572  21.516  0.00  0.00    +0.000 Br
ATOM     10  C   UNL     1      -5.273  12.304  20.439  0.00  0.00    +0.000 A 
ATOM     11  C   UNL     1      -4.323  12.178  19.415  0.00  0.00    +0.000 A 
ATOM     12  C   UNL     1      -2.873  12.279  19.712  0.00  0.00    +0.000 C 
ATOM     13  N   UNL     1      -2.248  13.447  20.310  0.00  0.00    +0.000 N 
ATOM     14  C   UNL     1      -2.887  14.516  20.903  0.00  0.00    +0.000 C 
ATOM     15  O   UNL     1      -4.046  14.862  20.719  0.00  0.00    +0.000 OA
ATOM     16  C   UNL     1      -1.955  15.280  21.804  0.00  0.00    +0.000 C 
ATOM     17  N   UNL     1      -1.287  14.245  22.614  0.00  0.00    +0.000 N 
ATOM     18  C   UNL     1      -1.356  14.468  24.044  0.00  0.00    +0.000 C 
ATOM     19  C   UNL     1      -0.712  13.074  21.986  0.00  0.00    +0.000 C 
ATOM     20  O   UNL     1      -0.172  12.164  22.598  0.00  0.00    +0.000 OA
ATOM     21  C   UNL     1      -0.770  13.198  20.391  0.00  0.00    +0.000 C 
ATOM     22  C   UNL     1       0.262  14.322  20.102  0.00  0.00    +0.000 C 
ENDROOT
BRANCH   1  23
ATOM     23  C   UNL     1      -0.017  10.847  19.230  0.00  0.00    +0.000 C 
ATOM     24  O   UNL     1       0.901  10.515  18.483  0.00  0.00    +0.000 OA
BRANCH  23  25
ATOM     25  O   UNL     1      -0.567  10.063  20.163  0.00  0.00    +0.000 OA
BRANCH  25  27
ATOM     26  C   UNL     1      -0.315   8.621  22.095  0.00  0.00    +0.000 C 
ATOM     27  C   UNL     1       0.367   9.252  20.894  0.00  0.00    +0.000 C 
ENDBRANCH  25  27
ENDBRANCH  23  25
ENDBRANCH   1  23
TORSDOF 3
ENDMDL
MODEL 4
REMARK VINA RESULT:      -6.0      9.348     11.487
REMARK  Name = 
REMARK  6 active torsions:
REMARK  status: ('A' for Active; 'I' for Inactive)
REMARK    1  A    between atoms: C_1  and  C_2
REMARK    2  A    between atoms: C_2  and  O_3
REMARK    3  A    between atoms: O_3  and  C_4
REMARK    4  A    between atoms: C_4  and  C_6
REMARK    5  A    between atoms: N_22  and  C_23
REMARK    6  A    between atoms: C_26  and  C_27
REMARK                            x       y       z     vdW  Elec       q    Type
REMARK                         _______ _______ _______ _____ _____    ______ ____
ROOT
ATOM      1  C   UNL     1      -1.608  14.176  22.910  0.00  0.00    +0.000 C 
ATOM      2  C   UNL     1      -1.084  12.715  22.943  0.00  0.00    +0.000 C 
ATOM      3  C   UNL     1      -1.898  11.499  23.316  0.00  0.00    +0.000 C 
ATOM      4  O   UNL     1      -1.078  10.310  23.227  0.00  0.00    +0.000 OA
ATOM      5  C   UNL     1      -0.345  10.175  22.072  0.00  0.00    +0.000 A 
ATOM      6  C   UNL     1       0.158   8.906  21.784  0.00  0.00    +0.000 A 
ATOM      7  C   UNL     1       0.857   8.677  20.593  0.00  0.00    +0.000 A 
ATOM      8  C   UNL     1       1.008   9.710  19.673  0.00  0.00    +0.000 A 
ATOM      9 BR   UNL     1       1.926   9.417  18.047  0.00  0.00    +0.000 Br
ATOM     10  C   UNL     1       0.508  10.975  19.958  0.00  0.00    +0.000 A 
ATOM     11  C   UNL     1      -0.088  11.235  21.201  0.00  0.00    +0.000 A 
ATOM     12  C   UNL     1      -0.570  12.597  21.537  0.00  0.00    +0.000 C 
ATOM     13  N   UNL     1       0.283  13.774  21.567  0.00  0.00    +0.000 N 
ATOM     14  C   UNL     1       1.568  13.878  21.076  0.00  0.00    +0.000 C 
ATOM     15  O   UNL     1       2.344  12.955  20.871  0.00  0.00    +0.000 OA
ATOM     16  C   UNL     1       1.954  15.315  20.853  0.00  0.00    +0.000 C 
ATOM     17  N   UNL     1       0.810  15.901  20.130  0.00  0.00    +0.000 N 
ATOM     18  C   UNL     1       1.165  16.586  18.903  0.00  0.00    +0.000 C 
ATOM     19  C   UNL     1      -0.544  15.694  20.600  0.00  0.00    +0.000 C 
ATOM     20  O   UNL     1      -1.538  16.124  20.033  0.00  0.00    +0.000 OA
ATOM     21  C   UNL     1      -0.547  14.943  22.013  0.00  0.00    +0.000 C 
ATOM     22  C   UNL     1       0.021  16.025  22.971  0.00  0.00    +0.000 C 
ENDROOT
BRANCH   1  23
ATOM     23  C   UNL     1      -3.090  14.245  22.710  0.00  0.00    +0.000 C 
ATOM     24  O   UNL     1      -3.578  14.120  21.588  0.00  0.00    +0.000 OA
BRANCH  23  25
ATOM     25  O   UNL     1      -3.790  14.437  23.832  0.00  0.00    +0.000 OA
BRANCH  25  27
ATOM     26  C   UNL     1      -5.099  12.526  24.547  0.00  0.00    +0.000 C 
ATOM     27  C   UNL     1      -5.107  13.862  23.826  0.00  0.00    +0.000 C 
ENDBRANCH  25  27
ENDBRANCH  23  25
ENDBRANCH   1  23
TORSDOF 3
ENDMDL
MODEL 5
REMARK VINA RESULT:      -6.0     10.641     12.712
REMARK  Name = 
REMARK  6 active torsions:
REMARK  status: ('A' for Active; 'I' for Inactive)
REMARK    1  A    between atoms: C_1  and  C_2
REMARK    2  A    between atoms: C_2  and  O_3
REMARK    3  A    between atoms: O_3  and  C_4
REMARK    4  A    between atoms: C_4  and  C_6
REMARK    5  A    between atoms: N_22  and  C_23
REMARK    6  A    between atoms: C_26  and  C_27
REMARK                            x       y       z     vdW  Elec       q    Type
REMARK                         _______ _______ _______ _____ _____    ______ ____
ROOT
ATOM      1  C   UNL     1      -0.231  11.647  19.349  0.00  0.00    +0.000 C 
ATOM      2  C   UNL     1      -1.519  11.792  18.493  0.00  0.00    +0.000 C 
ATOM      3  C   UNL     1      -2.025  10.781  17.492  0.00  0.00    +0.000 C 
ATOM      4  O   UNL     1      -3.256  11.254  16.894  0.00  0.00    +0.000 OA
ATOM      5  C   UNL     1      -4.207  11.716  17.771  0.00  0.00    +0.000 A 
ATOM      6  C   UNL     1      -5.512  11.832  17.289  0.00  0.00    +0.000 A 
ATOM      7  C   UNL     1      -6.547  12.233  18.143  0.00  0.00    +0.000 A 
ATOM      8  C   UNL     1      -6.278  12.470  19.488  0.00  0.00    +0.000 A 
ATOM      9 BR   UNL     1      -7.664  12.987  20.663  0.00  0.00    +0.000 Br
ATOM     10  C   UNL     1      -4.980  12.355  19.970  0.00  0.00    +0.000 A 
ATOM     11  C   UNL     1      -3.924  12.070  19.092  0.00  0.00    +0.000 A 
ATOM     12  C   UNL     1      -2.526  12.006  19.586  0.00  0.00    +0.000 C 
ATOM     13  N   UNL     1      -1.845  13.114  20.234  0.00  0.00    +0.000 N 
ATOM     14  C   UNL     1      -2.417  14.278  20.703  0.00  0.00    +0.000 C 
ATOM     15  O   UNL     1      -3.487  14.754  20.351  0.00  0.00    +0.000 OA
ATOM     16  C   UNL     1      -1.526  14.961  21.705  0.00  0.00    +0.000 C 
ATOM     17  N   UNL     1      -1.111  13.888  22.627  0.00  0.00    +0.000 N 
ATOM     18  C   UNL     1      -1.343  14.181  24.028  0.00  0.00    +0.000 C 
ATOM     19  C   UNL     1      -0.609  12.630  22.117  0.00  0.00    +0.000 C 
ATOM     20  O   UNL     1      -0.277  11.689  22.822  0.00  0.00    +0.000 OA
ATOM     21  C   UNL     1      -0.435  12.689  20.527  0.00  0.00    +0.000 C 
ATOM     22  C   UNL     1       0.761  13.666  20.355  0.00  0.00    +0.000 C 
ENDROOT
BRANCH   1  23
ATOM     23  C   UNL     1       0.163  10.216  19.545  0.00  0.00    +0.000 C 
ATOM     24  O   UNL     1      -0.394   9.522  20.394  0.00  0.00    +0.000 OA
BRANCH  23  25
ATOM     25  O   UNL     1       1.134   9.794  18.729  0.00  0.00    +0.000 OA
BRANCH  25  27
ATOM     26  C   UNL     1       2.528   7.969  17.954  0.00  0.00    +0.000 C 
ATOM     27  C   UNL     1       1.754   8.558  19.120  0.00  0.00    +0.000 C 
ENDBRANCH  25  27
ENDBRANCH  23  25
ENDBRANCH   1  23
TORSDOF 3
ENDMDL
MODEL 6
REMARK VINA RESULT:      -6.0      9.348     11.316
REMARK  Name = 
REMARK  6 active torsions:
REMARK  status: ('A' for Active; 'I' for Inactive)
REMARK    1  A    between atoms: C_1  and  C_2
REMARK    2  A    between atoms: C_2  and  O_3
REMARK    3  A    between atoms: O_3  and  C_4
REMARK    4  A    between atoms: C_4  and  C_6
REMARK    5  A    between atoms: N_22  and  C_23
REMARK    6  A    between atoms: C_26  and  C_27
REMARK                            x       y       z     vdW  Elec       q    Type
REMARK                         _______ _______ _______ _____ _____    ______ ____
ROOT
ATOM      1  C   UNL     1      -1.657  14.305  22.893  0.00  0.00    +0.000 C 
ATOM      2  C   UNL     1      -1.169  12.832  22.962  0.00  0.00    +0.000 C 
ATOM      3  C   UNL     1      -2.018  11.644  23.346  0.00  0.00    +0.000 C 
ATOM      4  O   UNL     1      -1.225  10.434  23.291  0.00  0.00    +0.000 OA
ATOM      5  C   UNL     1      -0.479  10.259  22.151  0.00  0.00    +0.000 A 
ATOM      6  C   UNL     1      -0.002   8.973  21.894  0.00  0.00    +0.000 A 
ATOM      7  C   UNL     1       0.708   8.705  20.718  0.00  0.00    +0.000 A 
ATOM      8  C   UNL     1       0.897   9.716  19.781  0.00  0.00    +0.000 A 
ATOM      9 BR   UNL     1       1.831   9.370  18.175  0.00  0.00    +0.000 Br
ATOM     10  C   UNL     1       0.423  10.997  20.034  0.00  0.00    +0.000 A 
ATOM     11  C   UNL     1      -0.184  11.296  21.263  0.00  0.00    +0.000 A 
ATOM     12  C   UNL     1      -0.638  12.675  21.566  0.00  0.00    +0.000 C 
ATOM     13  N   UNL     1       0.243  13.831  21.586  0.00  0.00    +0.000 N 
ATOM     14  C   UNL     1       1.537  13.895  21.113  0.00  0.00    +0.000 C 
ATOM     15  O   UNL     1       2.293  12.951  20.938  0.00  0.00    +0.000 OA
ATOM     16  C   UNL     1       1.961  15.318  20.868  0.00  0.00    +0.000 C 
ATOM     17  N   UNL     1       0.842  15.917  20.117  0.00  0.00    +0.000 N 
ATOM     18  C   UNL     1       1.231  16.570  18.883  0.00  0.00    +0.000 C 
ATOM     19  C   UNL     1      -0.523  15.752  20.571  0.00  0.00    +0.000 C 
ATOM     20  O   UNL     1      -1.498  16.194  19.981  0.00  0.00    +0.000 OA
ATOM     21  C   UNL     1      -0.565  15.028  21.998  0.00  0.00    +0.000 C 
ATOM     22  C   UNL     1       0.015  16.115  22.944  0.00  0.00    +0.000 C 
ENDROOT
BRANCH   1  23
ATOM     23  C   UNL     1      -3.134  14.405  22.669  0.00  0.00    +0.000 C 
ATOM     24  O   UNL     1      -3.898  14.615  23.610  0.00  0.00    +0.000 OA
BRANCH  23  25
ATOM     25  O   UNL     1      -3.511  14.256  21.396  0.00  0.00    +0.000 OA
BRANCH  25  27
ATOM     26  C   UNL     1      -4.230  12.503  19.884  0.00  0.00    +0.000 C 
ATOM     27  C   UNL     1      -4.510  13.247  21.178  0.00  0.00    +0.000 C 
ENDBRANCH  25  27
ENDBRANCH  23  25
ENDBRANCH   1  23
TORSDOF 3
ENDMDL
MODEL 7
REMARK VINA RESULT:      -5.9     12.738     14.357
REMARK  Name = 
REMARK  6 active torsions:
REMARK  status: ('A' for Active; 'I' for Inactive)
REMARK    1  A    between atoms: C_1  and  C_2
REMARK    2  A    between atoms: C_2  and  O_3
REMARK    3  A    between atoms: O_3  and  C_4
REMARK    4  A    between atoms: C_4  and  C_6
REMARK    5  A    between atoms: N_22  and  C_23
REMARK    6  A    between atoms: C_26  and  C_27
REMARK                            x       y       z     vdW  Elec       q    Type
REMARK                         _______ _______ _______ _____ _____    ______ ____
ROOT
ATOM      1  C   UNL     1      -5.968  14.322  21.082  0.00  0.00    +0.000 C 
ATOM      2  C   UNL     1      -4.503  14.594  20.645  0.00  0.00    +0.000 C 
ATOM      3  C   UNL     1      -3.514  15.465  21.383  0.00  0.00    +0.000 C 
ATOM      4  O   UNL     1      -2.248  15.476  20.682  0.00  0.00    +0.000 OA
ATOM      5  C   UNL     1      -1.760  14.247  20.311  0.00  0.00    +0.000 A 
ATOM      6  C   UNL     1      -0.408  14.175  19.974  0.00  0.00    +0.000 A 
ATOM      7  C   UNL     1       0.175  12.944  19.649  0.00  0.00    +0.000 A 
ATOM      8  C   UNL     1      -0.589  11.782  19.710  0.00  0.00    +0.000 A 
ATOM      9 BR   UNL     1       0.183  10.107  19.301  0.00  0.00    +0.000 Br
ATOM     10  C   UNL     1      -1.936  11.851  20.046  0.00  0.00    +0.000 A 
ATOM     11  C   UNL     1      -2.549  13.095  20.255  0.00  0.00    +0.000 A 
ATOM     12  C   UNL     1      -3.999  13.183  20.553  0.00  0.00    +0.000 C 
ATOM     13  N   UNL     1      -5.039  12.687  19.667  0.00  0.00    +0.000 N 
ATOM     14  C   UNL     1      -4.871  11.870  18.568  0.00  0.00    +0.000 C 
ATOM     15  O   UNL     1      -3.840  11.717  17.929  0.00  0.00    +0.000 OA
ATOM     16  C   UNL     1      -6.160  11.192  18.187  0.00  0.00    +0.000 C 
ATOM     17  N   UNL     1      -6.693  10.664  19.456  0.00  0.00    +0.000 N 
ATOM     18  C   UNL     1      -7.025   9.254  19.425  0.00  0.00    +0.000 C 
ATOM     19  C   UNL     1      -6.765  11.506  20.633  0.00  0.00    +0.000 C 
ATOM     20  O   UNL     1      -7.166  11.125  21.723  0.00  0.00    +0.000 OA
ATOM     21  C   UNL     1      -6.371  13.015  20.278  0.00  0.00    +0.000 C 
ATOM     22  C   UNL     1      -7.571  13.482  19.410  0.00  0.00    +0.000 C 
ENDROOT
BRANCH   1  23
ATOM     23  C   UNL     1      -6.164  14.502  22.555  0.00  0.00    +0.000 C 
ATOM     24  O   UNL     1      -6.594  15.563  23.006  0.00  0.00    +0.000 OA
BRANCH  23  25
ATOM     25  O   UNL     1      -5.846  13.431  23.289  0.00  0.00    +0.000 OA
BRANCH  25  27
ATOM     26  C   UNL     1      -3.839  12.404  24.181  0.00  0.00    +0.000 C 
ATOM     27  C   UNL     1      -4.742  13.625  24.189  0.00  0.00    +0.000 C 
ENDBRANCH  25  27
ENDBRANCH  23  25
ENDBRANCH   1  23
TORSDOF 3
ENDMDL
MODEL 8
REMARK VINA RESULT:      -5.9      0.947      1.594
REMARK  Name = 
REMARK  6 active torsions:
REMARK  status: ('A' for Active; 'I' for Inactive)
REMARK    1  A    between atoms: C_1  and  C_2
REMARK    2  A    between atoms: C_2  and  O_3
REMARK    3  A    between atoms: O_3  and  C_4
REMARK    4  A    between atoms: C_4  and  C_6
REMARK    5  A    between atoms: N_22  and  C_23
REMARK    6  A    between atoms: C_26  and  C_27
REMARK                            x       y       z     vdW  Elec       q    Type
REMARK                         _______ _______ _______ _____ _____    ______ ____
ROOT
ATOM      1  C   UNL     1       9.890  14.855  18.507  0.00  0.00    +0.000 C 
ATOM      2  C   UNL     1       9.952  15.046  20.047  0.00  0.00    +0.000 C 
ATOM      3  C   UNL     1       9.709  16.344  20.780  0.00  0.00    +0.000 C 
ATOM      4  O   UNL     1       9.845  16.138  22.207  0.00  0.00    +0.000 OA
ATOM      5  C   UNL     1       9.171  15.056  22.720  0.00  0.00    +0.000 A 
ATOM      6  C   UNL     1       8.972  15.029  24.102  0.00  0.00    +0.000 A 
ATOM      7  C   UNL     1       8.237  13.993  24.689  0.00  0.00    +0.000 A 
ATOM      8  C   UNL     1       7.663  13.013  23.885  0.00  0.00    +0.000 A 
ATOM      9 BR   UNL     1       6.645  11.619  24.654  0.00  0.00    +0.000 Br
ATOM     10  C   UNL     1       7.860  13.038  22.509  0.00  0.00    +0.000 A 
ATOM     11  C   UNL     1       8.694  14.007  21.932  0.00  0.00    +0.000 A 
ATOM     12  C   UNL     1       8.959  14.004  20.473  0.00  0.00    +0.000 C 
ATOM     13  N   UNL     1       9.563  12.890  19.762  0.00  0.00    +0.000 N 
ATOM     14  C   UNL     1       9.763  11.612  20.241  0.00  0.00    +0.000 C 
ATOM     15  O   UNL     1       9.817  11.277  21.415  0.00  0.00    +0.000 OA
ATOM     16  C   UNL     1       9.965  10.632  19.117  0.00  0.00    +0.000 C 
ATOM     17  N   UNL     1       8.881  10.929  18.162  0.00  0.00    +0.000 N 
ATOM     18  C   UNL     1       8.087   9.778  17.781  0.00  0.00    +0.000 C 
ATOM     19  C   UNL     1       8.616  12.291  17.749  0.00  0.00    +0.000 C 
ATOM     20  O   UNL     1       7.716  12.612  16.987  0.00  0.00    +0.000 OA
ATOM     21  C   UNL     1       9.729  13.287  18.323  0.00  0.00    +0.000 C 
ATOM     22  C   UNL     1      10.990  12.888  17.510  0.00  0.00    +0.000 C 
ENDROOT
BRANCH   1  23
ATOM     23  C   UNL     1       9.023  15.877  17.841  0.00  0.00    +0.000 C 
ATOM     24  O   UNL     1       9.516  16.885  17.336  0.00  0.00    +0.000 OA
BRANCH  23  25
ATOM     25  O   UNL     1       7.719  15.584  17.848  0.00  0.00    +0.000 OA
BRANCH  25  27
ATOM     26  C   UNL     1       5.480  15.990  18.681  0.00  0.00    +0.000 C 
ATOM     27  C   UNL     1       6.893  16.528  18.548  0.00  0.00    +0.000 C 
ENDBRANCH  25  27
ENDBRANCH  23  25
ENDBRANCH   1  23
TORSDOF 3
ENDMDL
MODEL 9
REMARK VINA RESULT:      -5.8      9.506     11.483
REMARK  Name = 
REMARK  6 active torsions:
REMARK  status: ('A' for Active; 'I' for Inactive)
REMARK    1  A    between atoms: C_1  and  C_2
REMARK    2  A    between atoms: C_2  and  O_3
REMARK    3  A    between atoms: O_3  and  C_4
REMARK    4  A    between atoms: C_4  and  C_6
REMARK    5  A    between atoms: N_22  and  C_23
REMARK    6  A    between atoms: C_26  and  C_27
REMARK                            x       y       z     vdW  Elec       q    Type
REMARK                         _______ _______ _______ _____ _____    ______ ____
ROOT
ATOM      1  C   UNL     1       0.271  11.554  18.528  0.00  0.00    +0.000 C 
ATOM      2  C   UNL     1      -1.266  11.765  18.476  0.00  0.00    +0.000 C 
ATOM      3  C   UNL     1      -2.294  10.677  18.273  0.00  0.00    +0.000 C 
ATOM      4  O   UNL     1      -3.625  11.248  18.288  0.00  0.00    +0.000 OA
ATOM      5  C   UNL     1      -3.896  12.103  19.328  0.00  0.00    +0.000 A 
ATOM      6  C   UNL     1      -5.239  12.381  19.589  0.00  0.00    +0.000 A 
ATOM      7  C   UNL     1      -5.594  13.191  20.674  0.00  0.00    +0.000 A 
ATOM      8  C   UNL     1      -4.605  13.682  21.521  0.00  0.00    +0.000 A 
ATOM      9 BR   UNL     1      -5.065  14.756  23.006  0.00  0.00    +0.000 Br
ATOM     10  C   UNL     1      -3.268  13.407  21.264  0.00  0.00    +0.000 A 
ATOM     11  C   UNL     1      -2.902  12.695  20.111  0.00  0.00    +0.000 A 
ATOM     12  C   UNL     1      -1.474  12.450  19.795  0.00  0.00    +0.000 C 
ATOM     13  N   UNL     1      -0.496  13.506  19.597  0.00  0.00    +0.000 N 
ATOM     14  C   UNL     1      -0.651  14.845  19.891  0.00  0.00    +0.000 C 
ATOM     15  O   UNL     1      -1.710  15.442  20.016  0.00  0.00    +0.000 OA
ATOM     16  C   UNL     1       0.680  15.539  20.000  0.00  0.00    +0.000 C 
ATOM     17  N   UNL     1       1.493  14.657  20.858  0.00  0.00    +0.000 N 
ATOM     18  C   UNL     1       2.102  15.322  21.993  0.00  0.00    +0.000 C 
ATOM     19  C   UNL     1       1.561  13.234  20.598  0.00  0.00    +0.000 C 
ATOM     20  O   UNL     1       2.188  12.442  21.286  0.00  0.00    +0.000 OA
ATOM     21  C   UNL     1       0.814  12.869  19.231  0.00  0.00    +0.000 C 
ATOM     22  C   UNL     1       1.749  13.491  18.159  0.00  0.00    +0.000 C 
ENDROOT
BRANCH   1  23
ATOM     23  C   UNL     1       0.641  10.162  18.939  0.00  0.00    +0.000 C 
ATOM     24  O   UNL     1       0.678   9.848  20.127  0.00  0.00    +0.000 OA
BRANCH  23  25
ATOM     25  O   UNL     1       0.904   9.338  17.920  0.00  0.00    +0.000 OA
BRANCH  25  27
ATOM     26  C   UNL     1       2.394   7.441  18.155  0.00  0.00    +0.000 C 
ATOM     27  C   UNL     1       2.274   8.918  17.824  0.00  0.00    +0.000 C 
ENDBRANCH  25  27
ENDBRANCH  23  25
ENDBRANCH   1  23
TORSDOF 3
ENDMDL
