MODEL 1
REMARK VINA RESULT:      -8.7      0.000      0.000
REMARK  Name = 
REMARK  3 active torsions:
REMARK  status: ('A' for Active; 'I' for Inactive)
REMARK    1  A    between atoms: C_2  and  C_5
REMARK    2  A    between atoms: N_3  and  O_4
REMARK    3  A    between atoms: C_8  and  C_9
REMARK                            x       y       z     vdW  Elec       q    Type
REMARK                         _______ _______ _______ _____ _____    ______ ____
ROOT
ATOM      1  C   UNL     1       2.607   6.984  18.769  0.00  0.00    +0.000 A 
ATOM      2  N   UNL     1       3.783   7.020  18.142  0.00  0.00    +0.000 NA
ATOM      3  C   UNL     1       4.564   5.923  18.158  0.00  0.00    +0.000 A 
ATOM      4  N   UNL     1       5.614   5.987  17.271  0.00  0.00    +0.000 N 
ATOM      5  C   UNL     1       5.270   6.398  15.903  0.00  0.00    +0.000 C 
ATOM      6  C   UNL     1       5.519   5.241  14.930  0.00  0.00    +0.000 C 
ATOM      7  C   UNL     1       6.910   4.630  15.100  0.00  0.00    +0.000 C 
ATOM      8  C   UNL     1       7.189   4.275  16.561  0.00  0.00    +0.000 C 
ATOM      9  C   UNL     1       6.959   5.488  17.463  0.00  0.00    +0.000 C 
ATOM     10  C   UNL     1       4.203   4.791  18.920  0.00  0.00    +0.000 A 
ATOM     11  C   UNL     1       5.004   3.653  19.231  0.00  0.00    +0.000 A 
ATOM     12  C   UNL     1       4.475   2.517  19.836  0.00  0.00    +0.000 A 
ATOM     13  C   UNL     1       3.123   2.478  20.114  0.00  0.00    +0.000 A 
ATOM     14  C   UNL     1       2.344   3.618  19.893  0.00  0.00    +0.000 A 
ATOM     15  C   UNL     1       2.874   4.795  19.368  0.00  0.00    +0.000 A 
ATOM     16  N   UNL     1       2.082   5.875  19.307  0.00  0.00    +0.000 NA
ENDROOT
BRANCH   1  20
ATOM     17  C   UNL     1       0.418  10.692  19.202  0.00  0.00    +0.000 A 
ATOM     18  C   UNL     1       0.583   9.842  20.299  0.00  0.00    +0.000 A 
ATOM     19  C   UNL     1       1.313   8.657  20.147  0.00  0.00    +0.000 A 
ATOM     20  C   UNL     1       1.896   8.274  18.918  0.00  0.00    +0.000 A 
ATOM     21  C   UNL     1       1.729   9.155  17.840  0.00  0.00    +0.000 A 
ATOM     22  C   UNL     1       1.005  10.345  17.980  0.00  0.00    +0.000 A 
BRANCH  17  24
ATOM     23  O   UNL     1      -1.180  12.168  20.144  0.00  0.00    +0.000 OA
ATOM     24  C   UNL     1      -0.345  11.973  19.261  0.00  0.00    +0.000 C 
ATOM     25  N   UNL     1      -0.082  12.937  18.316  0.00  0.00    +0.000 N 
ATOM     26  H   UNL     1       0.642  12.919  17.609  0.00  0.00    +0.000 HD
BRANCH  25  27
ATOM     27  O   UNL     1      -0.810  14.142  18.460  0.00  0.00    +0.000 OA
ATOM     28  H   UNL     1      -1.548  14.012  17.822  0.00  0.00    +0.000 HD
ENDBRANCH  25  27
ENDBRANCH  17  24
ENDBRANCH   1  20
TORSDOF 3
ENDMDL
MODEL 2
REMARK VINA RESULT:      -8.5      3.810      8.136
REMARK  Name = 
REMARK  3 active torsions:
REMARK  status: ('A' for Active; 'I' for Inactive)
REMARK    1  A    between atoms: C_2  and  C_5
REMARK    2  A    between atoms: N_3  and  O_4
REMARK    3  A    between atoms: C_8  and  C_9
REMARK                            x       y       z     vdW  Elec       q    Type
REMARK                         _______ _______ _______ _____ _____    ______ ____
ROOT
ATOM      1  C   UNL     1       1.633   8.653  19.775  0.00  0.00    +0.000 A 
ATOM      2  N   UNL     1       1.473   9.729  19.004  0.00  0.00    +0.000 NA
ATOM      3  C   UNL     1       0.717  10.747  19.455  0.00  0.00    +0.000 A 
ATOM      4  N   UNL     1       0.839  11.894  18.702  0.00  0.00    +0.000 N 
ATOM      5  C   UNL     1       2.214  12.317  18.403  0.00  0.00    +0.000 C 
ATOM      6  C   UNL     1       2.510  13.655  19.089  0.00  0.00    +0.000 C 
ATOM      7  C   UNL     1       1.428  14.699  18.816  0.00  0.00    +0.000 C 
ATOM      8  C   UNL     1       0.034  14.150  19.117  0.00  0.00    +0.000 C 
ATOM      9  C   UNL     1      -0.203  12.840  18.365  0.00  0.00    +0.000 C 
ATOM     10  C   UNL     1       0.009  10.639  20.671  0.00  0.00    +0.000 A 
ATOM     11  C   UNL     1      -1.000  11.510  21.178  0.00  0.00    +0.000 A 
ATOM     12  C   UNL     1      -1.493  11.397  22.474  0.00  0.00    +0.000 A 
ATOM     13  C   UNL     1      -0.963  10.431  23.308  0.00  0.00    +0.000 A 
ATOM     14  C   UNL     1      -0.036   9.518  22.797  0.00  0.00    +0.000 A 
ATOM     15  C   UNL     1       0.405   9.560  21.476  0.00  0.00    +0.000 A 
ATOM     16  N   UNL     1       1.197   8.571  21.040  0.00  0.00    +0.000 NA
ENDROOT
BRANCH   1  20
ATOM     17  C   UNL     1       3.604   5.222  18.024  0.00  0.00    +0.000 A 
ATOM     18  C   UNL     1       2.876   5.084  19.209  0.00  0.00    +0.000 A 
ATOM     19  C   UNL     1       2.226   6.199  19.750  0.00  0.00    +0.000 A 
ATOM     20  C   UNL     1       2.275   7.477  19.147  0.00  0.00    +0.000 A 
ATOM     21  C   UNL     1       2.997   7.580  17.949  0.00  0.00    +0.000 A 
ATOM     22  C   UNL     1       3.648   6.471  17.396  0.00  0.00    +0.000 A 
BRANCH  17  24
ATOM     23  O   UNL     1       4.015   2.927  17.592  0.00  0.00    +0.000 OA
ATOM     24  C   UNL     1       4.334   4.096  17.371  0.00  0.00    +0.000 C 
ATOM     25  N   UNL     1       5.360   4.394  16.506  0.00  0.00    +0.000 N 
ATOM     26  H   UNL     1       5.643   5.311  16.184  0.00  0.00    +0.000 HD
BRANCH  25  27
ATOM     27  O   UNL     1       5.977   3.279  15.890  0.00  0.00    +0.000 OA
ATOM     28  H   UNL     1       6.139   3.613  14.978  0.00  0.00    +0.000 HD
ENDBRANCH  25  27
ENDBRANCH  17  24
ENDBRANCH   1  20
TORSDOF 3
ENDMDL
MODEL 3
REMARK VINA RESULT:      -8.5      3.948      8.250
REMARK  Name = 
REMARK  3 active torsions:
REMARK  status: ('A' for Active; 'I' for Inactive)
REMARK    1  A    between atoms: C_2  and  C_5
REMARK    2  A    between atoms: N_3  and  O_4
REMARK    3  A    between atoms: C_8  and  C_9
REMARK                            x       y       z     vdW  Elec       q    Type
REMARK                         _______ _______ _______ _____ _____    ______ ____
ROOT
ATOM      1  C   UNL     1       1.522   8.475  20.057  0.00  0.00    +0.000 A 
ATOM      2  N   UNL     1       1.409   9.490  19.199  0.00  0.00    +0.000 NA
ATOM      3  C   UNL     1       0.672  10.560  19.550  0.00  0.00    +0.000 A 
ATOM      4  N   UNL     1       0.841  11.639  18.712  0.00  0.00    +0.000 N 
ATOM      5  C   UNL     1       2.233  12.002  18.412  0.00  0.00    +0.000 C 
ATOM      6  C   UNL     1       2.552  13.382  18.997  0.00  0.00    +0.000 C 
ATOM      7  C   UNL     1       1.505  14.428  18.616  0.00  0.00    +0.000 C 
ATOM      8  C   UNL     1       0.090  13.942  18.929  0.00  0.00    +0.000 C 
ATOM      9  C   UNL     1      -0.168  12.582  18.278  0.00  0.00    +0.000 C 
ATOM     10  C   UNL     1      -0.064  10.567  20.755  0.00  0.00    +0.000 A 
ATOM     11  C   UNL     1      -1.058  11.502  21.168  0.00  0.00    +0.000 A 
ATOM     12  C   UNL     1      -1.581  11.506  22.458  0.00  0.00    +0.000 A 
ATOM     13  C   UNL     1      -1.096  10.597  23.377  0.00  0.00    +0.000 A 
ATOM     14  C   UNL     1      -0.185   9.621  22.961  0.00  0.00    +0.000 A 
ATOM     15  C   UNL     1       0.285   9.547  21.652  0.00  0.00    +0.000 A 
ATOM     16  N   UNL     1       1.058   8.506  21.314  0.00  0.00    +0.000 NA
ENDROOT
BRANCH   1  20
ATOM     17  C   UNL     1       3.244   4.842  18.456  0.00  0.00    +0.000 A 
ATOM     18  C   UNL     1       3.371   6.045  17.759  0.00  0.00    +0.000 A 
ATOM     19  C   UNL     1       2.828   7.216  18.301  0.00  0.00    +0.000 A 
ATOM     20  C   UNL     1       2.144   7.236  19.538  0.00  0.00    +0.000 A 
ATOM     21  C   UNL     1       2.048   6.017  20.224  0.00  0.00    +0.000 A 
ATOM     22  C   UNL     1       2.590   4.840  19.693  0.00  0.00    +0.000 A 
BRANCH  17  24
ATOM     23  O   UNL     1       4.434   3.488  16.916  0.00  0.00    +0.000 OA
ATOM     24  C   UNL     1       3.784   3.542  17.960  0.00  0.00    +0.000 C 
ATOM     25  N   UNL     1       3.553   2.409  18.706  0.00  0.00    +0.000 N 
ATOM     26  H   UNL     1       3.117   2.354  19.616  0.00  0.00    +0.000 HD
BRANCH  25  27
ATOM     27  O   UNL     1       4.133   1.222  18.198  0.00  0.00    +0.000 OA
ATOM     28  H   UNL     1       5.081   1.475  18.119  0.00  0.00    +0.000 HD
ENDBRANCH  25  27
ENDBRANCH  17  24
ENDBRANCH   1  20
TORSDOF 3
ENDMDL
MODEL 4
REMARK VINA RESULT:      -8.4      1.540      1.802
REMARK  Name = 
REMARK  3 active torsions:
REMARK  status: ('A' for Active; 'I' for Inactive)
REMARK    1  A    between atoms: C_2  and  C_5
REMARK    2  A    between atoms: N_3  and  O_4
REMARK    3  A    between atoms: C_8  and  C_9
REMARK                            x       y       z     vdW  Elec       q    Type
REMARK                         _______ _______ _______ _____ _____    ______ ____
ROOT
ATOM      1  C   UNL     1       2.359   6.520  19.228  0.00  0.00    +0.000 A 
ATOM      2  N   UNL     1       3.587   6.594  18.712  0.00  0.00    +0.000 NA
ATOM      3  C   UNL     1       4.206   5.458  18.339  0.00  0.00    +0.000 A 
ATOM      4  N   UNL     1       5.340   5.676  17.589  0.00  0.00    +0.000 N 
ATOM      5  C   UNL     1       5.195   6.617  16.471  0.00  0.00    +0.000 C 
ATOM      6  C   UNL     1       5.383   5.882  15.139  0.00  0.00    +0.000 C 
ATOM      7  C   UNL     1       6.653   5.033  15.121  0.00  0.00    +0.000 C 
ATOM      8  C   UNL     1       6.732   4.119  16.343  0.00  0.00    +0.000 C 
ATOM      9  C   UNL     1       6.579   4.928  17.632  0.00  0.00    +0.000 C 
ATOM     10  C   UNL     1       3.621   4.199  18.592  0.00  0.00    +0.000 A 
ATOM     11  C   UNL     1       4.225   2.913  18.476  0.00  0.00    +0.000 A 
ATOM     12  C   UNL     1       3.489   1.736  18.576  0.00  0.00    +0.000 A 
ATOM     13  C   UNL     1       2.122   1.818  18.760  0.00  0.00    +0.000 A 
ATOM     14  C   UNL     1       1.532   3.069  18.961  0.00  0.00    +0.000 A 
ATOM     15  C   UNL     1       2.266   4.253  18.951  0.00  0.00    +0.000 A 
ATOM     16  N   UNL     1       1.638   5.392  19.276  0.00  0.00    +0.000 NA
ENDROOT
BRANCH   1  20
ATOM     17  C   UNL     1       0.661  10.087  20.994  0.00  0.00    +0.000 A 
ATOM     18  C   UNL     1       0.944   8.975  21.791  0.00  0.00    +0.000 A 
ATOM     19  C   UNL     1       1.514   7.837  21.208  0.00  0.00    +0.000 A 
ATOM     20  C   UNL     1       1.818   7.759  19.830  0.00  0.00    +0.000 A 
ATOM     21  C   UNL     1       1.540   8.896  19.059  0.00  0.00    +0.000 A 
ATOM     22  C   UNL     1       0.974  10.042  19.631  0.00  0.00    +0.000 A 
BRANCH  17  24
ATOM     23  O   UNL     1       0.197  12.410  20.926  0.00  0.00    +0.000 OA
ATOM     24  C   UNL     1       0.052  11.343  21.520  0.00  0.00    +0.000 C 
ATOM     25  N   UNL     1      -0.690  11.276  22.677  0.00  0.00    +0.000 N 
ATOM     26  H   UNL     1      -0.949  10.445  23.192  0.00  0.00    +0.000 HD
BRANCH  25  27
ATOM     27  O   UNL     1      -1.274  12.497  23.093  0.00  0.00    +0.000 OA
ATOM     28  H   UNL     1      -2.196  12.221  23.303  0.00  0.00    +0.000 HD
ENDBRANCH  25  27
ENDBRANCH  17  24
ENDBRANCH   1  20
TORSDOF 3
ENDMDL
MODEL 5
REMARK VINA RESULT:      -8.3      1.290      3.585
REMARK  Name = 
REMARK  3 active torsions:
REMARK  status: ('A' for Active; 'I' for Inactive)
REMARK    1  A    between atoms: C_2  and  C_5
REMARK    2  A    between atoms: N_3  and  O_4
REMARK    3  A    between atoms: C_8  and  C_9
REMARK                            x       y       z     vdW  Elec       q    Type
REMARK                         _______ _______ _______ _____ _____    ______ ____
ROOT
ATOM      1  C   UNL     1       2.844   7.092  18.294  0.00  0.00    +0.000 A 
ATOM      2  N   UNL     1       2.421   5.850  18.533  0.00  0.00    +0.000 NA
ATOM      3  C   UNL     1       3.072   4.819  17.963  0.00  0.00    +0.000 A 
ATOM      4  N   UNL     1       2.718   3.594  18.483  0.00  0.00    +0.000 N 
ATOM      5  C   UNL     1       2.715   3.501  19.949  0.00  0.00    +0.000 C 
ATOM      6  C   UNL     1       3.802   2.526  20.414  0.00  0.00    +0.000 C 
ATOM      7  C   UNL     1       3.738   1.191  19.673  0.00  0.00    +0.000 C 
ATOM      8  C   UNL     1       3.704   1.395  18.158  0.00  0.00    +0.000 C 
ATOM      9  C   UNL     1       2.571   2.344  17.768  0.00  0.00    +0.000 C 
ATOM     10  C   UNL     1       4.112   5.045  17.035  0.00  0.00    +0.000 A 
ATOM     11  C   UNL     1       4.744   4.096  16.180  0.00  0.00    +0.000 A 
ATOM     12  C   UNL     1       5.884   4.405  15.443  0.00  0.00    +0.000 A 
ATOM     13  C   UNL     1       6.440   5.663  15.572  0.00  0.00    +0.000 A 
ATOM     14  C   UNL     1       5.782   6.628  16.340  0.00  0.00    +0.000 A 
ATOM     15  C   UNL     1       4.593   6.362  17.016  0.00  0.00    +0.000 A 
ATOM     16  N   UNL     1       3.969   7.380  17.625  0.00  0.00    +0.000 NA
ENDROOT
BRANCH   1  20
ATOM     17  C   UNL     1       0.174  10.222  19.637  0.00  0.00    +0.000 A 
ATOM     18  C   UNL     1       0.672   9.285  20.546  0.00  0.00    +0.000 A 
ATOM     19  C   UNL     1       1.553   8.293  20.100  0.00  0.00    +0.000 A 
ATOM     20  C   UNL     1       1.965   8.191  18.752  0.00  0.00    +0.000 A 
ATOM     21  C   UNL     1       1.463   9.155  17.866  0.00  0.00    +0.000 A 
ATOM     22  C   UNL     1       0.585  10.155  18.301  0.00  0.00    +0.000 A 
BRANCH  17  24
ATOM     23  O   UNL     1      -0.925  11.633  21.192  0.00  0.00    +0.000 OA
ATOM     24  C   UNL     1      -0.770  11.313  20.014  0.00  0.00    +0.000 C 
ATOM     25  N   UNL     1      -1.453  11.964  19.012  0.00  0.00    +0.000 N 
ATOM     26  H   UNL     1      -1.334  11.847  18.014  0.00  0.00    +0.000 HD
BRANCH  25  27
ATOM     27  O   UNL     1      -2.297  13.017  19.440  0.00  0.00    +0.000 OA
ATOM     28  H   UNL     1      -2.181  13.677  18.718  0.00  0.00    +0.000 HD
ENDBRANCH  25  27
ENDBRANCH  17  24
ENDBRANCH   1  20
TORSDOF 3
ENDMDL
MODEL 6
REMARK VINA RESULT:      -8.3      1.017      1.392
REMARK  Name = 
REMARK  3 active torsions:
REMARK  status: ('A' for Active; 'I' for Inactive)
REMARK    1  A    between atoms: C_2  and  C_5
REMARK    2  A    between atoms: N_3  and  O_4
REMARK    3  A    between atoms: C_8  and  C_9
REMARK                            x       y       z     vdW  Elec       q    Type
REMARK                         _______ _______ _______ _____ _____    ______ ____
ROOT
ATOM      1  C   UNL     1       2.418   6.697  18.714  0.00  0.00    +0.000 A 
ATOM      2  N   UNL     1       3.655   6.724  18.216  0.00  0.00    +0.000 NA
ATOM      3  C   UNL     1       4.295   5.560  17.999  0.00  0.00    +0.000 A 
ATOM      4  N   UNL     1       5.442   5.699  17.249  0.00  0.00    +0.000 N 
ATOM      5  C   UNL     1       5.308   6.493  16.020  0.00  0.00    +0.000 C 
ATOM      6  C   UNL     1       5.532   5.600  14.794  0.00  0.00    +0.000 C 
ATOM      7  C   UNL     1       6.813   4.774  14.905  0.00  0.00    +0.000 C 
ATOM      8  C   UNL     1       6.877   4.020  16.233  0.00  0.00    +0.000 C 
ATOM      9  C   UNL     1       6.688   4.980  17.407  0.00  0.00    +0.000 C 
ATOM     10  C   UNL     1       3.720   4.334  18.396  0.00  0.00    +0.000 A 
ATOM     11  C   UNL     1       4.342   3.052  18.451  0.00  0.00    +0.000 A 
ATOM     12  C   UNL     1       3.618   1.886  18.683  0.00  0.00    +0.000 A 
ATOM     13  C   UNL     1       2.247   1.971  18.830  0.00  0.00    +0.000 A 
ATOM     14  C   UNL     1       1.638   3.228  18.863  0.00  0.00    +0.000 A 
ATOM     15  C   UNL     1       2.358   4.413  18.719  0.00  0.00    +0.000 A 
ATOM     16  N   UNL     1       1.709   5.573  18.889  0.00  0.00    +0.000 NA
ENDROOT
BRANCH   1  20
ATOM     17  C   UNL     1       0.876  10.537  19.981  0.00  0.00    +0.000 A 
ATOM     18  C   UNL     1       1.242  10.333  18.648  0.00  0.00    +0.000 A 
ATOM     19  C   UNL     1       1.718   9.078  18.250  0.00  0.00    +0.000 A 
ATOM     20  C   UNL     1       1.850   7.993  19.147  0.00  0.00    +0.000 A 
ATOM     21  C   UNL     1       1.458   8.223  20.473  0.00  0.00    +0.000 A 
ATOM     22  C   UNL     1       0.977   9.472  20.883  0.00  0.00    +0.000 A 
BRANCH  17  24
ATOM     23  O   UNL     1       0.713  12.256  21.605  0.00  0.00    +0.000 OA
ATOM     24  C   UNL     1       0.362  11.837  20.503  0.00  0.00    +0.000 C 
ATOM     25  N   UNL     1      -0.501  12.563  19.716  0.00  0.00    +0.000 N 
ATOM     26  H   UNL     1      -0.781  12.361  18.765  0.00  0.00    +0.000 HD
BRANCH  25  27
ATOM     27  O   UNL     1      -0.913  13.806  20.255  0.00  0.00    +0.000 OA
ATOM     28  H   UNL     1      -0.060  14.183  20.572  0.00  0.00    +0.000 HD
ENDBRANCH  25  27
ENDBRANCH  17  24
ENDBRANCH   1  20
TORSDOF 3
ENDMDL
MODEL 7
REMARK VINA RESULT:      -8.1      1.450      3.923
REMARK  Name = 
REMARK  3 active torsions:
REMARK  status: ('A' for Active; 'I' for Inactive)
REMARK    1  A    between atoms: C_2  and  C_5
REMARK    2  A    between atoms: N_3  and  O_4
REMARK    3  A    between atoms: C_8  and  C_9
REMARK                            x       y       z     vdW  Elec       q    Type
REMARK                         _______ _______ _______ _____ _____    ______ ____
ROOT
ATOM      1  C   UNL     1       2.468   7.749  18.501  0.00  0.00    +0.000 A 
ATOM      2  N   UNL     1       1.771   6.689  18.914  0.00  0.00    +0.000 NA
ATOM      3  C   UNL     1       2.192   5.458  18.568  0.00  0.00    +0.000 A 
ATOM      4  N   UNL     1       1.559   4.450  19.259  0.00  0.00    +0.000 N 
ATOM      5  C   UNL     1       1.493   4.621  20.717  0.00  0.00    +0.000 C 
ATOM      6  C   UNL     1       2.320   3.533  21.410  0.00  0.00    +0.000 C 
ATOM      7  C   UNL     1       1.983   2.133  20.897  0.00  0.00    +0.000 C 
ATOM      8  C   UNL     1       2.039   2.068  19.371  0.00  0.00    +0.000 C 
ATOM      9  C   UNL     1       1.158   3.154  18.753  0.00  0.00    +0.000 C 
ATOM     10  C   UNL     1       3.284   5.288  17.688  0.00  0.00    +0.000 A 
ATOM     11  C   UNL     1       3.713   4.089  17.047  0.00  0.00    +0.000 A 
ATOM     12  C   UNL     1       4.913   4.012  16.347  0.00  0.00    +0.000 A 
ATOM     13  C   UNL     1       5.732   5.124  16.303  0.00  0.00    +0.000 A 
ATOM     14  C   UNL     1       5.284   6.328  16.854  0.00  0.00    +0.000 A 
ATOM     15  C   UNL     1       4.046   6.447  17.483  0.00  0.00    +0.000 A 
ATOM     16  N   UNL     1       3.647   7.667  17.870  0.00  0.00    +0.000 NA
ENDROOT
BRANCH   1  20
ATOM     17  C   UNL     1       0.747  11.663  19.169  0.00  0.00    +0.000 A 
ATOM     18  C   UNL     1       1.681  11.472  18.148  0.00  0.00    +0.000 A 
ATOM     19  C   UNL     1       2.212  10.195  17.931  0.00  0.00    +0.000 A 
ATOM     20  C   UNL     1       1.842   9.074  18.709  0.00  0.00    +0.000 A 
ATOM     21  C   UNL     1       0.889   9.293  19.714  0.00  0.00    +0.000 A 
ATOM     22  C   UNL     1       0.348  10.564  19.939  0.00  0.00    +0.000 A 
BRANCH  17  24
ATOM     23  O   UNL     1       0.124  13.422  20.631  0.00  0.00    +0.000 OA
ATOM     24  C   UNL     1       0.128  12.984  19.481  0.00  0.00    +0.000 C 
ATOM     25  N   UNL     1      -0.426  13.708  18.450  0.00  0.00    +0.000 N 
ATOM     26  H   UNL     1      -0.397  13.489  17.463  0.00  0.00    +0.000 HD
BRANCH  25  27
ATOM     27  O   UNL     1      -0.954  14.970  18.812  0.00  0.00    +0.000 OA
ATOM     28  H   UNL     1      -0.152  15.444  19.130  0.00  0.00    +0.000 HD
ENDBRANCH  25  27
ENDBRANCH  17  24
ENDBRANCH   1  20
TORSDOF 3
ENDMDL
MODEL 8
REMARK VINA RESULT:      -8.0      1.491      3.838
REMARK  Name = 
REMARK  3 active torsions:
REMARK  status: ('A' for Active; 'I' for Inactive)
REMARK    1  A    between atoms: C_2  and  C_5
REMARK    2  A    between atoms: N_3  and  O_4
REMARK    3  A    between atoms: C_8  and  C_9
REMARK                            x       y       z     vdW  Elec       q    Type
REMARK                         _______ _______ _______ _____ _____    ______ ____
ROOT
ATOM      1  C   UNL     1       2.877   6.988  18.388  0.00  0.00    +0.000 A 
ATOM      2  N   UNL     1       2.498   5.737  18.657  0.00  0.00    +0.000 NA
ATOM      3  C   UNL     1       3.116   4.720  18.028  0.00  0.00    +0.000 A 
ATOM      4  N   UNL     1       2.831   3.488  18.571  0.00  0.00    +0.000 N 
ATOM      5  C   UNL     1       2.956   3.391  20.032  0.00  0.00    +0.000 C 
ATOM      6  C   UNL     1       4.096   2.434  20.397  0.00  0.00    +0.000 C 
ATOM      7  C   UNL     1       3.993   1.101  19.657  0.00  0.00    +0.000 C 
ATOM      8  C   UNL     1       3.824   1.308  18.152  0.00  0.00    +0.000 C 
ATOM      9  C   UNL     1       2.644   2.238  17.866  0.00  0.00    +0.000 C 
ATOM     10  C   UNL     1       4.068   4.968  17.015  0.00  0.00    +0.000 A 
ATOM     11  C   UNL     1       4.640   4.033  16.104  0.00  0.00    +0.000 A 
ATOM     12  C   UNL     1       5.706   4.366  15.272  0.00  0.00    +0.000 A 
ATOM     13  C   UNL     1       6.248   5.633  15.358  0.00  0.00    +0.000 A 
ATOM     14  C   UNL     1       5.642   6.584  16.185  0.00  0.00    +0.000 A 
ATOM     15  C   UNL     1       4.521   6.295  16.960  0.00  0.00    +0.000 A 
ATOM     16  N   UNL     1       3.933   7.299  17.625  0.00  0.00    +0.000 NA
ENDROOT
BRANCH   1  20
ATOM     17  C   UNL     1       0.475  10.227  19.959  0.00  0.00    +0.000 A 
ATOM     18  C   UNL     1       0.826  10.205  18.607  0.00  0.00    +0.000 A 
ATOM     19  C   UNL     1       1.584   9.139  18.110  0.00  0.00    +0.000 A 
ATOM     20  C   UNL     1       2.020   8.069  18.925  0.00  0.00    +0.000 A 
ATOM     21  C   UNL     1       1.637   8.109  20.273  0.00  0.00    +0.000 A 
ATOM     22  C   UNL     1       0.876   9.168  20.781  0.00  0.00    +0.000 A 
BRANCH  17  24
ATOM     23  O   UNL     1      -1.090  12.007  19.906  0.00  0.00    +0.000 OA
ATOM     24  C   UNL     1      -0.326  11.320  20.583  0.00  0.00    +0.000 C 
ATOM     25  N   UNL     1      -0.203  11.531  21.937  0.00  0.00    +0.000 N 
ATOM     26  H   UNL     1       0.318  10.972  22.599  0.00  0.00    +0.000 HD
BRANCH  25  27
ATOM     27  O   UNL     1      -1.026  12.553  22.468  0.00  0.00    +0.000 OA
ATOM     28  H   UNL     1      -1.472  12.090  23.213  0.00  0.00    +0.000 HD
ENDBRANCH  25  27
ENDBRANCH  17  24
ENDBRANCH   1  20
TORSDOF 3
ENDMDL
MODEL 9
REMARK VINA RESULT:      -8.0      3.933      8.718
REMARK  Name = 
REMARK  3 active torsions:
REMARK  status: ('A' for Active; 'I' for Inactive)
REMARK    1  A    between atoms: C_2  and  C_5
REMARK    2  A    between atoms: N_3  and  O_4
REMARK    3  A    between atoms: C_8  and  C_9
REMARK                            x       y       z     vdW  Elec       q    Type
REMARK                         _______ _______ _______ _____ _____    ______ ____
ROOT
ATOM      1  C   UNL     1       1.516   9.460  18.263  0.00  0.00    +0.000 A 
ATOM      2  N   UNL     1       0.191   9.333  18.163  0.00  0.00    +0.000 NA
ATOM      3  C   UNL     1      -0.577  10.435  18.255  0.00  0.00    +0.000 A 
ATOM      4  N   UNL     1      -1.884  10.222  17.879  0.00  0.00    +0.000 N 
ATOM      5  C   UNL     1      -2.074   9.521  16.602  0.00  0.00    +0.000 C 
ATOM      6  C   UNL     1      -2.739  10.456  15.586  0.00  0.00    +0.000 C 
ATOM      7  C   UNL     1      -3.985  11.135  16.154  0.00  0.00    +0.000 C 
ATOM      8  C   UNL     1      -3.696  11.799  17.500  0.00  0.00    +0.000 C 
ATOM      9  C   UNL     1      -3.074  10.795  18.472  0.00  0.00    +0.000 C 
ATOM     10  C   UNL     1      -0.009  11.689  18.566  0.00  0.00    +0.000 A 
ATOM     11  C   UNL     1      -0.685  12.893  18.922  0.00  0.00    +0.000 A 
ATOM     12  C   UNL     1      -0.022  14.112  19.026  0.00  0.00    +0.000 A 
ATOM     13  C   UNL     1       1.329  14.163  18.742  0.00  0.00    +0.000 A 
ATOM     14  C   UNL     1       2.019  12.977  18.476  0.00  0.00    +0.000 A 
ATOM     15  C   UNL     1       1.389  11.734  18.453  0.00  0.00    +0.000 A 
ATOM     16  N   UNL     1       2.150  10.640  18.314  0.00  0.00    +0.000 NA
ENDROOT
BRANCH   1  20
ATOM     17  C   UNL     1       3.862   5.852  18.715  0.00  0.00    +0.000 A 
ATOM     18  C   UNL     1       2.879   6.173  19.654  0.00  0.00    +0.000 A 
ATOM     19  C   UNL     1       2.113   7.332  19.481  0.00  0.00    +0.000 A 
ATOM     20  C   UNL     1       2.294   8.207  18.386  0.00  0.00    +0.000 A 
ATOM     21  C   UNL     1       3.275   7.850  17.451  0.00  0.00    +0.000 A 
ATOM     22  C   UNL     1       4.044   6.692  17.611  0.00  0.00    +0.000 A 
BRANCH  17  24
ATOM     23  O   UNL     1       5.839   4.619  18.279  0.00  0.00    +0.000 OA
ATOM     24  C   UNL     1       4.730   4.643  18.813  0.00  0.00    +0.000 C 
ATOM     25  N   UNL     1       4.269   3.562  19.528  0.00  0.00    +0.000 N 
ATOM     26  H   UNL     1       3.423   3.507  20.078  0.00  0.00    +0.000 HD
BRANCH  25  27
ATOM     27  O   UNL     1       5.164   2.468  19.616  0.00  0.00    +0.000 OA
ATOM     28  H   UNL     1       5.503   2.408  18.693  0.00  0.00    +0.000 HD
ENDBRANCH  25  27
ENDBRANCH  17  24
ENDBRANCH   1  20
TORSDOF 3
ENDMDL
