MODEL 1
REMARK VINA RESULT:      -8.0      0.000      0.000
REMARK  Name = 
REMARK  8 active torsions:
REMARK  status: ('A' for Active; 'I' for Inactive)
REMARK    1  A    between atoms: N_1  and  C_2
REMARK    2  A    between atoms: C_8  and  C_9
REMARK    3  A    between atoms: C_13  and  O_14
REMARK    4  A    between atoms: O_14  and  C_15
REMARK    5  A    between atoms: C_15  and  C_16
REMARK    6  A    between atoms: N_24  and  C_25
REMARK    7  A    between atoms: C_27  and  C_28
REMARK    8  A    between atoms: C_28  and  N_29
REMARK                            x       y       z     vdW  Elec       q    Type
REMARK                         _______ _______ _______ _____ _____    ______ ____
ROOT
ATOM      1  C   UNL     1       1.496   3.911  19.857  0.00  0.00    +0.000 A 
ATOM      2  N   UNL     1       1.517   2.558  19.765  0.00  0.00    +0.000 NA
ATOM      3  C   UNL     1       2.653   1.974  19.391  0.00  0.00    +0.000 A 
ATOM      4  N   UNL     1       3.824   2.539  19.079  0.00  0.00    +0.000 NA
ATOM      5  C   UNL     1       3.780   3.882  19.178  0.00  0.00    +0.000 A 
ATOM      6  C   UNL     1       2.672   4.623  19.549  0.00  0.00    +0.000 A 
ATOM      7  C   UNL     1       3.040   6.006  19.499  0.00  0.00    +0.000 A 
ATOM      8  C   UNL     1       4.361   6.049  19.060  0.00  0.00    +0.000 A 
ATOM      9  N   UNL     1       4.802   4.755  18.902  0.00  0.00    +0.000 N 
ENDROOT
BRANCH   7  10
ATOM     10  C   UNL     1       2.273   7.202  19.818  0.00  0.00    +0.000 A 
ATOM     11  C   UNL     1       1.796   7.396  21.107  0.00  0.00    +0.000 A 
ATOM     12  C   UNL     1       0.999   8.505  21.400  0.00  0.00    +0.000 A 
ATOM     13  C   UNL     1       0.723   9.415  20.412  0.00  0.00    +0.000 A 
ATOM     14  C   UNL     1       1.185   9.273  19.119  0.00  0.00    +0.000 A 
ATOM     15  C   UNL     1       1.967   8.146  18.810  0.00  0.00    +0.000 A 
BRANCH  14  16
ATOM     16  O   UNL     1       0.871  10.200  18.155  0.00  0.00    +0.000 OA
BRANCH  16  17
ATOM     17  C   UNL     1       0.011  11.250  18.645  0.00  0.00    +0.000 C 
BRANCH  17  18
ATOM     18  C   UNL     1      -1.404  10.999  18.208  0.00  0.00    +0.000 A 
ATOM     19  C   UNL     1      -2.451  11.750  18.766  0.00  0.00    +0.000 A 
ATOM     20  C   UNL     1      -3.757  11.560  18.332  0.00  0.00    +0.000 A 
ATOM     21  C   UNL     1      -4.036  10.625  17.336  0.00  0.00    +0.000 A 
ATOM     22  C   UNL     1      -3.006   9.864  16.787  0.00  0.00    +0.000 A 
ATOM     23  C   UNL     1      -1.695  10.050  17.220  0.00  0.00    +0.000 A 
ENDBRANCH  17  18
ENDBRANCH  16  17
ENDBRANCH  14  16
ENDBRANCH   7  10
BRANCH   9  24
ATOM     24  C   UNL     1       6.150   4.487  18.442  0.00  0.00    +0.000 C 
ATOM     25  C   UNL     1       6.148   3.712  17.095  0.00  0.00    +0.000 C 
ATOM     26  C   UNL     1       6.408   5.050  16.361  0.00  0.00    +0.000 C 
ATOM     27  C   UNL     1       6.969   5.579  17.712  0.00  0.00    +0.000 C 
BRANCH  26  28
ATOM     28  C   UNL     1       7.333   5.075  15.134  0.00  0.00    +0.000 C 
BRANCH  28  29
ATOM     29  N   UNL     1       6.593   5.371  13.884  0.00  0.00    +0.000 NA
ATOM     30  C   UNL     1       5.504   4.410  13.612  0.00  0.00    +0.000 C 
ATOM     31  C   UNL     1       6.191   3.223  12.963  0.00  0.00    +0.000 C 
ATOM     32  C   UNL     1       7.146   3.914  12.014  0.00  0.00    +0.000 C 
ATOM     33  C   UNL     1       7.478   5.239  12.701  0.00  0.00    +0.000 C 
ENDBRANCH  28  29
ENDBRANCH  26  28
ENDBRANCH   9  24
BRANCH   1  34
ATOM     34  N   UNL     1       0.303   4.487  20.228  0.00  0.00    +0.000 N 
ATOM     35  H   UNL     1       0.394   5.241  20.883  0.00  0.00    +0.000 HD
ATOM     36  H   UNL     1      -0.477   3.865  20.387  0.00  0.00    +0.000 HD
ENDBRANCH   1  34
TORSDOF 8
ENDMDL
MODEL 2
REMARK VINA RESULT:      -7.8      1.137      1.596
REMARK  Name = 
REMARK  8 active torsions:
REMARK  status: ('A' for Active; 'I' for Inactive)
REMARK    1  A    between atoms: N_1  and  C_2
REMARK    2  A    between atoms: C_8  and  C_9
REMARK    3  A    between atoms: C_13  and  O_14
REMARK    4  A    between atoms: O_14  and  C_15
REMARK    5  A    between atoms: C_15  and  C_16
REMARK    6  A    between atoms: N_24  and  C_25
REMARK    7  A    between atoms: C_27  and  C_28
REMARK    8  A    between atoms: C_28  and  N_29
REMARK                            x       y       z     vdW  Elec       q    Type
REMARK                         _______ _______ _______ _____ _____    ______ ____
ROOT
ATOM      1  C   UNL     1       1.976   4.403  19.663  0.00  0.00    +0.000 A 
ATOM      2  N   UNL     1       2.251   3.085  19.501  0.00  0.00    +0.000 NA
ATOM      3  C   UNL     1       3.287   2.751  18.735  0.00  0.00    +0.000 A 
ATOM      4  N   UNL     1       4.133   3.547  18.075  0.00  0.00    +0.000 NA
ATOM      5  C   UNL     1       3.843   4.851  18.250  0.00  0.00    +0.000 A 
ATOM      6  C   UNL     1       2.798   5.344  19.012  0.00  0.00    +0.000 A 
ATOM      7  C   UNL     1       2.826   6.772  18.910  0.00  0.00    +0.000 A 
ATOM      8  C   UNL     1       3.877   7.089  18.053  0.00  0.00    +0.000 A 
ATOM      9  N   UNL     1       4.501   5.917  17.690  0.00  0.00    +0.000 N 
ENDROOT
BRANCH   7  10
ATOM     10  C   UNL     1       1.979   7.783  19.530  0.00  0.00    +0.000 A 
ATOM     11  C   UNL     1       1.679   7.700  20.882  0.00  0.00    +0.000 A 
ATOM     12  C   UNL     1       0.810   8.625  21.465  0.00  0.00    +0.000 A 
ATOM     13  C   UNL     1       0.285   9.632  20.697  0.00  0.00    +0.000 A 
ATOM     14  C   UNL     1       0.563   9.764  19.351  0.00  0.00    +0.000 A 
ATOM     15  C   UNL     1       1.417   8.822  18.752  0.00  0.00    +0.000 A 
BRANCH  14  16
ATOM     16  O   UNL     1       0.002  10.779  18.614  0.00  0.00    +0.000 OA
BRANCH  16  17
ATOM     17  C   UNL     1      -1.350  11.082  19.014  0.00  0.00    +0.000 C 
BRANCH  17  18
ATOM     18  C   UNL     1      -2.278  10.925  17.843  0.00  0.00    +0.000 A 
ATOM     19  C   UNL     1      -1.924  10.079  16.780  0.00  0.00    +0.000 A 
ATOM     20  C   UNL     1      -2.798   9.887  15.717  0.00  0.00    +0.000 A 
ATOM     21  C   UNL     1      -4.034  10.531  15.702  0.00  0.00    +0.000 A 
ATOM     22  C   UNL     1      -4.388  11.385  16.744  0.00  0.00    +0.000 A 
ATOM     23  C   UNL     1      -3.515  11.581  17.811  0.00  0.00    +0.000 A 
ENDBRANCH  17  18
ENDBRANCH  16  17
ENDBRANCH  14  16
ENDBRANCH   7  10
BRANCH   9  24
ATOM     24  C   UNL     1       5.635   5.935  16.788  0.00  0.00    +0.000 C 
ATOM     25  C   UNL     1       6.346   4.554  16.739  0.00  0.00    +0.000 C 
ATOM     26  C   UNL     1       5.592   4.249  15.421  0.00  0.00    +0.000 C 
ATOM     27  C   UNL     1       5.433   5.787  15.260  0.00  0.00    +0.000 C 
BRANCH  26  28
ATOM     28  C   UNL     1       6.305   3.474  14.302  0.00  0.00    +0.000 C 
BRANCH  28  29
ATOM     29  N   UNL     1       5.997   4.021  12.959  0.00  0.00    +0.000 NA
ATOM     30  C   UNL     1       4.960   3.251  12.242  0.00  0.00    +0.000 C 
ATOM     31  C   UNL     1       5.706   2.081  11.628  0.00  0.00    +0.000 C 
ATOM     32  C   UNL     1       6.954   2.762  11.109  0.00  0.00    +0.000 C 
ATOM     33  C   UNL     1       7.178   3.933  12.067  0.00  0.00    +0.000 C 
ENDBRANCH  28  29
ENDBRANCH  26  28
ENDBRANCH   9  24
BRANCH   1  34
ATOM     34  N   UNL     1       0.888   4.718  20.444  0.00  0.00    +0.000 N 
ATOM     35  H   UNL     1       0.926   4.347  21.375  0.00  0.00    +0.000 HD
ATOM     36  H   UNL     1      -0.019   4.685  20.001  0.00  0.00    +0.000 HD
ENDBRANCH   1  34
TORSDOF 8
ENDMDL
MODEL 3
REMARK VINA RESULT:      -7.8      1.721      2.379
REMARK  Name = 
REMARK  8 active torsions:
REMARK  status: ('A' for Active; 'I' for Inactive)
REMARK    1  A    between atoms: N_1  and  C_2
REMARK    2  A    between atoms: C_8  and  C_9
REMARK    3  A    between atoms: C_13  and  O_14
REMARK    4  A    between atoms: O_14  and  C_15
REMARK    5  A    between atoms: C_15  and  C_16
REMARK    6  A    between atoms: N_24  and  C_25
REMARK    7  A    between atoms: C_27  and  C_28
REMARK    8  A    between atoms: C_28  and  N_29
REMARK                            x       y       z     vdW  Elec       q    Type
REMARK                         _______ _______ _______ _____ _____    ______ ____
ROOT
ATOM      1  C   UNL     1       1.661   4.456  20.278  0.00  0.00    +0.000 A 
ATOM      2  N   UNL     1       1.725   3.160  20.672  0.00  0.00    +0.000 NA
ATOM      3  C   UNL     1       2.846   2.486  20.427  0.00  0.00    +0.000 A 
ATOM      4  N   UNL     1       3.965   2.908  19.830  0.00  0.00    +0.000 NA
ATOM      5  C   UNL     1       3.881   4.197  19.448  0.00  0.00    +0.000 A 
ATOM      6  C   UNL     1       2.781   5.016  19.631  0.00  0.00    +0.000 A 
ATOM      7  C   UNL     1       3.092   6.292  19.059  0.00  0.00    +0.000 A 
ATOM      8  C   UNL     1       4.370   6.181  18.515  0.00  0.00    +0.000 A 
ATOM      9  N   UNL     1       4.843   4.918  18.789  0.00  0.00    +0.000 N 
ENDROOT
BRANCH   7  10
ATOM     10  C   UNL     1       2.311   7.519  19.000  0.00  0.00    +0.000 A 
ATOM     11  C   UNL     1       2.099   8.148  17.781  0.00  0.00    +0.000 A 
ATOM     12  C   UNL     1       1.412   9.363  17.728  0.00  0.00    +0.000 A 
ATOM     13  C   UNL     1       0.922   9.909  18.887  0.00  0.00    +0.000 A 
ATOM     14  C   UNL     1       1.096   9.316  20.121  0.00  0.00    +0.000 A 
ATOM     15  C   UNL     1       1.808   8.106  20.185  0.00  0.00    +0.000 A 
BRANCH  14  16
ATOM     16  O   UNL     1       0.603   9.906  21.260  0.00  0.00    +0.000 OA
BRANCH  16  17
ATOM     17  C   UNL     1       0.419  11.330  21.120  0.00  0.00    +0.000 C 
BRANCH  17  18
ATOM     18  C   UNL     1      -0.940  11.723  21.625  0.00  0.00    +0.000 A 
ATOM     19  C   UNL     1      -1.289  11.467  22.960  0.00  0.00    +0.000 A 
ATOM     20  C   UNL     1      -2.524  11.873  23.451  0.00  0.00    +0.000 A 
ATOM     21  C   UNL     1      -3.423  12.541  22.620  0.00  0.00    +0.000 A 
ATOM     22  C   UNL     1      -3.091  12.786  21.289  0.00  0.00    +0.000 A 
ATOM     23  C   UNL     1      -1.855  12.380  20.793  0.00  0.00    +0.000 A 
ENDBRANCH  17  18
ENDBRANCH  16  17
ENDBRANCH  14  16
ENDBRANCH   7  10
BRANCH   9  24
ATOM     24  C   UNL     1       6.157   4.509  18.333  0.00  0.00    +0.000 C 
ATOM     25  C   UNL     1       6.074   3.695  17.012  0.00  0.00    +0.000 C 
ATOM     26  C   UNL     1       6.454   4.979  16.235  0.00  0.00    +0.000 C 
ATOM     27  C   UNL     1       7.071   5.495  17.566  0.00  0.00    +0.000 C 
BRANCH  26  28
ATOM     28  C   UNL     1       7.370   4.877  15.005  0.00  0.00    +0.000 C 
BRANCH  28  29
ATOM     29  N   UNL     1       6.674   5.270  13.756  0.00  0.00    +0.000 NA
ATOM     30  C   UNL     1       5.536   4.387  13.423  0.00  0.00    +0.000 C 
ATOM     31  C   UNL     1       6.166   3.192  12.734  0.00  0.00    +0.000 C 
ATOM     32  C   UNL     1       7.178   3.866  11.833  0.00  0.00    +0.000 C 
ATOM     33  C   UNL     1       7.573   5.138  12.584  0.00  0.00    +0.000 C 
ENDBRANCH  28  29
ENDBRANCH  26  28
ENDBRANCH   9  24
BRANCH   1  34
ATOM     34  N   UNL     1       0.483   5.122  20.526  0.00  0.00    +0.000 N 
ATOM     35  H   UNL     1       0.202   5.751  19.798  0.00  0.00    +0.000 HD
ATOM     36  H   UNL     1       0.334   5.453  21.468  0.00  0.00    +0.000 HD
ENDBRANCH   1  34
TORSDOF 8
ENDMDL
MODEL 4
REMARK VINA RESULT:      -7.6      4.377     11.151
REMARK  Name = 
REMARK  8 active torsions:
REMARK  status: ('A' for Active; 'I' for Inactive)
REMARK    1  A    between atoms: N_1  and  C_2
REMARK    2  A    between atoms: C_8  and  C_9
REMARK    3  A    between atoms: C_13  and  O_14
REMARK    4  A    between atoms: O_14  and  C_15
REMARK    5  A    between atoms: C_15  and  C_16
REMARK    6  A    between atoms: N_24  and  C_25
REMARK    7  A    between atoms: C_27  and  C_28
REMARK    8  A    between atoms: C_28  and  N_29
REMARK                            x       y       z     vdW  Elec       q    Type
REMARK                         _______ _______ _______ _____ _____    ______ ____
ROOT
ATOM      1  C   UNL     1      -1.944  10.530  17.741  0.00  0.00    +0.000 A 
ATOM      2  N   UNL     1      -3.126  11.132  17.461  0.00  0.00    +0.000 NA
ATOM      3  C   UNL     1      -3.634  11.965  18.365  0.00  0.00    +0.000 A 
ATOM      4  N   UNL     1      -3.138  12.315  19.556  0.00  0.00    +0.000 NA
ATOM      5  C   UNL     1      -1.964  11.707  19.814  0.00  0.00    +0.000 A 
ATOM      6  C   UNL     1      -1.321  10.817  18.972  0.00  0.00    +0.000 A 
ATOM      7  C   UNL     1      -0.126  10.384  19.633  0.00  0.00    +0.000 A 
ATOM      8  C   UNL     1      -0.111  11.010  20.876  0.00  0.00    +0.000 A 
ATOM      9  N   UNL     1      -1.213  11.832  20.955  0.00  0.00    +0.000 N 
ENDROOT
BRANCH   7  10
ATOM     10  C   UNL     1       0.926   9.480  19.190  0.00  0.00    +0.000 A 
ATOM     11  C   UNL     1       1.527   9.669  17.953  0.00  0.00    +0.000 A 
ATOM     12  C   UNL     1       2.485   8.763  17.493  0.00  0.00    +0.000 A 
ATOM     13  C   UNL     1       2.850   7.707  18.289  0.00  0.00    +0.000 A 
ATOM     14  C   UNL     1       2.291   7.484  19.531  0.00  0.00    +0.000 A 
ATOM     15  C   UNL     1       1.308   8.378  19.990  0.00  0.00    +0.000 A 
BRANCH  14  16
ATOM     16  O   UNL     1       2.673   6.404  20.289  0.00  0.00    +0.000 OA
BRANCH  16  17
ATOM     17  C   UNL     1       3.505   5.475  19.565  0.00  0.00    +0.000 C 
BRANCH  17  18
ATOM     18  C   UNL     1       2.726   4.231  19.246  0.00  0.00    +0.000 A 
ATOM     19  C   UNL     1       1.645   3.856  20.059  0.00  0.00    +0.000 A 
ATOM     20  C   UNL     1       0.887   2.735  19.743  0.00  0.00    +0.000 A 
ATOM     21  C   UNL     1       1.193   1.978  18.613  0.00  0.00    +0.000 A 
ATOM     22  C   UNL     1       2.273   2.333  17.809  0.00  0.00    +0.000 A 
ATOM     23  C   UNL     1       3.037   3.455  18.122  0.00  0.00    +0.000 A 
ENDBRANCH  17  18
ENDBRANCH  16  17
ENDBRANCH  14  16
ENDBRANCH   7  10
BRANCH   9  24
ATOM     24  C   UNL     1      -1.467  12.611  22.151  0.00  0.00    +0.000 C 
ATOM     25  C   UNL     1      -2.610  13.640  21.928  0.00  0.00    +0.000 C 
ATOM     26  C   UNL     1      -3.583  12.663  22.632  0.00  0.00    +0.000 C 
ATOM     27  C   UNL     1      -2.327  12.036  23.302  0.00  0.00    +0.000 C 
BRANCH  26  28
ATOM     28  C   UNL     1      -4.687  13.220  23.544  0.00  0.00    +0.000 C 
BRANCH  28  29
ATOM     29  N   UNL     1      -5.987  12.541  23.327  0.00  0.00    +0.000 NA
ATOM     30  C   UNL     1      -6.508  12.710  21.955  0.00  0.00    +0.000 C 
ATOM     31  C   UNL     1      -7.184  14.069  21.965  0.00  0.00    +0.000 C 
ATOM     32  C   UNL     1      -7.912  14.030  23.290  0.00  0.00    +0.000 C 
ATOM     33  C   UNL     1      -7.045  13.136  24.178  0.00  0.00    +0.000 C 
ENDBRANCH  28  29
ENDBRANCH  26  28
ENDBRANCH   9  24
BRANCH   1  34
ATOM     34  N   UNL     1      -1.452   9.659  16.796  0.00  0.00    +0.000 N 
ATOM     35  H   UNL     1      -0.550   9.280  17.013  0.00  0.00    +0.000 HD
ATOM     36  H   UNL     1      -1.599   9.905  15.827  0.00  0.00    +0.000 HD
ENDBRANCH   1  34
TORSDOF 8
ENDMDL
MODEL 5
REMARK VINA RESULT:      -7.6      3.273      4.651
REMARK  Name = 
REMARK  8 active torsions:
REMARK  status: ('A' for Active; 'I' for Inactive)
REMARK    1  A    between atoms: N_1  and  C_2
REMARK    2  A    between atoms: C_8  and  C_9
REMARK    3  A    between atoms: C_13  and  O_14
REMARK    4  A    between atoms: O_14  and  C_15
REMARK    5  A    between atoms: C_15  and  C_16
REMARK    6  A    between atoms: N_24  and  C_25
REMARK    7  A    between atoms: C_27  and  C_28
REMARK    8  A    between atoms: C_28  and  N_29
REMARK                            x       y       z     vdW  Elec       q    Type
REMARK                         _______ _______ _______ _____ _____    ______ ____
ROOT
ATOM      1  C   UNL     1       2.640   4.467  19.651  0.00  0.00    +0.000 A 
ATOM      2  N   UNL     1       3.100   3.207  19.856  0.00  0.00    +0.000 NA
ATOM      3  C   UNL     1       4.367   2.945  19.544  0.00  0.00    +0.000 A 
ATOM      4  N   UNL     1       5.293   3.765  19.039  0.00  0.00    +0.000 NA
ATOM      5  C   UNL     1       4.816   5.010  18.845  0.00  0.00    +0.000 A 
ATOM      6  C   UNL     1       3.525   5.425  19.118  0.00  0.00    +0.000 A 
ATOM      7  C   UNL     1       3.426   6.803  18.742  0.00  0.00    +0.000 A 
ATOM      8  C   UNL     1       4.665   7.162  18.218  0.00  0.00    +0.000 A 
ATOM      9  N   UNL     1       5.503   6.075  18.318  0.00  0.00    +0.000 N 
ENDROOT
BRANCH   7  10
ATOM     10  C   UNL     1       2.310   7.734  18.842  0.00  0.00    +0.000 A 
ATOM     11  C   UNL     1       1.775   8.300  17.693  0.00  0.00    +0.000 A 
ATOM     12  C   UNL     1       0.753   9.247  17.788  0.00  0.00    +0.000 A 
ATOM     13  C   UNL     1       0.263   9.586  19.024  0.00  0.00    +0.000 A 
ATOM     14  C   UNL     1       0.753   9.042  20.194  0.00  0.00    +0.000 A 
ATOM     15  C   UNL     1       1.799   8.107  20.107  0.00  0.00    +0.000 A 
BRANCH  14  16
ATOM     16  O   UNL     1       0.245   9.422  21.412  0.00  0.00    +0.000 OA
BRANCH  16  17
ATOM     17  C   UNL     1       0.447  10.823  21.693  0.00  0.00    +0.000 C 
BRANCH  17  18
ATOM     18  C   UNL     1      -0.877  11.499  21.903  0.00  0.00    +0.000 A 
ATOM     19  C   UNL     1      -1.550  11.354  23.127  0.00  0.00    +0.000 A 
ATOM     20  C   UNL     1      -2.750  12.018  23.349  0.00  0.00    +0.000 A 
ATOM     21  C   UNL     1      -3.293  12.835  22.358  0.00  0.00    +0.000 A 
ATOM     22  C   UNL     1      -2.641  12.973  21.135  0.00  0.00    +0.000 A 
ATOM     23  C   UNL     1      -1.438  12.309  20.907  0.00  0.00    +0.000 A 
ENDBRANCH  17  18
ENDBRANCH  16  17
ENDBRANCH  14  16
ENDBRANCH   7  10
BRANCH   9  24
ATOM     24  C   UNL     1       6.869   6.150  17.839  0.00  0.00    +0.000 C 
ATOM     25  C   UNL     1       7.109   7.437  17.002  0.00  0.00    +0.000 C 
ATOM     26  C   UNL     1       7.751   8.091  18.250  0.00  0.00    +0.000 C 
ATOM     27  C   UNL     1       8.006   6.646  18.764  0.00  0.00    +0.000 C 
BRANCH  26  28
ATOM     28  C   UNL     1       8.961   9.022  18.079  0.00  0.00    +0.000 C 
BRANCH  28  29
ATOM     29  N   UNL     1       8.753  10.335  18.736  0.00  0.00    +0.000 NA
ATOM     30  C   UNL     1       9.028  11.480  17.845  0.00  0.00    +0.000 C 
ATOM     31  C   UNL     1      10.535  11.656  17.899  0.00  0.00    +0.000 C 
ATOM     32  C   UNL     1      10.803  11.481  19.377  0.00  0.00    +0.000 C 
ATOM     33  C   UNL     1       9.708  10.525  19.854  0.00  0.00    +0.000 C 
ENDBRANCH  28  29
ENDBRANCH  26  28
ENDBRANCH   9  24
BRANCH   1  34
ATOM     34  N   UNL     1       1.322   4.704  19.965  0.00  0.00    +0.000 N 
ATOM     35  H   UNL     1       1.073   5.674  19.999  0.00  0.00    +0.000 HD
ATOM     36  H   UNL     1       0.911   4.124  20.683  0.00  0.00    +0.000 HD
ENDBRANCH   1  34
TORSDOF 8
ENDMDL
MODEL 6
REMARK VINA RESULT:      -7.6      4.377     11.191
REMARK  Name = 
REMARK  8 active torsions:
REMARK  status: ('A' for Active; 'I' for Inactive)
REMARK    1  A    between atoms: N_1  and  C_2
REMARK    2  A    between atoms: C_8  and  C_9
REMARK    3  A    between atoms: C_13  and  O_14
REMARK    4  A    between atoms: O_14  and  C_15
REMARK    5  A    between atoms: C_15  and  C_16
REMARK    6  A    between atoms: N_24  and  C_25
REMARK    7  A    between atoms: C_27  and  C_28
REMARK    8  A    between atoms: C_28  and  N_29
REMARK                            x       y       z     vdW  Elec       q    Type
REMARK                         _______ _______ _______ _____ _____    ______ ____
ROOT
ATOM      1  C   UNL     1      -1.397  10.390  17.744  0.00  0.00    +0.000 A 
ATOM      2  N   UNL     1      -2.454  11.131  17.328  0.00  0.00    +0.000 NA
ATOM      3  C   UNL     1      -2.952  12.037  18.167  0.00  0.00    +0.000 A 
ATOM      4  N   UNL     1      -2.553  12.342  19.406  0.00  0.00    +0.000 NA
ATOM      5  C   UNL     1      -1.502  11.596  19.797  0.00  0.00    +0.000 A 
ATOM      6  C   UNL     1      -0.886  10.618  19.037  0.00  0.00    +0.000 A 
ATOM      7  C   UNL     1       0.162  10.050  19.831  0.00  0.00    +0.000 A 
ATOM      8  C   UNL     1       0.116  10.690  21.067  0.00  0.00    +0.000 A 
ATOM      9  N   UNL     1      -0.875  11.645  21.017  0.00  0.00    +0.000 N 
ENDROOT
BRANCH   7  10
ATOM     10  C   UNL     1       1.135   9.013  19.514  0.00  0.00    +0.000 A 
ATOM     11  C   UNL     1       1.890   9.104  18.353  0.00  0.00    +0.000 A 
ATOM     12  C   UNL     1       2.772   8.077  18.008  0.00  0.00    +0.000 A 
ATOM     13  C   UNL     1       2.907   6.997  18.844  0.00  0.00    +0.000 A 
ATOM     14  C   UNL     1       2.188   6.867  20.015  0.00  0.00    +0.000 A 
ATOM     15  C   UNL     1       1.280   7.886  20.355  0.00  0.00    +0.000 A 
BRANCH  14  16
ATOM     16  O   UNL     1       2.342   5.761  20.814  0.00  0.00    +0.000 OA
BRANCH  16  17
ATOM     17  C   UNL     1       1.413   4.705  20.496  0.00  0.00    +0.000 C 
BRANCH  17  18
ATOM     18  C   UNL     1       2.099   3.649  19.677  0.00  0.00    +0.000 A 
ATOM     19  C   UNL     1       1.577   3.288  18.425  0.00  0.00    +0.000 A 
ATOM     20  C   UNL     1       2.233   2.349  17.637  0.00  0.00    +0.000 A 
ATOM     21  C   UNL     1       3.417   1.764  18.085  0.00  0.00    +0.000 A 
ATOM     22  C   UNL     1       3.934   2.105  19.332  0.00  0.00    +0.000 A 
ATOM     23  C   UNL     1       3.280   3.043  20.126  0.00  0.00    +0.000 A 
ENDBRANCH  17  18
ENDBRANCH  16  17
ENDBRANCH  14  16
ENDBRANCH   7  10
BRANCH   9  24
ATOM     24  C   UNL     1      -1.162  12.470  22.173  0.00  0.00    +0.000 C 
ATOM     25  C   UNL     1      -2.383  13.397  21.923  0.00  0.00    +0.000 C 
ATOM     26  C   UNL     1      -3.265  12.393  22.705  0.00  0.00    +0.000 C 
ATOM     27  C   UNL     1      -1.951  11.900  23.376  0.00  0.00    +0.000 C 
BRANCH  26  28
ATOM     28  C   UNL     1      -4.388  12.918  23.613  0.00  0.00    +0.000 C 
BRANCH  28  29
ATOM     29  N   UNL     1      -5.733  12.558  23.102  0.00  0.00    +0.000 NA
ATOM     30  C   UNL     1      -6.314  13.591  22.220  0.00  0.00    +0.000 C 
ATOM     31  C   UNL     1      -6.913  14.613  23.168  0.00  0.00    +0.000 C 
ATOM     32  C   UNL     1      -7.573  13.718  24.195  0.00  0.00    +0.000 C 
ATOM     33  C   UNL     1      -6.711  12.455  24.212  0.00  0.00    +0.000 C 
ENDBRANCH  28  29
ENDBRANCH  26  28
ENDBRANCH   9  24
BRANCH   1  34
ATOM     34  N   UNL     1      -0.916   9.449  16.863  0.00  0.00    +0.000 N 
ATOM     35  H   UNL     1      -1.147   9.625  15.904  0.00  0.00    +0.000 HD
ATOM     36  H   UNL     1      -0.968   8.483  17.153  0.00  0.00    +0.000 HD
ENDBRANCH   1  34
TORSDOF 8
ENDMDL
MODEL 7
REMARK VINA RESULT:      -7.6      5.283     10.947
REMARK  Name = 
REMARK  8 active torsions:
REMARK  status: ('A' for Active; 'I' for Inactive)
REMARK    1  A    between atoms: N_1  and  C_2
REMARK    2  A    between atoms: C_8  and  C_9
REMARK    3  A    between atoms: C_13  and  O_14
REMARK    4  A    between atoms: O_14  and  C_15
REMARK    5  A    between atoms: C_15  and  C_16
REMARK    6  A    between atoms: N_24  and  C_25
REMARK    7  A    between atoms: C_27  and  C_28
REMARK    8  A    between atoms: C_28  and  N_29
REMARK                            x       y       z     vdW  Elec       q    Type
REMARK                         _______ _______ _______ _____ _____    ______ ____
ROOT
ATOM      1  C   UNL     1       1.610  13.928  21.196  0.00  0.00    +0.000 A 
ATOM      2  N   UNL     1       1.713  15.155  21.765  0.00  0.00    +0.000 NA
ATOM      3  C   UNL     1       0.621  15.686  22.309  0.00  0.00    +0.000 A 
ATOM      4  N   UNL     1      -0.612  15.175  22.385  0.00  0.00    +0.000 NA
ATOM      5  C   UNL     1      -0.691  13.957  21.816  0.00  0.00    +0.000 A 
ATOM      6  C   UNL     1       0.356  13.286  21.210  0.00  0.00    +0.000 A 
ATOM      7  C   UNL     1      -0.157  12.045  20.711  0.00  0.00    +0.000 A 
ATOM      8  C   UNL     1      -1.517  12.030  21.007  0.00  0.00    +0.000 A 
ATOM      9  N   UNL     1      -1.816  13.179  21.704  0.00  0.00    +0.000 N 
ENDROOT
BRANCH   7  10
ATOM     10  C   UNL     1       0.514  10.952  20.020  0.00  0.00    +0.000 A 
ATOM     11  C   UNL     1       0.850  11.082  18.680  0.00  0.00    +0.000 A 
ATOM     12  C   UNL     1       1.428  10.010  17.995  0.00  0.00    +0.000 A 
ATOM     13  C   UNL     1       1.691   8.845  18.669  0.00  0.00    +0.000 A 
ATOM     14  C   UNL     1       1.387   8.672  20.004  0.00  0.00    +0.000 A 
ATOM     15  C   UNL     1       0.782   9.737  20.693  0.00  0.00    +0.000 A 
BRANCH  14  16
ATOM     16  O   UNL     1       1.652   7.481  20.636  0.00  0.00    +0.000 OA
BRANCH  16  17
ATOM     17  C   UNL     1       2.619   6.675  19.933  0.00  0.00    +0.000 C 
BRANCH  17  18
ATOM     18  C   UNL     1       2.059   5.304  19.684  0.00  0.00    +0.000 A 
ATOM     19  C   UNL     1       1.595   4.533  20.762  0.00  0.00    +0.000 A 
ATOM     20  C   UNL     1       1.028   3.285  20.536  0.00  0.00    +0.000 A 
ATOM     21  C   UNL     1       0.913   2.791  19.237  0.00  0.00    +0.000 A 
ATOM     22  C   UNL     1       1.384   3.542  18.163  0.00  0.00    +0.000 A 
ATOM     23  C   UNL     1       1.955   4.793  18.384  0.00  0.00    +0.000 A 
ENDBRANCH  17  18
ENDBRANCH  16  17
ENDBRANCH  14  16
ENDBRANCH   7  10
BRANCH   9  24
ATOM     24  C   UNL     1      -3.172  13.444  22.142  0.00  0.00    +0.000 C 
ATOM     25  C   UNL     1      -3.830  14.576  21.306  0.00  0.00    +0.000 C 
ATOM     26  C   UNL     1      -4.554  13.494  20.469  0.00  0.00    +0.000 C 
ATOM     27  C   UNL     1      -4.343  12.543  21.681  0.00  0.00    +0.000 C 
BRANCH  26  28
ATOM     28  C   UNL     1      -5.991  13.744  19.987  0.00  0.00    +0.000 C 
BRANCH  28  29
ATOM     29  N   UNL     1      -6.232  13.188  18.634  0.00  0.00    +0.000 NA
ATOM     30  C   UNL     1      -7.445  12.348  18.559  0.00  0.00    +0.000 C 
ATOM     31  C   UNL     1      -7.004  10.990  19.073  0.00  0.00    +0.000 C 
ATOM     32  C   UNL     1      -5.661  10.834  18.392  0.00  0.00    +0.000 C 
ATOM     33  C   UNL     1      -5.142  12.265  18.239  0.00  0.00    +0.000 C 
ENDBRANCH  28  29
ENDBRANCH  26  28
ENDBRANCH   9  24
BRANCH   1  34
ATOM     34  N   UNL     1       2.751  13.413  20.624  0.00  0.00    +0.000 N 
ATOM     35  H   UNL     1       2.730  12.421  20.481  0.00  0.00    +0.000 HD
ATOM     36  H   UNL     1       3.632  13.787  20.944  0.00  0.00    +0.000 HD
ENDBRANCH   1  34
TORSDOF 8
ENDMDL
MODEL 8
REMARK VINA RESULT:      -7.6      1.868      2.622
REMARK  Name = 
REMARK  8 active torsions:
REMARK  status: ('A' for Active; 'I' for Inactive)
REMARK    1  A    between atoms: N_1  and  C_2
REMARK    2  A    between atoms: C_8  and  C_9
REMARK    3  A    between atoms: C_13  and  O_14
REMARK    4  A    between atoms: O_14  and  C_15
REMARK    5  A    between atoms: C_15  and  C_16
REMARK    6  A    between atoms: N_24  and  C_25
REMARK    7  A    between atoms: C_27  and  C_28
REMARK    8  A    between atoms: C_28  and  N_29
REMARK                            x       y       z     vdW  Elec       q    Type
REMARK                         _______ _______ _______ _____ _____    ______ ____
ROOT
ATOM      1  C   UNL     1       2.395   4.367  20.345  0.00  0.00    +0.000 A 
ATOM      2  N   UNL     1       2.676   3.101  20.742  0.00  0.00    +0.000 NA
ATOM      3  C   UNL     1       3.792   2.536  20.289  0.00  0.00    +0.000 A 
ATOM      4  N   UNL     1       4.717   3.046  19.470  0.00  0.00    +0.000 NA
ATOM      5  C   UNL     1       4.419   4.303  19.089  0.00  0.00    +0.000 A 
ATOM      6  C   UNL     1       3.296   5.012  19.474  0.00  0.00    +0.000 A 
ATOM      7  C   UNL     1       3.346   6.288  18.827  0.00  0.00    +0.000 A 
ATOM      8  C   UNL     1       4.494   6.288  18.038  0.00  0.00    +0.000 A 
ATOM      9  N   UNL     1       5.147   5.092  18.234  0.00  0.00    +0.000 N 
ENDROOT
BRANCH   7  10
ATOM     10  C   UNL     1       2.440   7.426  18.904  0.00  0.00    +0.000 A 
ATOM     11  C   UNL     1       2.164   8.170  17.765  0.00  0.00    +0.000 A 
ATOM     12  C   UNL     1       1.354   9.305  17.848  0.00  0.00    +0.000 A 
ATOM     13  C   UNL     1       0.807   9.654  19.057  0.00  0.00    +0.000 A 
ATOM     14  C   UNL     1       1.042   8.940  20.214  0.00  0.00    +0.000 A 
ATOM     15  C   UNL     1       1.877   7.811  20.143  0.00  0.00    +0.000 A 
BRANCH  14  16
ATOM     16  O   UNL     1       0.489   9.335  21.408  0.00  0.00    +0.000 OA
BRANCH  16  17
ATOM     17  C   UNL     1       0.618  10.751  21.645  0.00  0.00    +0.000 C 
BRANCH  17  18
ATOM     18  C   UNL     1      -0.739  11.361  21.856  0.00  0.00    +0.000 A 
ATOM     19  C   UNL     1      -1.353  11.278  23.116  0.00  0.00    +0.000 A 
ATOM     20  C   UNL     1      -2.585  11.883  23.335  0.00  0.00    +0.000 A 
ATOM     21  C   UNL     1      -3.216  12.580  22.306  0.00  0.00    +0.000 A 
ATOM     22  C   UNL     1      -2.621  12.655  21.048  0.00  0.00    +0.000 A 
ATOM     23  C   UNL     1      -1.388  12.049  20.823  0.00  0.00    +0.000 A 
ENDBRANCH  17  18
ENDBRANCH  16  17
ENDBRANCH  14  16
ENDBRANCH   7  10
BRANCH   9  24
ATOM     24  C   UNL     1       6.380   4.802  17.530  0.00  0.00    +0.000 C 
ATOM     25  C   UNL     1       6.153   3.786  16.377  0.00  0.00    +0.000 C 
ATOM     26  C   UNL     1       6.129   4.970  15.381  0.00  0.00    +0.000 C 
ATOM     27  C   UNL     1       6.923   5.771  16.452  0.00  0.00    +0.000 C 
BRANCH  26  28
ATOM     28  C   UNL     1       6.758   4.802  13.989  0.00  0.00    +0.000 C 
BRANCH  28  29
ATOM     29  N   UNL     1       6.413   3.498  13.373  0.00  0.00    +0.000 NA
ATOM     30  C   UNL     1       7.019   3.307  12.040  0.00  0.00    +0.000 C 
ATOM     31  C   UNL     1       6.090   4.039  11.088  0.00  0.00    +0.000 C 
ATOM     32  C   UNL     1       4.734   3.623  11.615  0.00  0.00    +0.000 C 
ATOM     33  C   UNL     1       4.956   3.405  13.113  0.00  0.00    +0.000 C 
ENDBRANCH  28  29
ENDBRANCH  26  28
ENDBRANCH   9  24
BRANCH   1  34
ATOM     34  N   UNL     1       1.224   4.918  20.814  0.00  0.00    +0.000 N 
ATOM     35  H   UNL     1       1.327   5.452  21.656  0.00  0.00    +0.000 HD
ATOM     36  H   UNL     1       0.395   4.343  20.763  0.00  0.00    +0.000 HD
ENDBRANCH   1  34
TORSDOF 8
ENDMDL
MODEL 9
REMARK VINA RESULT:      -7.6      4.992     11.381
REMARK  Name = 
REMARK  8 active torsions:
REMARK  status: ('A' for Active; 'I' for Inactive)
REMARK    1  A    between atoms: N_1  and  C_2
REMARK    2  A    between atoms: C_8  and  C_9
REMARK    3  A    between atoms: C_13  and  O_14
REMARK    4  A    between atoms: O_14  and  C_15
REMARK    5  A    between atoms: C_15  and  C_16
REMARK    6  A    between atoms: N_24  and  C_25
REMARK    7  A    between atoms: C_27  and  C_28
REMARK    8  A    between atoms: C_28  and  N_29
REMARK                            x       y       z     vdW  Elec       q    Type
REMARK                         _______ _______ _______ _____ _____    ______ ____
ROOT
ATOM      1  C   UNL     1      -3.262  11.221  17.063  0.00  0.00    +0.000 A 
ATOM      2  N   UNL     1      -4.552  11.299  16.652  0.00  0.00    +0.000 NA
ATOM      3  C   UNL     1      -5.452  11.783  17.505  0.00  0.00    +0.000 A 
ATOM      4  N   UNL     1      -5.273  12.224  18.754  0.00  0.00    +0.000 NA
ATOM      5  C   UNL     1      -3.985  12.139  19.140  0.00  0.00    +0.000 A 
ATOM      6  C   UNL     1      -2.946  11.654  18.366  0.00  0.00    +0.000 A 
ATOM      7  C   UNL     1      -1.754  11.709  19.159  0.00  0.00    +0.000 A 
ATOM      8  C   UNL     1      -2.130  12.199  20.407  0.00  0.00    +0.000 A 
ATOM      9  N   UNL     1      -3.476  12.484  20.367  0.00  0.00    +0.000 N 
ENDROOT
BRANCH   7  10
ATOM     10  C   UNL     1      -0.381  11.353  18.830  0.00  0.00    +0.000 A 
ATOM     11  C   UNL     1       0.611  12.324  18.851  0.00  0.00    +0.000 A 
ATOM     12  C   UNL     1       1.914  12.004  18.466  0.00  0.00    +0.000 A 
ATOM     13  C   UNL     1       2.211  10.715  18.102  0.00  0.00    +0.000 A 
ATOM     14  C   UNL     1       1.263   9.712  18.076  0.00  0.00    +0.000 A 
ATOM     15  C   UNL     1      -0.057  10.033  18.438  0.00  0.00    +0.000 A 
BRANCH  14  16
ATOM     16  O   UNL     1       1.598   8.438  17.688  0.00  0.00    +0.000 OA
BRANCH  16  17
ATOM     17  C   UNL     1       2.583   7.830  18.549  0.00  0.00    +0.000 C 
BRANCH  17  18
ATOM     18  C   UNL     1       3.015   6.508  17.979  0.00  0.00    +0.000 A 
ATOM     19  C   UNL     1       4.268   6.391  17.358  0.00  0.00    +0.000 A 
ATOM     20  C   UNL     1       4.697   5.162  16.874  0.00  0.00    +0.000 A 
ATOM     21  C   UNL     1       3.887   4.035  17.006  0.00  0.00    +0.000 A 
ATOM     22  C   UNL     1       2.635   4.144  17.608  0.00  0.00    +0.000 A 
ATOM     23  C   UNL     1       2.200   5.374  18.093  0.00  0.00    +0.000 A 
ENDBRANCH  17  18
ENDBRANCH  16  17
ENDBRANCH  14  16
ENDBRANCH   7  10
BRANCH   9  24
ATOM     24  C   UNL     1      -4.154  13.004  21.538  0.00  0.00    +0.000 C 
ATOM     25  C   UNL     1      -3.518  12.468  22.850  0.00  0.00    +0.000 C 
ATOM     26  C   UNL     1      -2.746  13.804  22.984  0.00  0.00    +0.000 C 
ATOM     27  C   UNL     1      -3.840  14.424  22.069  0.00  0.00    +0.000 C 
BRANCH  26  28
ATOM     28  C   UNL     1      -2.534  14.419  24.376  0.00  0.00    +0.000 C 
BRANCH  28  29
ATOM     29  N   UNL     1      -1.160  14.951  24.547  0.00  0.00    +0.000 NA
ATOM     30  C   UNL     1      -1.006  15.783  25.758  0.00  0.00    +0.000 C 
ATOM     31  C   UNL     1      -1.520  17.152  25.353  0.00  0.00    +0.000 C 
ATOM     32  C   UNL     1      -0.908  17.304  23.977  0.00  0.00    +0.000 C 
ATOM     33  C   UNL     1      -0.808  15.874  23.442  0.00  0.00    +0.000 C 
ENDBRANCH  28  29
ENDBRANCH  26  28
ENDBRANCH   9  24
BRANCH   1  34
ATOM     34  N   UNL     1      -2.357  10.698  16.168  0.00  0.00    +0.000 N 
ATOM     35  H   UNL     1      -2.409  11.095  15.249  0.00  0.00    +0.000 HD
ATOM     36  H   UNL     1      -2.204   9.701  16.202  0.00  0.00    +0.000 HD
ENDBRANCH   1  34
TORSDOF 8
ENDMDL
