MODEL 1
REMARK VINA RESULT:      -9.1      0.000      0.000
REMARK  Name = 
REMARK  5 active torsions:
REMARK  status: ('A' for Active; 'I' for Inactive)
REMARK    1  A    between atoms: S_2  and  N_4
REMARK    2  A    between atoms: S_2  and  C_26
REMARK    3  A    between atoms: N_4  and  C_5
REMARK    4  A    between atoms: C_9  and  C_10
REMARK    5  A    between atoms: C_16  and  C_17
REMARK                            x       y       z     vdW  Elec       q    Type
REMARK                         _______ _______ _______ _____ _____    ______ ____
ROOT
ATOM      1  C   UNL     1       0.645  10.430  20.030  0.00  0.00    +0.000 A 
ATOM      2  C   UNL     1       0.765  10.768  21.373  0.00  0.00    +0.000 A 
ATOM      3  N   UNL     1       1.161   9.898  22.331  0.00  0.00    +0.000 NA
ATOM      4  C   UNL     1       1.526   8.664  21.909  0.00  0.00    +0.000 A 
ATOM      5  C   UNL     1       1.496   8.249  20.577  0.00  0.00    +0.000 A 
ATOM      6  C   UNL     1       0.985   9.139  19.636  0.00  0.00    +0.000 A 
ENDROOT
BRANCH   5   7
ATOM      7  C   UNL     1       1.893   6.886  20.199  0.00  0.00    +0.000 A 
ATOM      8  C   UNL     1       1.294   5.749  20.891  0.00  0.00    +0.000 A 
ATOM      9  C   UNL     1       1.712   4.494  20.683  0.00  0.00    +0.000 A 
ATOM     10  C   UNL     1       2.753   4.249  19.764  0.00  0.00    +0.000 A 
ATOM     11  N   UNL     1       3.369   3.118  19.533  0.00  0.00    +0.000 NA
ATOM     12  C   UNL     1       4.254   3.413  18.568  0.00  0.00    +0.000 A 
ATOM     13  C   UNL     1       4.161   4.737  18.122  0.00  0.00    +0.000 A 
ATOM     14  N   UNL     1       3.251   5.315  19.000  0.00  0.00    +0.000 N 
ATOM     15  C   UNL     1       2.824   6.643  19.234  0.00  0.00    +0.000 A 
BRANCH  13  16
ATOM     16  C   UNL     1       4.986   5.198  17.001  0.00  0.00    +0.000 A 
ATOM     17  C   UNL     1       5.122   4.261  15.957  0.00  0.00    +0.000 A 
ATOM     18  C   UNL     1       6.358   4.109  15.358  0.00  0.00    +0.000 A 
ATOM     19  N   UNL     1       7.404   4.913  15.617  0.00  0.00    +0.000 NA
ATOM     20  C   UNL     1       7.195   5.919  16.498  0.00  0.00    +0.000 A 
ATOM     21  C   UNL     1       6.010   6.120  17.198  0.00  0.00    +0.000 A 
ENDBRANCH  13  16
ENDBRANCH   5   7
BRANCH   1  22
ATOM     22  N   UNL     1       0.309  11.424  19.064  0.00  0.00    +0.000 N 
ATOM     23  H   UNL     1       1.042  12.085  18.810  0.00  0.00    +0.000 HD
BRANCH  22  25
ATOM     24  O   UNL     1      -1.676  11.809  20.588  0.00  0.00    +0.000 OA
ATOM     25  S   UNL     1      -1.189  12.211  19.287  0.00  0.00    +0.000 S 
ATOM     26  O   UNL     1      -1.043  13.599  18.927  0.00  0.00    +0.000 OA
BRANCH  25  27
ATOM     27  C   UNL     1      -2.232  11.411  18.076  0.00  0.00    +0.000 A 
ATOM     28  C   UNL     1      -1.651  10.486  17.201  0.00  0.00    +0.000 A 
ATOM     29  C   UNL     1      -2.434   9.894  16.210  0.00  0.00    +0.000 A 
ATOM     30  C   UNL     1      -3.791  10.209  16.115  0.00  0.00    +0.000 A 
ATOM     31  C   UNL     1      -4.369  11.113  17.007  0.00  0.00    +0.000 A 
ATOM     32  C   UNL     1      -3.590  11.724  17.992  0.00  0.00    +0.000 A 
ENDBRANCH  25  27
ENDBRANCH  22  25
ENDBRANCH   1  22
TORSDOF 5
ENDMDL
MODEL 2
REMARK VINA RESULT:      -9.0      2.394      3.317
REMARK  Name = 
REMARK  5 active torsions:
REMARK  status: ('A' for Active; 'I' for Inactive)
REMARK    1  A    between atoms: S_2  and  N_4
REMARK    2  A    between atoms: S_2  and  C_26
REMARK    3  A    between atoms: N_4  and  C_5
REMARK    4  A    between atoms: C_9  and  C_10
REMARK    5  A    between atoms: C_16  and  C_17
REMARK                            x       y       z     vdW  Elec       q    Type
REMARK                         _______ _______ _______ _____ _____    ______ ____
ROOT
ATOM      1  C   UNL     1       0.488  10.103  19.730  0.00  0.00    +0.000 A 
ATOM      2  C   UNL     1       1.066  10.779  18.662  0.00  0.00    +0.000 A 
ATOM      3  N   UNL     1       2.031  10.251  17.875  0.00  0.00    +0.000 NA
ATOM      4  C   UNL     1       2.372   8.964  18.123  0.00  0.00    +0.000 A 
ATOM      5  C   UNL     1       1.809   8.184  19.134  0.00  0.00    +0.000 A 
ATOM      6  C   UNL     1       0.894   8.796  19.986  0.00  0.00    +0.000 A 
ENDROOT
BRANCH   5   7
ATOM      7  C   UNL     1       2.243   6.797  19.352  0.00  0.00    +0.000 A 
ATOM      8  C   UNL     1       1.622   6.012  20.415  0.00  0.00    +0.000 A 
ATOM      9  C   UNL     1       2.066   4.794  20.746  0.00  0.00    +0.000 A 
ATOM     10  C   UNL     1       3.158   4.236  20.049  0.00  0.00    +0.000 A 
ATOM     11  N   UNL     1       3.800   3.129  20.318  0.00  0.00    +0.000 NA
ATOM     12  C   UNL     1       4.732   3.042  19.356  0.00  0.00    +0.000 A 
ATOM     13  C   UNL     1       4.646   4.073  18.413  0.00  0.00    +0.000 A 
ATOM     14  N   UNL     1       3.683   4.924  18.944  0.00  0.00    +0.000 N 
ATOM     15  C   UNL     1       3.228   6.220  18.607  0.00  0.00    +0.000 A 
BRANCH  13  16
ATOM     16  C   UNL     1       5.524   4.075  17.239  0.00  0.00    +0.000 A 
ATOM     17  C   UNL     1       6.762   4.719  17.442  0.00  0.00    +0.000 A 
ATOM     18  C   UNL     1       7.263   5.525  16.438  0.00  0.00    +0.000 A 
ATOM     19  N   UNL     1       6.705   5.613  15.218  0.00  0.00    +0.000 NA
ATOM     20  C   UNL     1       5.613   4.847  14.992  0.00  0.00    +0.000 A 
ATOM     21  C   UNL     1       4.996   4.050  15.952  0.00  0.00    +0.000 A 
ENDBRANCH  13  16
ENDBRANCH   5   7
BRANCH   1  22
ATOM     22  N   UNL     1      -0.587  10.690  20.459  0.00  0.00    +0.000 N 
ATOM     23  H   UNL     1      -1.292  11.188  19.917  0.00  0.00    +0.000 HD
BRANCH  22  25
ATOM     24  O   UNL     1       0.051  10.574  22.907  0.00  0.00    +0.000 OA
ATOM     25  S   UNL     1      -0.157  11.556  21.865  0.00  0.00    +0.000 S 
ATOM     26  O   UNL     1       0.854  12.525  21.525  0.00  0.00    +0.000 OA
BRANCH  25  27
ATOM     27  C   UNL     1      -1.669  12.421  22.267  0.00  0.00    +0.000 A 
ATOM     28  C   UNL     1      -2.435  11.961  23.345  0.00  0.00    +0.000 A 
ATOM     29  C   UNL     1      -3.648  12.583  23.639  0.00  0.00    +0.000 A 
ATOM     30  C   UNL     1      -4.075  13.671  22.875  0.00  0.00    +0.000 A 
ATOM     31  C   UNL     1      -3.294  14.140  21.817  0.00  0.00    +0.000 A 
ATOM     32  C   UNL     1      -2.085  13.514  21.504  0.00  0.00    +0.000 A 
ENDBRANCH  25  27
ENDBRANCH  22  25
ENDBRANCH   1  22
TORSDOF 5
ENDMDL
MODEL 3
REMARK VINA RESULT:      -9.0      4.167      8.531
REMARK  Name = 
REMARK  5 active torsions:
REMARK  status: ('A' for Active; 'I' for Inactive)
REMARK    1  A    between atoms: S_2  and  N_4
REMARK    2  A    between atoms: S_2  and  C_26
REMARK    3  A    between atoms: N_4  and  C_5
REMARK    4  A    between atoms: C_9  and  C_10
REMARK    5  A    between atoms: C_16  and  C_17
REMARK                            x       y       z     vdW  Elec       q    Type
REMARK                         _______ _______ _______ _____ _____    ______ ____
ROOT
ATOM      1  C   UNL     1       4.461   4.656  17.372  0.00  0.00    +0.000 A 
ATOM      2  C   UNL     1       5.097   5.357  16.355  0.00  0.00    +0.000 A 
ATOM      3  N   UNL     1       4.901   6.674  16.117  0.00  0.00    +0.000 NA
ATOM      4  C   UNL     1       4.094   7.329  16.985  0.00  0.00    +0.000 A 
ATOM      5  C   UNL     1       3.457   6.727  18.071  0.00  0.00    +0.000 A 
ATOM      6  C   UNL     1       3.603   5.350  18.221  0.00  0.00    +0.000 A 
ENDROOT
BRANCH   5   7
ATOM      7  C   UNL     1       2.583   7.501  18.963  0.00  0.00    +0.000 A 
ATOM      8  C   UNL     1       2.115   6.897  20.207  0.00  0.00    +0.000 A 
ATOM      9  C   UNL     1       1.215   7.501  20.991  0.00  0.00    +0.000 A 
ATOM     10  C   UNL     1       0.701   8.762  20.622  0.00  0.00    +0.000 A 
ATOM     11  N   UNL     1      -0.267   9.432  21.191  0.00  0.00    +0.000 NA
ATOM     12  C   UNL     1      -0.353  10.564  20.476  0.00  0.00    +0.000 A 
ATOM     13  C   UNL     1       0.619  10.657  19.473  0.00  0.00    +0.000 A 
ATOM     14  N   UNL     1       1.234   9.410  19.497  0.00  0.00    +0.000 N 
ATOM     15  C   UNL     1       2.171   8.764  18.657  0.00  0.00    +0.000 A 
BRANCH  13  16
ATOM     16  C   UNL     1       0.732  11.874  18.664  0.00  0.00    +0.000 A 
ATOM     17  C   UNL     1       2.042  12.386  18.568  0.00  0.00    +0.000 A 
ATOM     18  C   UNL     1       2.228  13.753  18.647  0.00  0.00    +0.000 A 
ATOM     19  N   UNL     1       1.212  14.634  18.663  0.00  0.00    +0.000 NA
ATOM     20  C   UNL     1      -0.038  14.122  18.577  0.00  0.00    +0.000 A 
ATOM     21  C   UNL     1      -0.333  12.762  18.554  0.00  0.00    +0.000 A 
ENDBRANCH  13  16
ENDBRANCH   5   7
BRANCH   1  22
ATOM     22  N   UNL     1       4.786   3.290  17.619  0.00  0.00    +0.000 N 
ATOM     23  H   UNL     1       5.569   2.902  17.095  0.00  0.00    +0.000 HD
BRANCH  22  25
ATOM     24  O   UNL     1       2.584   2.579  16.590  0.00  0.00    +0.000 OA
ATOM     25  S   UNL     1       3.471   2.203  17.669  0.00  0.00    +0.000 S 
ATOM     26  O   UNL     1       3.981   0.861  17.799  0.00  0.00    +0.000 OA
BRANCH  25  27
ATOM     27  C   UNL     1       2.651   2.656  19.191  0.00  0.00    +0.000 A 
ATOM     28  C   UNL     1       3.348   2.506  20.396  0.00  0.00    +0.000 A 
ATOM     29  C   UNL     1       2.708   2.796  21.600  0.00  0.00    +0.000 A 
ATOM     30  C   UNL     1       1.389   3.256  21.593  0.00  0.00    +0.000 A 
ATOM     31  C   UNL     1       0.708   3.426  20.387  0.00  0.00    +0.000 A 
ATOM     32  C   UNL     1       1.335   3.123  19.177  0.00  0.00    +0.000 A 
ENDBRANCH  25  27
ENDBRANCH  22  25
ENDBRANCH   1  22
TORSDOF 5
ENDMDL
MODEL 4
REMARK VINA RESULT:      -8.8      0.727      1.085
REMARK  Name = 
REMARK  5 active torsions:
REMARK  status: ('A' for Active; 'I' for Inactive)
REMARK    1  A    between atoms: S_2  and  N_4
REMARK    2  A    between atoms: S_2  and  C_26
REMARK    3  A    between atoms: N_4  and  C_5
REMARK    4  A    between atoms: C_9  and  C_10
REMARK    5  A    between atoms: C_16  and  C_17
REMARK                            x       y       z     vdW  Elec       q    Type
REMARK                         _______ _______ _______ _____ _____    ______ ____
ROOT
ATOM      1  C   UNL     1       0.720  10.121  19.833  0.00  0.00    +0.000 A 
ATOM      2  C   UNL     1       0.864  10.570  21.140  0.00  0.00    +0.000 A 
ATOM      3  N   UNL     1       1.273   9.782  22.161  0.00  0.00    +0.000 NA
ATOM      4  C   UNL     1       1.625   8.515  21.840  0.00  0.00    +0.000 A 
ATOM      5  C   UNL     1       1.571   7.989  20.548  0.00  0.00    +0.000 A 
ATOM      6  C   UNL     1       1.048   8.799  19.544  0.00  0.00    +0.000 A 
ENDROOT
BRANCH   5   7
ATOM      7  C   UNL     1       1.956   6.597  20.280  0.00  0.00    +0.000 A 
ATOM      8  C   UNL     1       1.156   5.512  20.841  0.00  0.00    +0.000 A 
ATOM      9  C   UNL     1       1.531   4.232  20.742  0.00  0.00    +0.000 A 
ATOM     10  C   UNL     1       2.728   3.905  20.070  0.00  0.00    +0.000 A 
ATOM     11  N   UNL     1       3.309   2.736  19.989  0.00  0.00    +0.000 NA
ATOM     12  C   UNL     1       4.395   2.957  19.233  0.00  0.00    +0.000 A 
ATOM     13  C   UNL     1       4.480   4.272  18.762  0.00  0.00    +0.000 A 
ATOM     14  N   UNL     1       3.441   4.923  19.418  0.00  0.00    +0.000 N 
ATOM     15  C   UNL     1       3.055   6.278  19.539  0.00  0.00    +0.000 A 
BRANCH  13  16
ATOM     16  C   UNL     1       5.551   4.659  17.839  0.00  0.00    +0.000 A 
ATOM     17  C   UNL     1       6.524   5.508  18.403  0.00  0.00    +0.000 A 
ATOM     18  C   UNL     1       7.006   6.560  17.648  0.00  0.00    +0.000 A 
ATOM     19  N   UNL     1       6.705   6.731  16.348  0.00  0.00    +0.000 NA
ATOM     20  C   UNL     1       5.904   5.798  15.782  0.00  0.00    +0.000 A 
ATOM     21  C   UNL     1       5.320   4.739  16.469  0.00  0.00    +0.000 A 
ENDBRANCH  13  16
ENDBRANCH   5   7
BRANCH   1  22
ATOM     22  N   UNL     1       0.371  11.031  18.792  0.00  0.00    +0.000 N 
ATOM     23  H   UNL     1       1.123  11.601  18.408  0.00  0.00    +0.000 HD
BRANCH  22  25
ATOM     24  O   UNL     1      -1.544  11.591  20.352  0.00  0.00    +0.000 OA
ATOM     25  S   UNL     1      -1.041  11.955  19.045  0.00  0.00    +0.000 S 
ATOM     26  O   UNL     1      -0.772  13.326  18.691  0.00  0.00    +0.000 OA
BRANCH  25  27
ATOM     27  C   UNL     1      -2.176  11.265  17.848  0.00  0.00    +0.000 A 
ATOM     28  C   UNL     1      -1.722  10.239  17.011  0.00  0.00    +0.000 A 
ATOM     29  C   UNL     1      -2.570   9.728  16.030  0.00  0.00    +0.000 A 
ATOM     30  C   UNL     1      -3.870  10.224  15.907  0.00  0.00    +0.000 A 
ATOM     31  C   UNL     1      -4.324  11.230  16.761  0.00  0.00    +0.000 A 
ATOM     32  C   UNL     1      -3.477  11.760  17.736  0.00  0.00    +0.000 A 
ENDBRANCH  25  27
ENDBRANCH  22  25
ENDBRANCH   1  22
TORSDOF 5
ENDMDL
MODEL 5
REMARK VINA RESULT:      -8.7      2.545      4.561
REMARK  Name = 
REMARK  5 active torsions:
REMARK  status: ('A' for Active; 'I' for Inactive)
REMARK    1  A    between atoms: S_2  and  N_4
REMARK    2  A    between atoms: S_2  and  C_26
REMARK    3  A    between atoms: N_4  and  C_5
REMARK    4  A    between atoms: C_9  and  C_10
REMARK    5  A    between atoms: C_16  and  C_17
REMARK                            x       y       z     vdW  Elec       q    Type
REMARK                         _______ _______ _______ _____ _____    ______ ____
ROOT
ATOM      1  C   UNL     1       0.629   9.769  19.876  0.00  0.00    +0.000 A 
ATOM      2  C   UNL     1       0.694  10.872  19.033  0.00  0.00    +0.000 A 
ATOM      3  N   UNL     1       1.503  10.942  17.952  0.00  0.00    +0.000 NA
ATOM      4  C   UNL     1       2.216   9.828  17.661  0.00  0.00    +0.000 A 
ATOM      5  C   UNL     1       2.175   8.652  18.411  0.00  0.00    +0.000 A 
ATOM      6  C   UNL     1       1.409   8.656  19.574  0.00  0.00    +0.000 A 
ENDROOT
BRANCH   5   7
ATOM      7  C   UNL     1       2.991   7.488  18.041  0.00  0.00    +0.000 A 
ATOM      8  C   UNL     1       4.094   7.657  17.100  0.00  0.00    +0.000 A 
ATOM      9  C   UNL     1       4.785   6.615  16.626  0.00  0.00    +0.000 A 
ATOM     10  C   UNL     1       4.456   5.309  17.046  0.00  0.00    +0.000 A 
ATOM     11  N   UNL     1       4.932   4.178  16.595  0.00  0.00    +0.000 NA
ATOM     12  C   UNL     1       4.314   3.240  17.330  0.00  0.00    +0.000 A 
ATOM     13  C   UNL     1       3.479   3.777  18.317  0.00  0.00    +0.000 A 
ATOM     14  N   UNL     1       3.484   5.141  18.044  0.00  0.00    +0.000 N 
ATOM     15  C   UNL     1       2.740   6.240  18.531  0.00  0.00    +0.000 A 
BRANCH  13  16
ATOM     16  C   UNL     1       2.805   2.896  19.275  0.00  0.00    +0.000 A 
ATOM     17  C   UNL     1       1.398   2.926  19.200  0.00  0.00    +0.000 A 
ATOM     18  C   UNL     1       0.670   2.921  20.374  0.00  0.00    +0.000 A 
ATOM     19  N   UNL     1       1.228   2.740  21.584  0.00  0.00    +0.000 NA
ATOM     20  C   UNL     1       2.566   2.538  21.613  0.00  0.00    +0.000 A 
ATOM     21  C   UNL     1       3.394   2.584  20.497  0.00  0.00    +0.000 A 
ENDBRANCH  13  16
ENDBRANCH   5   7
BRANCH   1  22
ATOM     22  N   UNL     1      -0.314   9.732  20.944  0.00  0.00    +0.000 N 
ATOM     23  H   UNL     1      -1.294   9.618  20.689  0.00  0.00    +0.000 HD
BRANCH  22  25
ATOM     24  O   UNL     1      -0.079  10.213  23.420  0.00  0.00    +0.000 OA
ATOM     25  S   UNL     1      -0.121  10.917  22.157  0.00  0.00    +0.000 S 
ATOM     26  O   UNL     1       0.925  11.825  21.759  0.00  0.00    +0.000 OA
BRANCH  25  27
ATOM     27  C   UNL     1      -1.684  11.785  22.104  0.00  0.00    +0.000 A 
ATOM     28  C   UNL     1      -2.400  11.944  23.296  0.00  0.00    +0.000 A 
ATOM     29  C   UNL     1      -3.648  12.564  23.269  0.00  0.00    +0.000 A 
ATOM     30  C   UNL     1      -4.161  13.042  22.061  0.00  0.00    +0.000 A 
ATOM     31  C   UNL     1      -3.430  12.902  20.880  0.00  0.00    +0.000 A 
ATOM     32  C   UNL     1      -2.187  12.268  20.894  0.00  0.00    +0.000 A 
ENDBRANCH  25  27
ENDBRANCH  22  25
ENDBRANCH   1  22
TORSDOF 5
ENDMDL
MODEL 6
REMARK VINA RESULT:      -8.7      2.745      3.274
REMARK  Name = 
REMARK  5 active torsions:
REMARK  status: ('A' for Active; 'I' for Inactive)
REMARK    1  A    between atoms: S_2  and  N_4
REMARK    2  A    between atoms: S_2  and  C_26
REMARK    3  A    between atoms: N_4  and  C_5
REMARK    4  A    between atoms: C_9  and  C_10
REMARK    5  A    between atoms: C_16  and  C_17
REMARK                            x       y       z     vdW  Elec       q    Type
REMARK                         _______ _______ _______ _____ _____    ______ ____
ROOT
ATOM      1  C   UNL     1       0.592  10.911  20.202  0.00  0.00    +0.000 A 
ATOM      2  C   UNL     1       0.317  11.082  21.554  0.00  0.00    +0.000 A 
ATOM      3  N   UNL     1       0.422  10.092  22.470  0.00  0.00    +0.000 NA
ATOM      4  C   UNL     1       0.897   8.906  22.023  0.00  0.00    +0.000 A 
ATOM      5  C   UNL     1       1.256   8.654  20.698  0.00  0.00    +0.000 A 
ATOM      6  C   UNL     1       1.036   9.666  19.767  0.00  0.00    +0.000 A 
ENDROOT
BRANCH   5   7
ATOM      7  C   UNL     1       1.750   7.334  20.285  0.00  0.00    +0.000 A 
ATOM      8  C   UNL     1       1.199   6.135  20.910  0.00  0.00    +0.000 A 
ATOM      9  C   UNL     1       1.701   4.918  20.671  0.00  0.00    +0.000 A 
ATOM     10  C   UNL     1       2.788   4.773  19.785  0.00  0.00    +0.000 A 
ATOM     11  N   UNL     1       3.481   3.692  19.536  0.00  0.00    +0.000 NA
ATOM     12  C   UNL     1       4.381   4.078  18.618  0.00  0.00    +0.000 A 
ATOM     13  C   UNL     1       4.222   5.410  18.218  0.00  0.00    +0.000 A 
ATOM     14  N   UNL     1       3.246   5.897  19.081  0.00  0.00    +0.000 N 
ATOM     15  C   UNL     1       2.730   7.186  19.348  0.00  0.00    +0.000 A 
BRANCH  13  16
ATOM     16  C   UNL     1       5.056   5.965  17.149  0.00  0.00    +0.000 A 
ATOM     17  C   UNL     1       5.198   5.122  16.027  0.00  0.00    +0.000 A 
ATOM     18  C   UNL     1       6.438   5.019  15.426  0.00  0.00    +0.000 A 
ATOM     19  N   UNL     1       7.485   5.793  15.763  0.00  0.00    +0.000 NA
ATOM     20  C   UNL     1       7.272   6.719  16.727  0.00  0.00    +0.000 A 
ATOM     21  C   UNL     1       6.082   6.862  17.433  0.00  0.00    +0.000 A 
ENDBRANCH  13  16
ENDBRANCH   5   7
BRANCH   1  22
ATOM     22  N   UNL     1       0.546  12.023  19.311  0.00  0.00    +0.000 N 
ATOM     23  H   UNL     1       0.106  11.868  18.405  0.00  0.00    +0.000 HD
BRANCH  22  25
ATOM     24  O   UNL     1       2.579  12.985  20.476  0.00  0.00    +0.000 OA
ATOM     25  S   UNL     1       1.989  12.921  19.156  0.00  0.00    +0.000 S 
ATOM     26  O   UNL     1       2.725  12.428  18.020  0.00  0.00    +0.000 OA
BRANCH  25  27
ATOM     27  C   UNL     1       1.387  14.562  18.782  0.00  0.00    +0.000 A 
ATOM     28  C   UNL     1       2.317  15.556  18.454  0.00  0.00    +0.000 A 
ATOM     29  C   UNL     1       1.875  16.857  18.217  0.00  0.00    +0.000 A 
ATOM     30  C   UNL     1       0.512  17.152  18.283  0.00  0.00    +0.000 A 
ATOM     31  C   UNL     1      -0.412  16.150  18.585  0.00  0.00    +0.000 A 
ATOM     32  C   UNL     1       0.021  14.848  18.841  0.00  0.00    +0.000 A 
ENDBRANCH  25  27
ENDBRANCH  22  25
ENDBRANCH   1  22
TORSDOF 5
ENDMDL
MODEL 7
REMARK VINA RESULT:      -8.7      2.114      3.986
REMARK  Name = 
REMARK  5 active torsions:
REMARK  status: ('A' for Active; 'I' for Inactive)
REMARK    1  A    between atoms: S_2  and  N_4
REMARK    2  A    between atoms: S_2  and  C_26
REMARK    3  A    between atoms: N_4  and  C_5
REMARK    4  A    between atoms: C_9  and  C_10
REMARK    5  A    between atoms: C_16  and  C_17
REMARK                            x       y       z     vdW  Elec       q    Type
REMARK                         _______ _______ _______ _____ _____    ______ ____
ROOT
ATOM      1  C   UNL     1      -0.350  10.502  18.682  0.00  0.00    +0.000 A 
ATOM      2  C   UNL     1      -0.426  10.662  20.061  0.00  0.00    +0.000 A 
ATOM      3  N   UNL     1       0.278   9.914  20.941  0.00  0.00    +0.000 NA
ATOM      4  C   UNL     1       1.153   9.026  20.412  0.00  0.00    +0.000 A 
ATOM      5  C   UNL     1       1.344   8.834  19.043  0.00  0.00    +0.000 A 
ATOM      6  C   UNL     1       0.527   9.549  18.171  0.00  0.00    +0.000 A 
ENDROOT
BRANCH   5   7
ATOM      7  C   UNL     1       2.302   7.838  18.544  0.00  0.00    +0.000 A 
ATOM      8  C   UNL     1       3.331   8.249  17.593  0.00  0.00    +0.000 A 
ATOM      9  C   UNL     1       4.144   7.365  17.005  0.00  0.00    +0.000 A 
ATOM     10  C   UNL     1       4.022   5.993  17.310  0.00  0.00    +0.000 A 
ATOM     11  N   UNL     1       4.636   4.987  16.743  0.00  0.00    +0.000 NA
ATOM     12  C   UNL     1       4.188   3.909  17.404  0.00  0.00    +0.000 A 
ATOM     13  C   UNL     1       3.325   4.229  18.459  0.00  0.00    +0.000 A 
ATOM     14  N   UNL     1       3.125   5.598  18.314  0.00  0.00    +0.000 N 
ATOM     15  C   UNL     1       2.252   6.529  18.922  0.00  0.00    +0.000 A 
BRANCH  13  16
ATOM     16  C   UNL     1       2.824   3.178  19.349  0.00  0.00    +0.000 A 
ATOM     17  C   UNL     1       1.442   3.257  19.619  0.00  0.00    +0.000 A 
ATOM     18  C   UNL     1       1.002   3.016  20.906  0.00  0.00    +0.000 A 
ATOM     19  N   UNL     1       1.805   2.565  21.885  0.00  0.00    +0.000 NA
ATOM     20  C   UNL     1       3.096   2.329  21.554  0.00  0.00    +0.000 A 
ATOM     21  C   UNL     1       3.650   2.596  20.306  0.00  0.00    +0.000 A 
ENDBRANCH  13  16
ENDBRANCH   5   7
BRANCH   1  22
ATOM     22  N   UNL     1      -1.054  11.387  17.814  0.00  0.00    +0.000 N 
ATOM     23  H   UNL     1      -1.171  12.348  18.132  0.00  0.00    +0.000 HD
BRANCH  22  25
ATOM     24  O   UNL     1      -2.553  11.284  15.775  0.00  0.00    +0.000 OA
ATOM     25  S   UNL     1      -2.494  10.779  17.129  0.00  0.00    +0.000 S 
ATOM     26  O   UNL     1      -2.589   9.370  17.418  0.00  0.00    +0.000 OA
BRANCH  25  27
ATOM     27  C   UNL     1      -3.758  11.640  18.055  0.00  0.00    +0.000 A 
ATOM     28  C   UNL     1      -5.028  11.777  17.484  0.00  0.00    +0.000 A 
ATOM     29  C   UNL     1      -6.012  12.497  18.162  0.00  0.00    +0.000 A 
ATOM     30  C   UNL     1      -5.730  13.052  19.412  0.00  0.00    +0.000 A 
ATOM     31  C   UNL     1      -4.469  12.890  19.987  0.00  0.00    +0.000 A 
ATOM     32  C   UNL     1      -3.472  12.185  19.309  0.00  0.00    +0.000 A 
ENDBRANCH  25  27
ENDBRANCH  22  25
ENDBRANCH   1  22
TORSDOF 5
ENDMDL
MODEL 8
REMARK VINA RESULT:      -8.7      3.921      9.176
REMARK  Name = 
REMARK  5 active torsions:
REMARK  status: ('A' for Active; 'I' for Inactive)
REMARK    1  A    between atoms: S_2  and  N_4
REMARK    2  A    between atoms: S_2  and  C_26
REMARK    3  A    between atoms: N_4  and  C_5
REMARK    4  A    between atoms: C_9  and  C_10
REMARK    5  A    between atoms: C_16  and  C_17
REMARK                            x       y       z     vdW  Elec       q    Type
REMARK                         _______ _______ _______ _____ _____    ______ ____
ROOT
ATOM      1  C   UNL     1       2.582   6.856  19.511  0.00  0.00    +0.000 A 
ATOM      2  C   UNL     1       2.693   7.335  18.211  0.00  0.00    +0.000 A 
ATOM      3  N   UNL     1       2.129   8.488  17.787  0.00  0.00    +0.000 NA
ATOM      4  C   UNL     1       1.494   9.229  18.727  0.00  0.00    +0.000 A 
ATOM      5  C   UNL     1       1.379   8.863  20.069  0.00  0.00    +0.000 A 
ATOM      6  C   UNL     1       1.884   7.620  20.443  0.00  0.00    +0.000 A 
ENDROOT
BRANCH   5   7
ATOM      7  C   UNL     1       0.661   9.713  21.027  0.00  0.00    +0.000 A 
ATOM      8  C   UNL     1       0.036   9.102  22.197  0.00  0.00    +0.000 A 
ATOM      9  C   UNL     1      -0.740   9.803  23.031  0.00  0.00    +0.000 A 
ATOM     10  C   UNL     1      -0.963  11.175  22.791  0.00  0.00    +0.000 A 
ATOM     11  N   UNL     1      -1.785  11.975  23.418  0.00  0.00    +0.000 NA
ATOM     12  C   UNL     1      -1.607  13.166  22.824  0.00  0.00    +0.000 A 
ATOM     13  C   UNL     1      -0.606  13.148  21.846  0.00  0.00    +0.000 A 
ATOM     14  N   UNL     1      -0.270  11.803  21.745  0.00  0.00    +0.000 N 
ATOM     15  C   UNL     1       0.535  11.059  20.852  0.00  0.00    +0.000 A 
BRANCH  13  16
ATOM     16  C   UNL     1      -0.212  14.388  21.170  0.00  0.00    +0.000 A 
ATOM     17  C   UNL     1      -0.786  14.559  19.894  0.00  0.00    +0.000 A 
ATOM     18  C   UNL     1      -0.001  15.060  18.874  0.00  0.00    +0.000 A 
ATOM     19  N   UNL     1       1.243  15.532  19.068  0.00  0.00    +0.000 NA
ATOM     20  C   UNL     1       1.708  15.517  20.339  0.00  0.00    +0.000 A 
ATOM     21  C   UNL     1       1.022  14.980  21.423  0.00  0.00    +0.000 A 
ENDBRANCH  13  16
ENDBRANCH   5   7
BRANCH   1  22
ATOM     22  N   UNL     1       3.279   5.678  19.908  0.00  0.00    +0.000 N 
ATOM     23  H   UNL     1       4.246   5.795  20.207  0.00  0.00    +0.000 HD
BRANCH  22  25
ATOM     24  O   UNL     1       3.164   3.154  19.739  0.00  0.00    +0.000 OA
ATOM     25  S   UNL     1       3.103   4.322  18.887  0.00  0.00    +0.000 S 
ATOM     26  O   UNL     1       1.997   4.552  17.993  0.00  0.00    +0.000 OA
BRANCH  25  27
ATOM     27  C   UNL     1       4.621   4.349  17.942  0.00  0.00    +0.000 A 
ATOM     28  C   UNL     1       5.807   4.707  18.593  0.00  0.00    +0.000 A 
ATOM     29  C   UNL     1       6.992   4.793  17.862  0.00  0.00    +0.000 A 
ATOM     30  C   UNL     1       6.990   4.497  16.498  0.00  0.00    +0.000 A 
ATOM     31  C   UNL     1       5.808   4.116  15.860  0.00  0.00    +0.000 A 
ATOM     32  C   UNL     1       4.614   4.043  16.580  0.00  0.00    +0.000 A 
ENDBRANCH  25  27
ENDBRANCH  22  25
ENDBRANCH   1  22
TORSDOF 5
ENDMDL
MODEL 9
REMARK VINA RESULT:      -8.7      3.846      9.398
REMARK  Name = 
REMARK  5 active torsions:
REMARK  status: ('A' for Active; 'I' for Inactive)
REMARK    1  A    between atoms: S_2  and  N_4
REMARK    2  A    between atoms: S_2  and  C_26
REMARK    3  A    between atoms: N_4  and  C_5
REMARK    4  A    between atoms: C_9  and  C_10
REMARK    5  A    between atoms: C_16  and  C_17
REMARK                            x       y       z     vdW  Elec       q    Type
REMARK                         _______ _______ _______ _____ _____    ______ ____
ROOT
ATOM      1  C   UNL     1       2.644   6.867  19.487  0.00  0.00    +0.000 A 
ATOM      2  C   UNL     1       2.799   7.358  18.196  0.00  0.00    +0.000 A 
ATOM      3  N   UNL     1       2.213   8.492  17.751  0.00  0.00    +0.000 NA
ATOM      4  C   UNL     1       1.507   9.203  18.663  0.00  0.00    +0.000 A 
ATOM      5  C   UNL     1       1.343   8.824  19.996  0.00  0.00    +0.000 A 
ATOM      6  C   UNL     1       1.875   7.599  20.388  0.00  0.00    +0.000 A 
ENDROOT
BRANCH   5   7
ATOM      7  C   UNL     1       0.548   9.641  20.924  0.00  0.00    +0.000 A 
ATOM      8  C   UNL     1       0.339   9.171  22.290  0.00  0.00    +0.000 A 
ATOM      9  C   UNL     1      -0.481   9.804  23.137  0.00  0.00    +0.000 A 
ATOM     10  C   UNL     1      -1.163  10.964  22.714  0.00  0.00    +0.000 A 
ATOM     11  N   UNL     1      -2.090  11.628  23.354  0.00  0.00    +0.000 NA
ATOM     12  C   UNL     1      -2.393  12.648  22.536  0.00  0.00    +0.000 A 
ATOM     13  C   UNL     1      -1.602  12.681  21.382  0.00  0.00    +0.000 A 
ATOM     14  N   UNL     1      -0.875  11.497  21.448  0.00  0.00    +0.000 N 
ATOM     15  C   UNL     1      -0.024  10.819  20.546  0.00  0.00    +0.000 A 
BRANCH  13  16
ATOM     16  C   UNL     1      -1.732  13.787  20.428  0.00  0.00    +0.000 A 
ATOM     17  C   UNL     1      -0.778  13.772  19.390  0.00  0.00    +0.000 A 
ATOM     18  C   UNL     1      -0.205  14.966  18.998  0.00  0.00    +0.000 A 
ATOM     19  N   UNL     1      -0.614  16.163  19.453  0.00  0.00    +0.000 NA
ATOM     20  C   UNL     1      -1.653  16.161  20.321  0.00  0.00    +0.000 A 
ATOM     21  C   UNL     1      -2.258  15.013  20.823  0.00  0.00    +0.000 A 
ENDBRANCH  13  16
ENDBRANCH   5   7
BRANCH   1  22
ATOM     22  N   UNL     1       3.366   5.713  19.912  0.00  0.00    +0.000 N 
ATOM     23  H   UNL     1       4.329   5.857  20.211  0.00  0.00    +0.000 HD
BRANCH  22  25
ATOM     24  O   UNL     1       3.357   3.183  19.789  0.00  0.00    +0.000 OA
ATOM     25  S   UNL     1       3.223   4.332  18.919  0.00  0.00    +0.000 S 
ATOM     26  O   UNL     1       2.085   4.497  18.050  0.00  0.00    +0.000 OA
BRANCH  25  27
ATOM     27  C   UNL     1       4.713   4.407  17.934  0.00  0.00    +0.000 A 
ATOM     28  C   UNL     1       4.638   4.053  16.581  0.00  0.00    +0.000 A 
ATOM     29  C   UNL     1       5.798   4.047  15.808  0.00  0.00    +0.000 A 
ATOM     30  C   UNL     1       7.018   4.416  16.380  0.00  0.00    +0.000 A 
ATOM     31  C   UNL     1       7.081   4.792  17.723  0.00  0.00    +0.000 A 
ATOM     32  C   UNL     1       5.927   4.786  18.510  0.00  0.00    +0.000 A 
ENDBRANCH  25  27
ENDBRANCH  22  25
ENDBRANCH   1  22
TORSDOF 5
ENDMDL
