MODEL 1
REMARK VINA RESULT:      -8.5      0.000      0.000
REMARK  Name = 
REMARK  7 active torsions:
REMARK  status: ('A' for Active; 'I' for Inactive)
REMARK    1  A    between atoms: C_2  and  C_20
REMARK    2  A    between atoms: N_3  and  C_4
REMARK    3  A    between atoms: C_4  and  C_5
REMARK    4  A    between atoms: C_5  and  C_6
REMARK    5  A    between atoms: C_6  and  N_7
REMARK    6  A    between atoms: N_10  and  C_11
REMARK    7  A    between atoms: C_24  and  N_25
REMARK                            x       y       z     vdW  Elec       q    Type
REMARK                         _______ _______ _______ _____ _____    ______ ____
ROOT
ATOM      1  O   UNL     1       1.820   8.184  19.513  0.00  0.00    +0.000 OA
ATOM      2  C   UNL     1       1.410   8.072  20.663  0.00  0.00    +0.000 C 
ATOM      3  N   UNL     1       1.518   6.910  21.401  0.00  0.00    +0.000 N 
ATOM      4  H   UNL     1       0.985   6.822  22.255  0.00  0.00    +0.000 HD
ENDROOT
BRANCH   2   5
ATOM      5  C   UNL     1       0.691   9.208  21.312  0.00  0.00    +0.000 A 
ATOM      6  C   UNL     1      -0.056   9.041  22.481  0.00  0.00    +0.000 A 
ATOM      7  C   UNL     1      -0.718  10.135  23.031  0.00  0.00    +0.000 A 
ATOM      8  C   UNL     1      -0.643  11.389  22.413  0.00  0.00    +0.000 A 
ATOM      9  C   UNL     1       0.093  11.582  21.237  0.00  0.00    +0.000 A 
ATOM     10  C   UNL     1       0.778  10.475  20.711  0.00  0.00    +0.000 A 
BRANCH   9  11
ATOM     11  N   UNL     1       0.137  12.843  20.580  0.00  0.00    +0.000 N 
ATOM     12  C   UNL     1      -0.655  13.142  19.407  0.00  0.00    +0.000 C 
ATOM     13  C   UNL     1      -0.083  14.445  18.886  0.00  0.00    +0.000 C 
ATOM     14  C   UNL     1       0.398  15.144  20.141  0.00  0.00    +0.000 C 
ATOM     15  C   UNL     1       0.777  14.000  21.053  0.00  0.00    +0.000 C 
ATOM     16  O   UNL     1       1.465  14.153  22.054  0.00  0.00    +0.000 OA
ENDBRANCH   9  11
ENDBRANCH   2   5
BRANCH   3  17
ATOM     17  C   UNL     1       2.033   5.681  20.815  0.00  0.00    +0.000 C 
BRANCH  17  18
ATOM     18  C   UNL     1       0.883   4.791  20.350  0.00  0.00    +0.000 C 
BRANCH  18  19
ATOM     19  C   UNL     1       1.298   3.351  20.020  0.00  0.00    +0.000 C 
BRANCH  19  20
ATOM     20  N   UNL     1       1.292   3.002  18.591  0.00  0.00    +0.000 NA
ATOM     21  C   UNL     1       1.426   4.168  17.689  0.00  0.00    +0.000 C 
ATOM     22  C   UNL     1       2.801   4.871  17.738  0.00  0.00    +0.000 C 
ATOM     23  N   UNL     1       3.863   3.902  17.411  0.00  0.00    +0.000 N 
ATOM     24  C   UNL     1       3.833   2.672  18.226  0.00  0.00    +0.000 C 
ATOM     25  C   UNL     1       2.402   2.064  18.272  0.00  0.00    +0.000 C 
BRANCH  23  26
ATOM     26  C   UNL     1       5.038   4.343  16.814  0.00  0.00    +0.000 A 
ATOM     27  C   UNL     1       5.538   3.792  15.621  0.00  0.00    +0.000 A 
ATOM     28  C   UNL     1       6.670   4.314  14.978  0.00  0.00    +0.000 A 
ATOM     29  C   UNL     1       7.338   5.406  15.520  0.00  0.00    +0.000 A 
ATOM     30  C   UNL     1       6.875   5.960  16.704  0.00  0.00    +0.000 A 
ATOM     31 CL   UNL     1       7.679   7.324  17.383  0.00  0.00    +0.000 Cl
ATOM     32  C   UNL     1       5.745   5.437  17.340  0.00  0.00    +0.000 A 
ENDBRANCH  23  26
ENDBRANCH  19  20
ENDBRANCH  18  19
ENDBRANCH  17  18
ENDBRANCH   3  17
TORSDOF 7
ENDMDL
MODEL 2
REMARK VINA RESULT:      -8.5      6.381      8.342
REMARK  Name = 
REMARK  7 active torsions:
REMARK  status: ('A' for Active; 'I' for Inactive)
REMARK    1  A    between atoms: C_2  and  C_20
REMARK    2  A    between atoms: N_3  and  C_4
REMARK    3  A    between atoms: C_4  and  C_5
REMARK    4  A    between atoms: C_5  and  C_6
REMARK    5  A    between atoms: C_6  and  N_7
REMARK    6  A    between atoms: N_10  and  C_11
REMARK    7  A    between atoms: C_24  and  N_25
REMARK                            x       y       z     vdW  Elec       q    Type
REMARK                         _______ _______ _______ _____ _____    ______ ____
ROOT
ATOM      1  O   UNL     1      11.010  10.945  19.459  0.00  0.00    +0.000 OA
ATOM      2  C   UNL     1      10.149  11.425  18.730  0.00  0.00    +0.000 C 
ATOM      3  N   UNL     1       9.016  10.743  18.333  0.00  0.00    +0.000 N 
ATOM      4  H   UNL     1       8.459  11.118  17.579  0.00  0.00    +0.000 HD
ENDROOT
BRANCH   2   5
ATOM      5  C   UNL     1      10.331  12.796  18.166  0.00  0.00    +0.000 A 
ATOM      6  C   UNL     1      11.342  13.091  17.248  0.00  0.00    +0.000 A 
ATOM      7  C   UNL     1      11.471  14.393  16.770  0.00  0.00    +0.000 A 
ATOM      8  C   UNL     1      10.602  15.397  17.212  0.00  0.00    +0.000 A 
ATOM      9  C   UNL     1       9.584  15.129  18.137  0.00  0.00    +0.000 A 
ATOM     10  C   UNL     1       9.449  13.806  18.587  0.00  0.00    +0.000 A 
BRANCH   9  11
ATOM     11  N   UNL     1       8.726  16.154  18.623  0.00  0.00    +0.000 N 
ATOM     12  C   UNL     1       7.284  16.040  18.602  0.00  0.00    +0.000 C 
ATOM     13  C   UNL     1       6.790  17.437  18.923  0.00  0.00    +0.000 C 
ATOM     14  C   UNL     1       7.874  17.995  19.823  0.00  0.00    +0.000 C 
ATOM     15  C   UNL     1       9.123  17.295  19.339  0.00  0.00    +0.000 C 
ATOM     16  O   UNL     1      10.249  17.677  19.628  0.00  0.00    +0.000 OA
ENDBRANCH   9  11
ENDBRANCH   2   5
BRANCH   3  17
ATOM     17  C   UNL     1       8.818   9.340  18.667  0.00  0.00    +0.000 C 
BRANCH  17  18
ATOM     18  C   UNL     1       7.919   8.668  17.631  0.00  0.00    +0.000 C 
BRANCH  18  19
ATOM     19  C   UNL     1       7.682   7.173  17.881  0.00  0.00    +0.000 C 
BRANCH  19  20
ATOM     20  N   UNL     1       7.075   6.433  16.763  0.00  0.00    +0.000 NA
ATOM     21  C   UNL     1       7.099   4.964  16.936  0.00  0.00    +0.000 C 
ATOM     22  C   UNL     1       6.198   4.428  18.071  0.00  0.00    +0.000 C 
ATOM     23  N   UNL     1       4.804   4.848  17.834  0.00  0.00    +0.000 N 
ATOM     24  C   UNL     1       4.637   6.299  17.622  0.00  0.00    +0.000 C 
ATOM     25  C   UNL     1       5.655   6.835  16.574  0.00  0.00    +0.000 C 
BRANCH  23  26
ATOM     26  C   UNL     1       3.759   4.063  18.303  0.00  0.00    +0.000 A 
ATOM     27  C   UNL     1       3.036   3.185  17.477  0.00  0.00    +0.000 A 
ATOM     28  C   UNL     1       2.050   2.326  17.984  0.00  0.00    +0.000 A 
ATOM     29  C   UNL     1       1.758   2.328  19.344  0.00  0.00    +0.000 A 
ATOM     30  C   UNL     1       2.445   3.195  20.180  0.00  0.00    +0.000 A 
ATOM     31 CL   UNL     1       2.109   3.201  21.869  0.00  0.00    +0.000 Cl
ATOM     32  C   UNL     1       3.428   4.048  19.669  0.00  0.00    +0.000 A 
ENDBRANCH  23  26
ENDBRANCH  19  20
ENDBRANCH  18  19
ENDBRANCH  17  18
ENDBRANCH   3  17
TORSDOF 7
ENDMDL
MODEL 3
REMARK VINA RESULT:      -8.3      1.394      1.753
REMARK  Name = 
REMARK  7 active torsions:
REMARK  status: ('A' for Active; 'I' for Inactive)
REMARK    1  A    between atoms: C_2  and  C_20
REMARK    2  A    between atoms: N_3  and  C_4
REMARK    3  A    between atoms: C_4  and  C_5
REMARK    4  A    between atoms: C_5  and  C_6
REMARK    5  A    between atoms: C_6  and  N_7
REMARK    6  A    between atoms: N_10  and  C_11
REMARK    7  A    between atoms: C_24  and  N_25
REMARK                            x       y       z     vdW  Elec       q    Type
REMARK                         _______ _______ _______ _____ _____    ______ ____
ROOT
ATOM      1  O   UNL     1       1.747   8.534  19.520  0.00  0.00    +0.000 OA
ATOM      2  C   UNL     1       1.334   8.332  20.656  0.00  0.00    +0.000 C 
ATOM      3  N   UNL     1       1.469   7.125  21.314  0.00  0.00    +0.000 N 
ATOM      4  H   UNL     1       0.934   6.964  22.155  0.00  0.00    +0.000 HD
ENDROOT
BRANCH   2   5
ATOM      5  C   UNL     1       0.582   9.400  21.378  0.00  0.00    +0.000 A 
ATOM      6  C   UNL     1      -0.145   9.139  22.542  0.00  0.00    +0.000 A 
ATOM      7  C   UNL     1      -0.840  10.174  23.161  0.00  0.00    +0.000 A 
ATOM      8  C   UNL     1      -0.817  11.464  22.616  0.00  0.00    +0.000 A 
ATOM      9  C   UNL     1      -0.103  11.751  21.447  0.00  0.00    +0.000 A 
ATOM     10  C   UNL     1       0.616  10.703  20.851  0.00  0.00    +0.000 A 
BRANCH   9  11
ATOM     11  N   UNL     1      -0.112  13.050  20.864  0.00  0.00    +0.000 N 
ATOM     12  C   UNL     1       0.722  14.128  21.346  0.00  0.00    +0.000 C 
ATOM     13  C   UNL     1       0.181  15.363  20.653  0.00  0.00    +0.000 C 
ATOM     14  C   UNL     1      -0.335  14.828  19.334  0.00  0.00    +0.000 C 
ATOM     15  C   UNL     1      -0.756  13.417  19.671  0.00  0.00    +0.000 C 
ATOM     16  O   UNL     1      -1.476  12.748  18.940  0.00  0.00    +0.000 OA
ENDBRANCH   9  11
ENDBRANCH   2   5
BRANCH   3  17
ATOM     17  C   UNL     1       2.019   5.953  20.647  0.00  0.00    +0.000 C 
BRANCH  17  18
ATOM     18  C   UNL     1       0.929   4.908  20.421  0.00  0.00    +0.000 C 
BRANCH  18  19
ATOM     19  C   UNL     1       1.426   3.458  20.486  0.00  0.00    +0.000 C 
BRANCH  19  20
ATOM     20  N   UNL     1       1.467   2.745  19.199  0.00  0.00    +0.000 NA
ATOM     21  C   UNL     1       1.443   3.637  18.019  0.00  0.00    +0.000 C 
ATOM     22  C   UNL     1       2.711   4.501  17.832  0.00  0.00    +0.000 C 
ATOM     23  N   UNL     1       3.894   3.626  17.734  0.00  0.00    +0.000 N 
ATOM     24  C   UNL     1       4.029   2.663  18.844  0.00  0.00    +0.000 C 
ATOM     25  C   UNL     1       2.693   1.908  19.099  0.00  0.00    +0.000 C 
BRANCH  23  26
ATOM     26  C   UNL     1       4.998   4.040  17.001  0.00  0.00    +0.000 A 
ATOM     27  C   UNL     1       6.146   4.589  17.598  0.00  0.00    +0.000 A 
ATOM     28  C   UNL     1       7.292   4.910  16.855  0.00  0.00    +0.000 A 
ATOM     29  C   UNL     1       7.315   4.692  15.482  0.00  0.00    +0.000 A 
ATOM     30  C   UNL     1       6.191   4.165  14.864  0.00  0.00    +0.000 A 
ATOM     31 CL   UNL     1       6.206   3.872  13.167  0.00  0.00    +0.000 Cl
ATOM     32  C   UNL     1       5.053   3.846  15.610  0.00  0.00    +0.000 A 
ENDBRANCH  23  26
ENDBRANCH  19  20
ENDBRANCH  18  19
ENDBRANCH  17  18
ENDBRANCH   3  17
TORSDOF 7
ENDMDL
MODEL 4
REMARK VINA RESULT:      -8.2      1.906      2.555
REMARK  Name = 
REMARK  7 active torsions:
REMARK  status: ('A' for Active; 'I' for Inactive)
REMARK    1  A    between atoms: C_2  and  C_20
REMARK    2  A    between atoms: N_3  and  C_4
REMARK    3  A    between atoms: C_4  and  C_5
REMARK    4  A    between atoms: C_5  and  C_6
REMARK    5  A    between atoms: C_6  and  N_7
REMARK    6  A    between atoms: N_10  and  C_11
REMARK    7  A    between atoms: C_24  and  N_25
REMARK                            x       y       z     vdW  Elec       q    Type
REMARK                         _______ _______ _______ _____ _____    ______ ____
ROOT
ATOM      1  O   UNL     1       1.087   7.169  21.752  0.00  0.00    +0.000 OA
ATOM      2  C   UNL     1       1.659   6.778  20.741  0.00  0.00    +0.000 C 
ATOM      3  N   UNL     1       2.192   5.511  20.608  0.00  0.00    +0.000 N 
ATOM      4  H   UNL     1       2.820   5.323  19.839  0.00  0.00    +0.000 HD
ENDROOT
BRANCH   2   5
ATOM      5  C   UNL     1       1.868   7.711  19.595  0.00  0.00    +0.000 A 
ATOM      6  C   UNL     1       2.724   7.401  18.534  0.00  0.00    +0.000 A 
ATOM      7  C   UNL     1       2.891   8.320  17.501  0.00  0.00    +0.000 A 
ATOM      8  C   UNL     1       2.215   9.545  17.530  0.00  0.00    +0.000 A 
ATOM      9  C   UNL     1       1.358   9.883  18.585  0.00  0.00    +0.000 A 
ATOM     10  C   UNL     1       1.178   8.935  19.604  0.00  0.00    +0.000 A 
BRANCH   9  11
ATOM     11  N   UNL     1       0.703  11.145  18.642  0.00  0.00    +0.000 N 
ATOM     12  C   UNL     1      -0.737  11.277  18.694  0.00  0.00    +0.000 C 
ATOM     13  C   UNL     1      -0.991  12.750  18.445  0.00  0.00    +0.000 C 
ATOM     14  C   UNL     1       0.234  13.422  19.032  0.00  0.00    +0.000 C 
ATOM     15  C   UNL     1       1.321  12.390  18.842  0.00  0.00    +0.000 C 
ATOM     16  O   UNL     1       2.512  12.660  18.935  0.00  0.00    +0.000 OA
ENDBRANCH   9  11
ENDBRANCH   2   5
BRANCH   3  17
ATOM     17  C   UNL     1       2.212   4.573  21.722  0.00  0.00    +0.000 C 
BRANCH  17  18
ATOM     18  C   UNL     1       1.606   3.236  21.302  0.00  0.00    +0.000 C 
BRANCH  18  19
ATOM     19  C   UNL     1       1.390   3.091  19.791  0.00  0.00    +0.000 C 
BRANCH  19  20
ATOM     20  N   UNL     1       2.244   2.097  19.121  0.00  0.00    +0.000 NA
ATOM     21  C   UNL     1       2.307   2.256  17.651  0.00  0.00    +0.000 C 
ATOM     22  C   UNL     1       3.031   3.532  17.166  0.00  0.00    +0.000 C 
ATOM     23  N   UNL     1       4.406   3.551  17.698  0.00  0.00    +0.000 N 
ATOM     24  C   UNL     1       4.492   3.378  19.161  0.00  0.00    +0.000 C 
ATOM     25  C   UNL     1       3.638   2.168  19.635  0.00  0.00    +0.000 C 
BRANCH  23  26
ATOM     26  C   UNL     1       5.411   4.196  16.988  0.00  0.00    +0.000 A 
ATOM     27  C   UNL     1       5.805   3.801  15.698  0.00  0.00    +0.000 A 
ATOM     28  C   UNL     1       6.751   4.523  14.955  0.00  0.00    +0.000 A 
ATOM     29  C   UNL     1       7.333   5.666  15.491  0.00  0.00    +0.000 A 
ATOM     30  C   UNL     1       6.973   6.071  16.768  0.00  0.00    +0.000 A 
ATOM     31 CL   UNL     1       7.670   7.493  17.443  0.00  0.00    +0.000 Cl
ATOM     32  C   UNL     1       6.029   5.348  17.504  0.00  0.00    +0.000 A 
ENDBRANCH  23  26
ENDBRANCH  19  20
ENDBRANCH  18  19
ENDBRANCH  17  18
ENDBRANCH   3  17
TORSDOF 7
ENDMDL
MODEL 5
REMARK VINA RESULT:      -8.2      0.943      1.157
REMARK  Name = 
REMARK  7 active torsions:
REMARK  status: ('A' for Active; 'I' for Inactive)
REMARK    1  A    between atoms: C_2  and  C_20
REMARK    2  A    between atoms: N_3  and  C_4
REMARK    3  A    between atoms: C_4  and  C_5
REMARK    4  A    between atoms: C_5  and  C_6
REMARK    5  A    between atoms: C_6  and  N_7
REMARK    6  A    between atoms: N_10  and  C_11
REMARK    7  A    between atoms: C_24  and  N_25
REMARK                            x       y       z     vdW  Elec       q    Type
REMARK                         _______ _______ _______ _____ _____    ______ ____
ROOT
ATOM      1  O   UNL     1       1.968   8.070  19.435  0.00  0.00    +0.000 OA
ATOM      2  C   UNL     1       1.525   7.968  20.573  0.00  0.00    +0.000 C 
ATOM      3  N   UNL     1       1.587   6.805  21.315  0.00  0.00    +0.000 N 
ATOM      4  H   UNL     1       1.030   6.730  22.154  0.00  0.00    +0.000 HD
ENDROOT
BRANCH   2   5
ATOM      5  C   UNL     1       0.814   9.120  21.202  0.00  0.00    +0.000 A 
ATOM      6  C   UNL     1       0.116   8.993  22.406  0.00  0.00    +0.000 A 
ATOM      7  C   UNL     1      -0.541  10.100  22.936  0.00  0.00    +0.000 A 
ATOM      8  C   UNL     1      -0.511  11.327  22.263  0.00  0.00    +0.000 A 
ATOM      9  C   UNL     1       0.175  11.480  21.051  0.00  0.00    +0.000 A 
ATOM     10  C   UNL     1       0.857  10.362  20.545  0.00  0.00    +0.000 A 
BRANCH   9  11
ATOM     11  N   UNL     1       0.173  12.713  20.340  0.00  0.00    +0.000 N 
ATOM     12  C   UNL     1       1.308  13.609  20.326  0.00  0.00    +0.000 C 
ATOM     13  C   UNL     1       0.771  14.890  19.719  0.00  0.00    +0.000 C 
ATOM     14  C   UNL     1      -0.306  14.405  18.771  0.00  0.00    +0.000 C 
ATOM     15  C   UNL     1      -0.808  13.142  19.431  0.00  0.00    +0.000 C 
ATOM     16  O   UNL     1      -1.864  12.606  19.118  0.00  0.00    +0.000 OA
ENDBRANCH   9  11
ENDBRANCH   2   5
BRANCH   3  17
ATOM     17  C   UNL     1       2.091   5.565  20.744  0.00  0.00    +0.000 C 
BRANCH  17  18
ATOM     18  C   UNL     1       0.933   4.679  20.289  0.00  0.00    +0.000 C 
BRANCH  18  19
ATOM     19  C   UNL     1       1.261   3.182  20.260  0.00  0.00    +0.000 C 
BRANCH  19  20
ATOM     20  N   UNL     1       1.433   2.596  18.920  0.00  0.00    +0.000 NA
ATOM     21  C   UNL     1       1.420   3.593  17.826  0.00  0.00    +0.000 C 
ATOM     22  C   UNL     1       2.633   4.550  17.805  0.00  0.00    +0.000 C 
ATOM     23  N   UNL     1       3.878   3.766  17.710  0.00  0.00    +0.000 N 
ATOM     24  C   UNL     1       4.011   2.714  18.735  0.00  0.00    +0.000 C 
ATOM     25  C   UNL     1       2.718   1.854  18.830  0.00  0.00    +0.000 C 
BRANCH  23  26
ATOM     26  C   UNL     1       4.994   4.318  17.094  0.00  0.00    +0.000 A 
ATOM     27  C   UNL     1       5.299   4.106  15.739  0.00  0.00    +0.000 A 
ATOM     28  C   UNL     1       6.373   4.750  15.107  0.00  0.00    +0.000 A 
ATOM     29  C   UNL     1       7.178   5.628  15.824  0.00  0.00    +0.000 A 
ATOM     30  C   UNL     1       6.909   5.845  17.167  0.00  0.00    +0.000 A 
ATOM     31 CL   UNL     1       7.885   6.941  18.070  0.00  0.00    +0.000 Cl
ATOM     32  C   UNL     1       5.837   5.201  17.792  0.00  0.00    +0.000 A 
ENDBRANCH  23  26
ENDBRANCH  19  20
ENDBRANCH  18  19
ENDBRANCH  17  18
ENDBRANCH   3  17
TORSDOF 7
ENDMDL
MODEL 6
REMARK VINA RESULT:      -8.2      6.386     10.841
REMARK  Name = 
REMARK  7 active torsions:
REMARK  status: ('A' for Active; 'I' for Inactive)
REMARK    1  A    between atoms: C_2  and  C_20
REMARK    2  A    between atoms: N_3  and  C_4
REMARK    3  A    between atoms: C_4  and  C_5
REMARK    4  A    between atoms: C_5  and  C_6
REMARK    5  A    between atoms: C_6  and  N_7
REMARK    6  A    between atoms: N_10  and  C_11
REMARK    7  A    between atoms: C_24  and  N_25
REMARK                            x       y       z     vdW  Elec       q    Type
REMARK                         _______ _______ _______ _____ _____    ______ ____
ROOT
ATOM      1  O   UNL     1       7.526   5.449  20.030  0.00  0.00    +0.000 OA
ATOM      2  C   UNL     1       7.177   5.713  18.886  0.00  0.00    +0.000 C 
ATOM      3  N   UNL     1       7.656   6.794  18.172  0.00  0.00    +0.000 N 
ATOM      4  H   UNL     1       7.182   7.068  17.323  0.00  0.00    +0.000 HD
ENDROOT
BRANCH   2   5
ATOM      5  C   UNL     1       6.131   4.886  18.216  0.00  0.00    +0.000 A 
ATOM      6  C   UNL     1       6.227   4.514  16.872  0.00  0.00    +0.000 A 
ATOM      7  C   UNL     1       5.212   3.754  16.299  0.00  0.00    +0.000 A 
ATOM      8  C   UNL     1       4.099   3.374  17.059  0.00  0.00    +0.000 A 
ATOM      9  C   UNL     1       3.974   3.739  18.406  0.00  0.00    +0.000 A 
ATOM     10  C   UNL     1       5.021   4.481  18.977  0.00  0.00    +0.000 A 
BRANCH   9  11
ATOM     11  N   UNL     1       2.826   3.394  19.172  0.00  0.00    +0.000 N 
ATOM     12  C   UNL     1       2.898   3.041  20.572  0.00  0.00    +0.000 C 
ATOM     13  C   UNL     1       1.530   2.473  20.890  0.00  0.00    +0.000 C 
ATOM     14  C   UNL     1       0.609   3.228  19.954  0.00  0.00    +0.000 C 
ATOM     15  C   UNL     1       1.489   3.519  18.761  0.00  0.00    +0.000 C 
ATOM     16  O   UNL     1       1.039   3.872  17.678  0.00  0.00    +0.000 OA
ENDBRANCH   9  11
ENDBRANCH   2   5
BRANCH   3  17
ATOM     17  C   UNL     1       8.539   7.777  18.782  0.00  0.00    +0.000 C 
BRANCH  17  18
ATOM     18  C   UNL     1       8.449   9.108  18.038  0.00  0.00    +0.000 C 
BRANCH  18  19
ATOM     19  C   UNL     1       8.815  10.330  18.890  0.00  0.00    +0.000 C 
BRANCH  19  20
ATOM     20  N   UNL     1       9.836  11.220  18.314  0.00  0.00    +0.000 NA
ATOM     21  C   UNL     1       9.296  12.504  17.813  0.00  0.00    +0.000 C 
ATOM     22  C   UNL     1       8.763  13.456  18.907  0.00  0.00    +0.000 C 
ATOM     23  N   UNL     1       9.838  13.747  19.874  0.00  0.00    +0.000 N 
ATOM     24  C   UNL     1      10.484  12.546  20.440  0.00  0.00    +0.000 C 
ATOM     25  C   UNL     1      10.883  11.542  19.321  0.00  0.00    +0.000 C 
BRANCH  23  26
ATOM     26  C   UNL     1       9.844  14.957  20.555  0.00  0.00    +0.000 A 
ATOM     27  C   UNL     1      10.646  15.191  21.685  0.00  0.00    +0.000 A 
ATOM     28  C   UNL     1      10.715  16.449  22.302  0.00  0.00    +0.000 A 
ATOM     29  C   UNL     1       9.974  17.513  21.800  0.00  0.00    +0.000 A 
ATOM     30  C   UNL     1       9.162  17.306  20.694  0.00  0.00    +0.000 A 
ATOM     31 CL   UNL     1       8.248  18.615  20.048  0.00  0.00    +0.000 Cl
ATOM     32  C   UNL     1       9.098  16.051  20.083  0.00  0.00    +0.000 A 
ENDBRANCH  23  26
ENDBRANCH  19  20
ENDBRANCH  18  19
ENDBRANCH  17  18
ENDBRANCH   3  17
TORSDOF 7
ENDMDL
MODEL 7
REMARK VINA RESULT:      -8.2      1.307      2.230
REMARK  Name = 
REMARK  7 active torsions:
REMARK  status: ('A' for Active; 'I' for Inactive)
REMARK    1  A    between atoms: C_2  and  C_20
REMARK    2  A    between atoms: N_3  and  C_4
REMARK    3  A    between atoms: C_4  and  C_5
REMARK    4  A    between atoms: C_5  and  C_6
REMARK    5  A    between atoms: C_6  and  N_7
REMARK    6  A    between atoms: N_10  and  C_11
REMARK    7  A    between atoms: C_24  and  N_25
REMARK                            x       y       z     vdW  Elec       q    Type
REMARK                         _______ _______ _______ _____ _____    ______ ____
ROOT
ATOM      1  O   UNL     1       3.326   6.822  19.468  0.00  0.00    +0.000 OA
ATOM      2  C   UNL     1       2.261   7.157  19.973  0.00  0.00    +0.000 C 
ATOM      3  N   UNL     1       1.533   6.350  20.825  0.00  0.00    +0.000 N 
ATOM      4  H   UNL     1       0.578   6.602  21.040  0.00  0.00    +0.000 HD
ENDROOT
BRANCH   2   5
ATOM      5  C   UNL     1       1.651   8.474  19.623  0.00  0.00    +0.000 A 
ATOM      6  C   UNL     1       1.788   9.040  18.353  0.00  0.00    +0.000 A 
ATOM      7  C   UNL     1       1.210  10.279  18.091  0.00  0.00    +0.000 A 
ATOM      8  C   UNL     1       0.507  10.956  19.094  0.00  0.00    +0.000 A 
ATOM      9  C   UNL     1       0.361  10.415  20.378  0.00  0.00    +0.000 A 
ATOM     10  C   UNL     1       0.925   9.152  20.618  0.00  0.00    +0.000 A 
BRANCH   9  11
ATOM     11  N   UNL     1      -0.314  11.118  21.415  0.00  0.00    +0.000 N 
ATOM     12  C   UNL     1      -0.865  10.457  22.577  0.00  0.00    +0.000 C 
ATOM     13  C   UNL     1      -1.726  11.512  23.240  0.00  0.00    +0.000 C 
ATOM     14  C   UNL     1      -1.021  12.808  22.898  0.00  0.00    +0.000 C 
ATOM     15  C   UNL     1      -0.381  12.513  21.561  0.00  0.00    +0.000 C 
ATOM     16  O   UNL     1       0.047  13.393  20.824  0.00  0.00    +0.000 OA
ENDBRANCH   9  11
ENDBRANCH   2   5
BRANCH   3  17
ATOM     17  C   UNL     1       1.931   4.976  21.096  0.00  0.00    +0.000 C 
BRANCH  17  18
ATOM     18  C   UNL     1       0.931   4.001  20.477  0.00  0.00    +0.000 C 
BRANCH  18  19
ATOM     19  C   UNL     1       1.561   2.702  19.958  0.00  0.00    +0.000 C 
BRANCH  19  20
ATOM     20  N   UNL     1       1.471   2.491  18.504  0.00  0.00    +0.000 NA
ATOM     21  C   UNL     1       1.518   3.742  17.714  0.00  0.00    +0.000 C 
ATOM     22  C   UNL     1       2.876   4.479  17.747  0.00  0.00    +0.000 C 
ATOM     23  N   UNL     1       3.938   3.579  17.261  0.00  0.00    +0.000 N 
ATOM     24  C   UNL     1       3.990   2.276  17.953  0.00  0.00    +0.000 C 
ATOM     25  C   UNL     1       2.580   1.623  18.028  0.00  0.00    +0.000 C 
BRANCH  23  26
ATOM     26  C   UNL     1       5.060   4.110  16.638  0.00  0.00    +0.000 A 
ATOM     27  C   UNL     1       5.509   3.675  15.379  0.00  0.00    +0.000 A 
ATOM     28  C   UNL     1       6.584   4.289  14.719  0.00  0.00    +0.000 A 
ATOM     29  C   UNL     1       7.244   5.360  15.310  0.00  0.00    +0.000 A 
ATOM     30  C   UNL     1       6.832   5.800  16.559  0.00  0.00    +0.000 A 
ATOM     31 CL   UNL     1       7.627   7.136  17.301  0.00  0.00    +0.000 Cl
ATOM     32  C   UNL     1       5.759   5.186  17.212  0.00  0.00    +0.000 A 
ENDBRANCH  23  26
ENDBRANCH  19  20
ENDBRANCH  18  19
ENDBRANCH  17  18
ENDBRANCH   3  17
TORSDOF 7
ENDMDL
MODEL 8
REMARK VINA RESULT:      -8.2      1.565      2.444
REMARK  Name = 
REMARK  7 active torsions:
REMARK  status: ('A' for Active; 'I' for Inactive)
REMARK    1  A    between atoms: C_2  and  C_20
REMARK    2  A    between atoms: N_3  and  C_4
REMARK    3  A    between atoms: C_4  and  C_5
REMARK    4  A    between atoms: C_5  and  C_6
REMARK    5  A    between atoms: C_6  and  N_7
REMARK    6  A    between atoms: N_10  and  C_11
REMARK    7  A    between atoms: C_24  and  N_25
REMARK                            x       y       z     vdW  Elec       q    Type
REMARK                         _______ _______ _______ _____ _____    ______ ____
ROOT
ATOM      1  O   UNL     1       3.523   6.455  19.663  0.00  0.00    +0.000 OA
ATOM      2  C   UNL     1       2.419   6.820  20.050  0.00  0.00    +0.000 C 
ATOM      3  N   UNL     1       1.592   6.044  20.838  0.00  0.00    +0.000 N 
ATOM      4  H   UNL     1       0.626   6.317  20.950  0.00  0.00    +0.000 HD
ENDROOT
BRANCH   2   5
ATOM      5  C   UNL     1       1.875   8.140  19.616  0.00  0.00    +0.000 A 
ATOM      6  C   UNL     1       2.047   8.621  18.315  0.00  0.00    +0.000 A 
ATOM      7  C   UNL     1       1.530   9.868  17.973  0.00  0.00    +0.000 A 
ATOM      8  C   UNL     1       0.853  10.637  18.927  0.00  0.00    +0.000 A 
ATOM      9  C   UNL     1       0.673  10.182  20.240  0.00  0.00    +0.000 A 
ATOM     10  C   UNL     1       1.175   8.910  20.560  0.00  0.00    +0.000 A 
BRANCH   9  11
ATOM     11  N   UNL     1       0.024  10.977  21.225  0.00  0.00    +0.000 N 
ATOM     12  C   UNL     1      -0.215  12.393  21.053  0.00  0.00    +0.000 C 
ATOM     13  C   UNL     1      -0.640  12.874  22.426  0.00  0.00    +0.000 C 
ATOM     14  C   UNL     1      -1.335  11.668  23.022  0.00  0.00    +0.000 C 
ATOM     15  C   UNL     1      -0.622  10.501  22.378  0.00  0.00    +0.000 C 
ATOM     16  O   UNL     1      -0.707   9.357  22.804  0.00  0.00    +0.000 OA
ENDBRANCH   9  11
ENDBRANCH   2   5
BRANCH   3  17
ATOM     17  C   UNL     1       1.932   4.669  21.174  0.00  0.00    +0.000 C 
BRANCH  17  18
ATOM     18  C   UNL     1       0.981   3.699  20.476  0.00  0.00    +0.000 C 
BRANCH  18  19
ATOM     19  C   UNL     1       1.675   2.495  19.829  0.00  0.00    +0.000 C 
BRANCH  19  20
ATOM     20  N   UNL     1       1.558   2.408  18.364  0.00  0.00    +0.000 NA
ATOM     21  C   UNL     1       1.612   3.720  17.681  0.00  0.00    +0.000 C 
ATOM     22  C   UNL     1       2.981   4.433  17.751  0.00  0.00    +0.000 C 
ATOM     23  N   UNL     1       4.021   3.562  17.174  0.00  0.00    +0.000 N 
ATOM     24  C   UNL     1       4.065   2.205  17.753  0.00  0.00    +0.000 C 
ATOM     25  C   UNL     1       2.647   1.567  17.797  0.00  0.00    +0.000 C 
BRANCH  23  26
ATOM     26  C   UNL     1       5.142   4.128  16.578  0.00  0.00    +0.000 A 
ATOM     27  C   UNL     1       5.658   3.680  15.350  0.00  0.00    +0.000 A 
ATOM     28  C   UNL     1       6.729   4.326  14.713  0.00  0.00    +0.000 A 
ATOM     29  C   UNL     1       7.316   5.442  15.297  0.00  0.00    +0.000 A 
ATOM     30  C   UNL     1       6.836   5.896  16.517  0.00  0.00    +0.000 A 
ATOM     31 CL   UNL     1       7.539   7.288  17.249  0.00  0.00    +0.000 Cl
ATOM     32  C   UNL     1       5.768   5.251  17.146  0.00  0.00    +0.000 A 
ENDBRANCH  23  26
ENDBRANCH  19  20
ENDBRANCH  18  19
ENDBRANCH  17  18
ENDBRANCH   3  17
TORSDOF 7
ENDMDL
MODEL 9
REMARK VINA RESULT:      -8.0      3.253      9.805
REMARK  Name = 
REMARK  7 active torsions:
REMARK  status: ('A' for Active; 'I' for Inactive)
REMARK    1  A    between atoms: C_2  and  C_20
REMARK    2  A    between atoms: N_3  and  C_4
REMARK    3  A    between atoms: C_4  and  C_5
REMARK    4  A    between atoms: C_5  and  C_6
REMARK    5  A    between atoms: C_6  and  N_7
REMARK    6  A    between atoms: N_10  and  C_11
REMARK    7  A    between atoms: C_24  and  N_25
REMARK                            x       y       z     vdW  Elec       q    Type
REMARK                         _______ _______ _______ _____ _____    ______ ____
ROOT
ATOM      1  O   UNL     1       1.578   8.006  19.108  0.00  0.00    +0.000 OA
ATOM      2  C   UNL     1       1.860   7.336  20.094  0.00  0.00    +0.000 C 
ATOM      3  N   UNL     1       1.683   7.776  21.391  0.00  0.00    +0.000 N 
ATOM      4  H   UNL     1       2.120   7.265  22.145  0.00  0.00    +0.000 HD
ENDROOT
BRANCH   2   5
ATOM      5  C   UNL     1       2.492   5.994  19.928  0.00  0.00    +0.000 A 
ATOM      6  C   UNL     1       2.165   4.914  20.751  0.00  0.00    +0.000 A 
ATOM      7  C   UNL     1       2.800   3.690  20.558  0.00  0.00    +0.000 A 
ATOM      8  C   UNL     1       3.766   3.547  19.554  0.00  0.00    +0.000 A 
ATOM      9  C   UNL     1       4.118   4.616  18.720  0.00  0.00    +0.000 A 
ATOM     10  C   UNL     1       3.447   5.835  18.909  0.00  0.00    +0.000 A 
BRANCH   9  11
ATOM     11  N   UNL     1       5.129   4.490  17.727  0.00  0.00    +0.000 N 
ATOM     12  C   UNL     1       4.828   4.331  16.321  0.00  0.00    +0.000 C 
ATOM     13  C   UNL     1       6.152   3.943  15.693  0.00  0.00    +0.000 C 
ATOM     14  C   UNL     1       7.174   4.643  16.565  0.00  0.00    +0.000 C 
ATOM     15  C   UNL     1       6.507   4.681  17.920  0.00  0.00    +0.000 C 
ATOM     16  O   UNL     1       7.120   4.919  18.953  0.00  0.00    +0.000 OA
ENDBRANCH   9  11
ENDBRANCH   2   5
BRANCH   3  17
ATOM     17  C   UNL     1       1.247   9.135  21.681  0.00  0.00    +0.000 C 
BRANCH  17  18
ATOM     18  C   UNL     1      -0.241   9.293  21.376  0.00  0.00    +0.000 C 
BRANCH  18  19
ATOM     19  C   UNL     1      -0.697  10.748  21.211  0.00  0.00    +0.000 C 
BRANCH  19  20
ATOM     20  N   UNL     1      -1.157  11.119  19.863  0.00  0.00    +0.000 NA
ATOM     21  C   UNL     1      -1.961  12.361  19.827  0.00  0.00    +0.000 C 
ATOM     22  C   UNL     1      -1.177  13.651  20.154  0.00  0.00    +0.000 C 
ATOM     23  N   UNL     1      -0.049  13.795  19.215  0.00  0.00    +0.000 N 
ATOM     24  C   UNL     1       0.828  12.611  19.136  0.00  0.00    +0.000 C 
ATOM     25  C   UNL     1      -0.002  11.309  18.945  0.00  0.00    +0.000 C 
BRANCH  23  26
ATOM     26  C   UNL     1       0.419  15.062  18.890  0.00  0.00    +0.000 A 
ATOM     27  C   UNL     1       1.782  15.340  18.687  0.00  0.00    +0.000 A 
ATOM     28  C   UNL     1       2.229  16.600  18.261  0.00  0.00    +0.000 A 
ATOM     29  C   UNL     1       1.315  17.623  18.031  0.00  0.00    +0.000 A 
ATOM     30  C   UNL     1      -0.034  17.380  18.239  0.00  0.00    +0.000 A 
ATOM     31 CL   UNL     1      -1.184  18.628  17.944  0.00  0.00    +0.000 Cl
ATOM     32  C   UNL     1      -0.475  16.122  18.661  0.00  0.00    +0.000 A 
ENDBRANCH  23  26
ENDBRANCH  19  20
ENDBRANCH  18  19
ENDBRANCH  17  18
ENDBRANCH   3  17
TORSDOF 7
ENDMDL
