MODEL 1
REMARK VINA RESULT:      -6.4      0.000      0.000
REMARK  Name = 
REMARK  10 active torsions:
REMARK  status: ('A' for Active; 'I' for Inactive)
REMARK    1  A    between atoms: C_1  and  C_2
REMARK    2  A    between atoms: C_5  and  N_6
REMARK    3  A    between atoms: N_9  and  C_10
REMARK    4  A    between atoms: C_10  and  C_11
REMARK    5  A    between atoms: C_11  and  S_12
REMARK    6  A    between atoms: S_12  and  C_13
REMARK    7  A    between atoms: C_13  and  N_15
REMARK    8  A    between atoms: C_18  and  O_19
REMARK    9  A    between atoms: O_19  and  S_20
REMARK   10  A    between atoms: S_20  and  C_21
REMARK                            x       y       z     vdW  Elec       q    Type
REMARK                         _______ _______ _______ _____ _____    ______ ____
ROOT
ATOM      1  C   UNL     1       1.362   8.790  19.482  0.00  0.00    +0.000 C 
ATOM      2  S   UNL     1       1.949   9.107  17.937  0.00  0.00    +0.000 S 
ENDROOT
BRANCH   1   3
ATOM      3  N   UNL     1       0.451   9.605  20.166  0.00  0.00    +0.000 N 
ATOM      4  C   UNL     1       0.236  11.031  19.860  0.00  0.00    +0.000 C 
ATOM      5  C   UNL     1       0.485  11.885  21.107  0.00  0.00    +0.000 C 
ATOM      6  C   UNL     1      -0.414  11.442  22.265  0.00  0.00    +0.000 C 
ATOM      7  C   UNL     1      -0.149   9.960  22.548  0.00  0.00    +0.000 C 
ATOM      8  C   UNL     1      -0.357   9.113  21.295  0.00  0.00    +0.000 C 
BRANCH   6   9
ATOM      9  O   UNL     1      -1.773  11.686  21.888  0.00  0.00    +0.000 OA
BRANCH   9  10
ATOM     10  S   UNL     1      -2.733  12.557  22.886  0.00  0.00    +0.000 S 
ATOM     11  C   UNL     1      -4.008  12.948  21.717  0.00  0.00    +0.000 C 
ATOM     12  O   UNL     1      -3.297  11.651  23.869  0.00  0.00    +0.000 OA
ATOM     13  O   UNL     1      -2.040  13.767  23.261  0.00  0.00    +0.000 OA
ENDBRANCH   9  10
ENDBRANCH   6   9
ENDBRANCH   1   3
BRANCH   1  14
ATOM     14  S   UNL     1       1.873   7.344  20.360  0.00  0.00    +0.000 S 
BRANCH  14  15
ATOM     15  C   UNL     1       2.697   6.352  19.069  0.00  0.00    +0.000 C 
BRANCH  15  16
ATOM     16  C   UNL     1       3.729   5.365  19.615  0.00  0.00    +0.000 C 
BRANCH  16  22
ATOM     17  C   UNL     1       4.788   4.234  16.952  0.00  0.00    +0.000 C 
ATOM     18  C   UNL     1       3.995   3.476  17.956  0.00  0.00    +0.000 A 
ATOM     19  N   UNL     1       3.669   2.204  17.831  0.00  0.00    +0.000 NA
ATOM     20  C   UNL     1       2.949   1.881  18.945  0.00  0.00    +0.000 A 
ATOM     21  C   UNL     1       2.824   2.975  19.762  0.00  0.00    +0.000 A 
ATOM     22  N   UNL     1       3.500   4.002  19.143  0.00  0.00    +0.000 N 
BRANCH  21  23
ATOM     23  N   UNL     1       2.127   3.040  21.000  0.00  0.00    +0.000 N 
ATOM     24  O   UNL     1       2.723   2.598  21.991  0.00  0.00    +0.000 OA
ATOM     25  O   UNL     1       0.990   3.516  21.003  0.00  0.00    +0.000 OA
ENDBRANCH  21  23
ENDBRANCH  16  22
ENDBRANCH  15  16
ENDBRANCH  14  15
ENDBRANCH   1  14
TORSDOF 8
ENDMDL
MODEL 2
REMARK VINA RESULT:      -6.3      1.086      1.610
REMARK  Name = 
REMARK  10 active torsions:
REMARK  status: ('A' for Active; 'I' for Inactive)
REMARK    1  A    between atoms: C_1  and  C_2
REMARK    2  A    between atoms: C_5  and  N_6
REMARK    3  A    between atoms: N_9  and  C_10
REMARK    4  A    between atoms: C_10  and  C_11
REMARK    5  A    between atoms: C_11  and  S_12
REMARK    6  A    between atoms: S_12  and  C_13
REMARK    7  A    between atoms: C_13  and  N_15
REMARK    8  A    between atoms: C_18  and  O_19
REMARK    9  A    between atoms: O_19  and  S_20
REMARK   10  A    between atoms: S_20  and  C_21
REMARK                            x       y       z     vdW  Elec       q    Type
REMARK                         _______ _______ _______ _____ _____    ______ ____
ROOT
ATOM      1  C   UNL     1       1.562   8.837  19.584  0.00  0.00    +0.000 C 
ATOM      2  S   UNL     1       1.891   9.022  17.944  0.00  0.00    +0.000 S 
ENDROOT
BRANCH   1   3
ATOM      3  N   UNL     1       1.023   9.839  20.401  0.00  0.00    +0.000 N 
ATOM      4  C   UNL     1       1.005   9.774  21.874  0.00  0.00    +0.000 C 
ATOM      5  C   UNL     1      -0.432   9.897  22.393  0.00  0.00    +0.000 C 
ATOM      6  C   UNL     1      -1.084  11.194  21.904  0.00  0.00    +0.000 C 
ATOM      7  C   UNL     1      -1.046  11.210  20.372  0.00  0.00    +0.000 C 
ATOM      8  C   UNL     1       0.380  11.046  19.853  0.00  0.00    +0.000 C 
BRANCH   6   9
ATOM      9  O   UNL     1      -0.365  12.293  22.474  0.00  0.00    +0.000 OA
BRANCH   9  10
ATOM     10  S   UNL     1      -1.165  13.679  22.811  0.00  0.00    +0.000 S 
ATOM     11  C   UNL     1      -2.746  12.965  23.182  0.00  0.00    +0.000 C 
ATOM     12  O   UNL     1      -0.624  14.221  24.044  0.00  0.00    +0.000 OA
ATOM     13  O   UNL     1      -1.267  14.464  21.603  0.00  0.00    +0.000 OA
ENDBRANCH   9  10
ENDBRANCH   6   9
ENDBRANCH   1   3
BRANCH   1  14
ATOM     14  S   UNL     1       1.876   7.300  20.398  0.00  0.00    +0.000 S 
BRANCH  14  15
ATOM     15  C   UNL     1       2.511   6.247  19.049  0.00  0.00    +0.000 C 
BRANCH  15  16
ATOM     16  C   UNL     1       3.666   5.338  19.470  0.00  0.00    +0.000 C 
BRANCH  16  22
ATOM     17  C   UNL     1       4.712   4.144  16.830  0.00  0.00    +0.000 C 
ATOM     18  C   UNL     1       3.957   3.400  17.872  0.00  0.00    +0.000 A 
ATOM     19  N   UNL     1       3.665   2.116  17.797  0.00  0.00    +0.000 NA
ATOM     20  C   UNL     1       2.971   1.813  18.934  0.00  0.00    +0.000 A 
ATOM     21  C   UNL     1       2.830   2.931  19.714  0.00  0.00    +0.000 A 
ATOM     22  N   UNL     1       3.467   3.954  19.049  0.00  0.00    +0.000 N 
BRANCH  21  23
ATOM     23  N   UNL     1       2.152   3.020  20.961  0.00  0.00    +0.000 N 
ATOM     24  O   UNL     1       1.013   3.505  20.935  0.00  0.00    +0.000 OA
ATOM     25  O   UNL     1       2.737   2.625  21.972  0.00  0.00    +0.000 OA
ENDBRANCH  21  23
ENDBRANCH  16  22
ENDBRANCH  15  16
ENDBRANCH  14  15
ENDBRANCH   1  14
TORSDOF 8
ENDMDL
MODEL 3
REMARK VINA RESULT:      -6.2      6.010      9.359
REMARK  Name = 
REMARK  10 active torsions:
REMARK  status: ('A' for Active; 'I' for Inactive)
REMARK    1  A    between atoms: C_1  and  C_2
REMARK    2  A    between atoms: C_5  and  N_6
REMARK    3  A    between atoms: N_9  and  C_10
REMARK    4  A    between atoms: C_10  and  C_11
REMARK    5  A    between atoms: C_11  and  S_12
REMARK    6  A    between atoms: S_12  and  C_13
REMARK    7  A    between atoms: C_13  and  N_15
REMARK    8  A    between atoms: C_18  and  O_19
REMARK    9  A    between atoms: O_19  and  S_20
REMARK   10  A    between atoms: S_20  and  C_21
REMARK                            x       y       z     vdW  Elec       q    Type
REMARK                         _______ _______ _______ _____ _____    ______ ____
ROOT
ATOM      1  C   UNL     1       6.234   4.780  18.499  0.00  0.00    +0.000 C 
ATOM      2  S   UNL     1       7.425   5.733  19.209  0.00  0.00    +0.000 S 
ENDROOT
BRANCH   1   3
ATOM      3  N   UNL     1       6.211   4.419  17.146  0.00  0.00    +0.000 N 
ATOM      4  C   UNL     1       7.422   4.214  16.331  0.00  0.00    +0.000 C 
ATOM      5  C   UNL     1       7.400   5.137  15.107  0.00  0.00    +0.000 C 
ATOM      6  C   UNL     1       6.141   4.906  14.267  0.00  0.00    +0.000 C 
ATOM      7  C   UNL     1       4.914   5.136  15.154  0.00  0.00    +0.000 C 
ATOM      8  C   UNL     1       4.955   4.247  16.395  0.00  0.00    +0.000 C 
BRANCH   6   9
ATOM      9  O   UNL     1       6.193   3.572  13.751  0.00  0.00    +0.000 OA
BRANCH   9  10
ATOM     10  S   UNL     1       6.357   3.346  12.138  0.00  0.00    +0.000 S 
ATOM     11  C   UNL     1       4.649   3.519  11.694  0.00  0.00    +0.000 C 
ATOM     12  O   UNL     1       7.072   4.487  11.597  0.00  0.00    +0.000 OA
ATOM     13  O   UNL     1       6.779   1.986  11.898  0.00  0.00    +0.000 OA
ENDBRANCH   9  10
ENDBRANCH   6   9
ENDBRANCH   1   3
BRANCH   1  14
ATOM     14  S   UNL     1       4.896   4.144  19.463  0.00  0.00    +0.000 S 
BRANCH  14  15
ATOM     15  C   UNL     1       3.777   5.578  19.605  0.00  0.00    +0.000 C 
BRANCH  15  16
ATOM     16  C   UNL     1       2.422   5.242  20.229  0.00  0.00    +0.000 C 
BRANCH  16  22
ATOM     17  C   UNL     1       1.384   4.871  17.353  0.00  0.00    +0.000 C 
ATOM     18  C   UNL     1       1.413   3.817  18.401  0.00  0.00    +0.000 A 
ATOM     19  N   UNL     1       1.014   2.574  18.210  0.00  0.00    +0.000 NA
ATOM     20  C   UNL     1       1.195   1.926  19.398  0.00  0.00    +0.000 A 
ATOM     21  C   UNL     1       1.706   2.787  20.334  0.00  0.00    +0.000 A 
ATOM     22  N   UNL     1       1.860   4.001  19.705  0.00  0.00    +0.000 N 
BRANCH  21  23
ATOM     23  N   UNL     1       2.009   2.489  21.691  0.00  0.00    +0.000 N 
ATOM     24  O   UNL     1       1.059   2.509  22.485  0.00  0.00    +0.000 OA
ATOM     25  O   UNL     1       3.181   2.245  21.986  0.00  0.00    +0.000 OA
ENDBRANCH  21  23
ENDBRANCH  16  22
ENDBRANCH  15  16
ENDBRANCH  14  15
ENDBRANCH   1  14
TORSDOF 8
ENDMDL
MODEL 4
REMARK VINA RESULT:      -6.2      3.625      8.725
REMARK  Name = 
REMARK  10 active torsions:
REMARK  status: ('A' for Active; 'I' for Inactive)
REMARK    1  A    between atoms: C_1  and  C_2
REMARK    2  A    between atoms: C_5  and  N_6
REMARK    3  A    between atoms: N_9  and  C_10
REMARK    4  A    between atoms: C_10  and  C_11
REMARK    5  A    between atoms: C_11  and  S_12
REMARK    6  A    between atoms: S_12  and  C_13
REMARK    7  A    between atoms: C_13  and  N_15
REMARK    8  A    between atoms: C_18  and  O_19
REMARK    9  A    between atoms: O_19  and  S_20
REMARK   10  A    between atoms: S_20  and  C_21
REMARK                            x       y       z     vdW  Elec       q    Type
REMARK                         _______ _______ _______ _____ _____    ______ ____
ROOT
ATOM      1  C   UNL     1       1.864   3.524  19.716  0.00  0.00    +0.000 C 
ATOM      2  S   UNL     1       0.630   2.476  19.258  0.00  0.00    +0.000 S 
ENDROOT
BRANCH   1   3
ATOM      3  N   UNL     1       3.019   3.765  18.961  0.00  0.00    +0.000 N 
ATOM      4  C   UNL     1       4.340   4.046  19.551  0.00  0.00    +0.000 C 
ATOM      5  C   UNL     1       4.872   5.391  19.044  0.00  0.00    +0.000 C 
ATOM      6  C   UNL     1       4.951   5.409  17.514  0.00  0.00    +0.000 C 
ATOM      7  C   UNL     1       3.556   5.118  16.951  0.00  0.00    +0.000 C 
ATOM      8  C   UNL     1       3.008   3.799  17.488  0.00  0.00    +0.000 C 
BRANCH   6   9
ATOM      9  O   UNL     1       5.913   4.429  17.110  0.00  0.00    +0.000 OA
BRANCH   9  10
ATOM     10  S   UNL     1       7.296   4.920  16.387  0.00  0.00    +0.000 S 
ATOM     11  C   UNL     1       6.869   4.482  14.722  0.00  0.00    +0.000 C 
ATOM     12  O   UNL     1       7.351   6.368  16.462  0.00  0.00    +0.000 OA
ATOM     13  O   UNL     1       8.382   4.082  16.839  0.00  0.00    +0.000 OA
ENDBRANCH   9  10
ENDBRANCH   6   9
ENDBRANCH   1   3
BRANCH   1  14
ATOM     14  S   UNL     1       1.761   4.428  21.231  0.00  0.00    +0.000 S 
BRANCH  14  15
ATOM     15  C   UNL     1       1.080   6.036  20.702  0.00  0.00    +0.000 C 
BRANCH  15  16
ATOM     16  C   UNL     1       2.145   7.105  20.458  0.00  0.00    +0.000 C 
BRANCH  16  22
ATOM     17  C   UNL     1       2.233   8.307  17.623  0.00  0.00    +0.000 C 
ATOM     18  C   UNL     1       1.578   8.931  18.803  0.00  0.00    +0.000 A 
ATOM     19  N   UNL     1       0.927  10.078  18.766  0.00  0.00    +0.000 NA
ATOM     20  C   UNL     1       0.479  10.306  20.036  0.00  0.00    +0.000 A 
ATOM     21  C   UNL     1       0.868   9.287  20.865  0.00  0.00    +0.000 A 
ATOM     22  N   UNL     1       1.565   8.393  20.085  0.00  0.00    +0.000 N 
BRANCH  21  23
ATOM     23  N   UNL     1       0.611   9.176  22.260  0.00  0.00    +0.000 N 
ATOM     24  O   UNL     1      -0.551   8.902  22.586  0.00  0.00    +0.000 OA
ATOM     25  O   UNL     1       1.546   9.368  23.040  0.00  0.00    +0.000 OA
ENDBRANCH  21  23
ENDBRANCH  16  22
ENDBRANCH  15  16
ENDBRANCH  14  15
ENDBRANCH   1  14
TORSDOF 8
ENDMDL
MODEL 5
REMARK VINA RESULT:      -6.1      3.494      8.953
REMARK  Name = 
REMARK  10 active torsions:
REMARK  status: ('A' for Active; 'I' for Inactive)
REMARK    1  A    between atoms: C_1  and  C_2
REMARK    2  A    between atoms: C_5  and  N_6
REMARK    3  A    between atoms: N_9  and  C_10
REMARK    4  A    between atoms: C_10  and  C_11
REMARK    5  A    between atoms: C_11  and  S_12
REMARK    6  A    between atoms: S_12  and  C_13
REMARK    7  A    between atoms: C_13  and  N_15
REMARK    8  A    between atoms: C_18  and  O_19
REMARK    9  A    between atoms: O_19  and  S_20
REMARK   10  A    between atoms: S_20  and  C_21
REMARK                            x       y       z     vdW  Elec       q    Type
REMARK                         _______ _______ _______ _____ _____    ______ ____
ROOT
ATOM      1  C   UNL     1       1.943   4.319  19.866  0.00  0.00    +0.000 C 
ATOM      2  S   UNL     1       0.839   3.052  19.794  0.00  0.00    +0.000 S 
ENDROOT
BRANCH   1   3
ATOM      3  N   UNL     1       3.028   4.475  18.993  0.00  0.00    +0.000 N 
ATOM      4  C   UNL     1       4.412   4.100  19.331  0.00  0.00    +0.000 C 
ATOM      5  C   UNL     1       5.341   5.310  19.186  0.00  0.00    +0.000 C 
ATOM      6  C   UNL     1       5.271   5.890  17.770  0.00  0.00    +0.000 C 
ATOM      7  C   UNL     1       3.817   6.270  17.471  0.00  0.00    +0.000 C 
ATOM      8  C   UNL     1       2.886   5.074  17.655  0.00  0.00    +0.000 C 
BRANCH   6   9
ATOM      9  O   UNL     1       5.770   4.902  16.863  0.00  0.00    +0.000 OA
BRANCH   9  10
ATOM     10  S   UNL     1       7.274   5.077  16.243  0.00  0.00    +0.000 S 
ATOM     11  C   UNL     1       6.923   4.526  14.594  0.00  0.00    +0.000 C 
ATOM     12  O   UNL     1       7.571   6.497  16.180  0.00  0.00    +0.000 OA
ATOM     13  O   UNL     1       8.157   4.132  16.886  0.00  0.00    +0.000 OA
ENDBRANCH   9  10
ENDBRANCH   6   9
ENDBRANCH   1   3
BRANCH   1  14
ATOM     14  S   UNL     1       1.782   5.586  21.088  0.00  0.00    +0.000 S 
BRANCH  14  15
ATOM     15  C   UNL     1       1.555   7.094  20.086  0.00  0.00    +0.000 C 
BRANCH  15  16
ATOM     16  C   UNL     1       1.626   8.388  20.897  0.00  0.00    +0.000 C 
BRANCH  16  22
ATOM     17  C   UNL     1       1.539   9.236  17.936  0.00  0.00    +0.000 C 
ATOM     18  C   UNL     1       0.692   9.801  19.020  0.00  0.00    +0.000 A 
ATOM     19  N   UNL     1      -0.227  10.729  18.831  0.00  0.00    +0.000 NA
ATOM     20  C   UNL     1      -0.778  10.979  20.055  0.00  0.00    +0.000 A 
ATOM     21  C   UNL     1      -0.182  10.197  21.010  0.00  0.00    +0.000 A 
ATOM     22  N   UNL     1       0.756   9.430  20.358  0.00  0.00    +0.000 N 
BRANCH  21  23
ATOM     23  N   UNL     1      -0.468  10.186  22.403  0.00  0.00    +0.000 N 
ATOM     24  O   UNL     1      -0.383  11.272  22.992  0.00  0.00    +0.000 OA
ATOM     25  O   UNL     1      -0.767   9.111  22.928  0.00  0.00    +0.000 OA
ENDBRANCH  21  23
ENDBRANCH  16  22
ENDBRANCH  15  16
ENDBRANCH  14  15
ENDBRANCH   1  14
TORSDOF 8
ENDMDL
MODEL 6
REMARK VINA RESULT:      -6.0      6.158      9.496
REMARK  Name = 
REMARK  10 active torsions:
REMARK  status: ('A' for Active; 'I' for Inactive)
REMARK    1  A    between atoms: C_1  and  C_2
REMARK    2  A    between atoms: C_5  and  N_6
REMARK    3  A    between atoms: N_9  and  C_10
REMARK    4  A    between atoms: C_10  and  C_11
REMARK    5  A    between atoms: C_11  and  S_12
REMARK    6  A    between atoms: S_12  and  C_13
REMARK    7  A    between atoms: C_13  and  N_15
REMARK    8  A    between atoms: C_18  and  O_19
REMARK    9  A    between atoms: O_19  and  S_20
REMARK   10  A    between atoms: S_20  and  C_21
REMARK                            x       y       z     vdW  Elec       q    Type
REMARK                         _______ _______ _______ _____ _____    ______ ____
ROOT
ATOM      1  C   UNL     1       6.500   5.182  18.326  0.00  0.00    +0.000 C 
ATOM      2  S   UNL     1       7.835   5.930  19.024  0.00  0.00    +0.000 S 
ENDROOT
BRANCH   1   3
ATOM      3  N   UNL     1       6.469   4.675  17.020  0.00  0.00    +0.000 N 
ATOM      4  C   UNL     1       7.123   5.326  15.872  0.00  0.00    +0.000 C 
ATOM      5  C   UNL     1       6.097   5.616  14.771  0.00  0.00    +0.000 C 
ATOM      6  C   UNL     1       5.387   4.333  14.329  0.00  0.00    +0.000 C 
ATOM      7  C   UNL     1       4.720   3.699  15.553  0.00  0.00    +0.000 C 
ATOM      8  C   UNL     1       5.734   3.448  16.666  0.00  0.00    +0.000 C 
BRANCH   6   9
ATOM      9  O   UNL     1       6.364   3.469  13.737  0.00  0.00    +0.000 OA
BRANCH   9  10
ATOM     10  S   UNL     1       6.466   3.381  12.107  0.00  0.00    +0.000 S 
ATOM     11  C   UNL     1       4.744   3.601  11.743  0.00  0.00    +0.000 C 
ATOM     12  O   UNL     1       7.171   4.559  11.637  0.00  0.00    +0.000 OA
ATOM     13  O   UNL     1       6.866   2.044  11.736  0.00  0.00    +0.000 OA
ENDBRANCH   9  10
ENDBRANCH   6   9
ENDBRANCH   1   3
BRANCH   1  14
ATOM     14  S   UNL     1       5.004   4.971  19.243  0.00  0.00    +0.000 S 
BRANCH  14  15
ATOM     15  C   UNL     1       3.791   5.926  18.270  0.00  0.00    +0.000 C 
BRANCH  15  16
ATOM     16  C   UNL     1       2.443   5.224  18.107  0.00  0.00    +0.000 C 
BRANCH  16  22
ATOM     17  C   UNL     1       1.436   6.172  20.860  0.00  0.00    +0.000 C 
ATOM     18  C   UNL     1       1.658   4.756  20.464  0.00  0.00    +0.000 A 
ATOM     19  N   UNL     1       1.421   3.723  21.251  0.00  0.00    +0.000 NA
ATOM     20  C   UNL     1       1.749   2.610  20.532  0.00  0.00    +0.000 A 
ATOM     21  C   UNL     1       2.200   2.965  19.287  0.00  0.00    +0.000 A 
ATOM     22  N   UNL     1       2.137   4.339  19.228  0.00  0.00    +0.000 N 
BRANCH  21  23
ATOM     23  N   UNL     1       2.652   2.090  18.262  0.00  0.00    +0.000 N 
ATOM     24  O   UNL     1       3.613   1.361  18.544  0.00  0.00    +0.000 OA
ATOM     25  O   UNL     1       2.074   2.122  17.173  0.00  0.00    +0.000 OA
ENDBRANCH  21  23
ENDBRANCH  16  22
ENDBRANCH  15  16
ENDBRANCH  14  15
ENDBRANCH   1  14
TORSDOF 8
ENDMDL
MODEL 7
REMARK VINA RESULT:      -6.0      3.111      4.022
REMARK  Name = 
REMARK  10 active torsions:
REMARK  status: ('A' for Active; 'I' for Inactive)
REMARK    1  A    between atoms: C_1  and  C_2
REMARK    2  A    between atoms: C_5  and  N_6
REMARK    3  A    between atoms: N_9  and  C_10
REMARK    4  A    between atoms: C_10  and  C_11
REMARK    5  A    between atoms: C_11  and  S_12
REMARK    6  A    between atoms: S_12  and  C_13
REMARK    7  A    between atoms: C_13  and  N_15
REMARK    8  A    between atoms: C_18  and  O_19
REMARK    9  A    between atoms: O_19  and  S_20
REMARK   10  A    between atoms: S_20  and  C_21
REMARK                            x       y       z     vdW  Elec       q    Type
REMARK                         _______ _______ _______ _____ _____    ______ ____
ROOT
ATOM      1  C   UNL     1       2.013   6.728  19.695  0.00  0.00    +0.000 C 
ATOM      2  S   UNL     1       1.854   5.487  20.820  0.00  0.00    +0.000 S 
ENDROOT
BRANCH   1   3
ATOM      3  N   UNL     1       1.683   8.067  19.941  0.00  0.00    +0.000 N 
ATOM      4  C   UNL     1       1.233   8.574  21.250  0.00  0.00    +0.000 C 
ATOM      5  C   UNL     1      -0.136   9.248  21.117  0.00  0.00    +0.000 C 
ATOM      6  C   UNL     1      -0.093  10.381  20.087  0.00  0.00    +0.000 C 
ATOM      7  C   UNL     1       0.371   9.804  18.746  0.00  0.00    +0.000 C 
ATOM      8  C   UNL     1       1.717   9.096  18.887  0.00  0.00    +0.000 C 
BRANCH   6   9
ATOM      9  O   UNL     1       0.794  11.391  20.578  0.00  0.00    +0.000 OA
BRANCH   9  10
ATOM     10  S   UNL     1       0.187  12.852  20.995  0.00  0.00    +0.000 S 
ATOM     11  C   UNL     1      -1.368  12.719  20.152  0.00  0.00    +0.000 C 
ATOM     12  O   UNL     1      -0.080  12.836  22.421  0.00  0.00    +0.000 OA
ATOM     13  O   UNL     1       0.983  13.883  20.371  0.00  0.00    +0.000 OA
ENDBRANCH   9  10
ENDBRANCH   6   9
ENDBRANCH   1   3
BRANCH   1  14
ATOM     14  S   UNL     1       2.645   6.402  18.077  0.00  0.00    +0.000 S 
BRANCH  14  15
ATOM     15  C   UNL     1       2.177   4.660  17.799  0.00  0.00    +0.000 C 
BRANCH  15  16
ATOM     16  C   UNL     1       3.259   3.835  17.103  0.00  0.00    +0.000 C 
BRANCH  16  22
ATOM     17  C   UNL     1       4.519   3.050  19.803  0.00  0.00    +0.000 C 
ATOM     18  C   UNL     1       5.190   3.838  18.735  0.00  0.00    +0.000 A 
ATOM     19  N   UNL     1       6.432   4.277  18.811  0.00  0.00    +0.000 NA
ATOM     20  C   UNL     1       6.673   4.949  17.647  0.00  0.00    +0.000 A 
ATOM     21  C   UNL     1       5.560   4.927  16.848  0.00  0.00    +0.000 A 
ATOM     22  N   UNL     1       4.605   4.209  17.530  0.00  0.00    +0.000 N 
BRANCH  21  23
ATOM     23  N   UNL     1       5.415   5.534  15.571  0.00  0.00    +0.000 N 
ATOM     24  O   UNL     1       5.518   4.786  14.590  0.00  0.00    +0.000 OA
ATOM     25  O   UNL     1       5.209   6.749  15.524  0.00  0.00    +0.000 OA
ENDBRANCH  21  23
ENDBRANCH  16  22
ENDBRANCH  15  16
ENDBRANCH  14  15
ENDBRANCH   1  14
TORSDOF 8
ENDMDL
MODEL 8
REMARK VINA RESULT:      -6.0      2.001      2.516
REMARK  Name = 
REMARK  10 active torsions:
REMARK  status: ('A' for Active; 'I' for Inactive)
REMARK    1  A    between atoms: C_1  and  C_2
REMARK    2  A    between atoms: C_5  and  N_6
REMARK    3  A    between atoms: N_9  and  C_10
REMARK    4  A    between atoms: C_10  and  C_11
REMARK    5  A    between atoms: C_11  and  S_12
REMARK    6  A    between atoms: S_12  and  C_13
REMARK    7  A    between atoms: C_13  and  N_15
REMARK    8  A    between atoms: C_18  and  O_19
REMARK    9  A    between atoms: O_19  and  S_20
REMARK   10  A    between atoms: S_20  and  C_21
REMARK                            x       y       z     vdW  Elec       q    Type
REMARK                         _______ _______ _______ _____ _____    ______ ____
ROOT
ATOM      1  C   UNL     1       1.302   9.064  19.469  0.00  0.00    +0.000 C 
ATOM      2  S   UNL     1       2.007   9.382  17.975  0.00  0.00    +0.000 S 
ENDROOT
BRANCH   1   3
ATOM      3  N   UNL     1       0.364   9.894  20.096  0.00  0.00    +0.000 N 
ATOM      4  C   UNL     1       0.135  11.301  19.722  0.00  0.00    +0.000 C 
ATOM      5  C   UNL     1       0.345  12.214  20.935  0.00  0.00    +0.000 C 
ATOM      6  C   UNL     1      -0.572  11.810  22.092  0.00  0.00    +0.000 C 
ATOM      7  C   UNL     1      -0.293  10.346  22.447  0.00  0.00    +0.000 C 
ATOM      8  C   UNL     1      -0.461   9.441  21.228  0.00  0.00    +0.000 C 
BRANCH   6   9
ATOM      9  O   UNL     1      -1.926  12.016  21.675  0.00  0.00    +0.000 OA
BRANCH   9  10
ATOM     10  S   UNL     1      -3.008  12.615  22.747  0.00  0.00    +0.000 S 
ATOM     11  C   UNL     1      -2.050  13.998  23.312  0.00  0.00    +0.000 C 
ATOM     12  O   UNL     1      -4.138  13.136  22.000  0.00  0.00    +0.000 OA
ATOM     13  O   UNL     1      -3.166  11.670  23.827  0.00  0.00    +0.000 OA
ENDBRANCH   9  10
ENDBRANCH   6   9
ENDBRANCH   1   3
BRANCH   1  14
ATOM     14  S   UNL     1       1.710   7.594  20.362  0.00  0.00    +0.000 S 
BRANCH  14  15
ATOM     15  C   UNL     1       2.893   6.758  19.253  0.00  0.00    +0.000 C 
BRANCH  15  16
ATOM     16  C   UNL     1       2.388   5.421  18.710  0.00  0.00    +0.000 C 
BRANCH  16  22
ATOM     17  C   UNL     1       1.162   3.563  20.840  0.00  0.00    +0.000 C 
ATOM     18  C   UNL     1       2.521   3.423  20.253  0.00  0.00    +0.000 A 
ATOM     19  N   UNL     1       3.363   2.455  20.564  0.00  0.00    +0.000 NA
ATOM     20  C   UNL     1       4.489   2.674  19.823  0.00  0.00    +0.000 A 
ATOM     21  C   UNL     1       4.338   3.797  19.052  0.00  0.00    +0.000 A 
ATOM     22  N   UNL     1       3.076   4.281  19.311  0.00  0.00    +0.000 N 
BRANCH  21  23
ATOM     23  N   UNL     1       5.297   4.359  18.165  0.00  0.00    +0.000 N 
ATOM     24  O   UNL     1       6.212   5.011  18.685  0.00  0.00    +0.000 OA
ATOM     25  O   UNL     1       5.152   4.170  16.955  0.00  0.00    +0.000 OA
ENDBRANCH  21  23
ENDBRANCH  16  22
ENDBRANCH  15  16
ENDBRANCH  14  15
ENDBRANCH   1  14
TORSDOF 8
ENDMDL
MODEL 9
REMARK VINA RESULT:      -6.0      1.878      2.491
REMARK  Name = 
REMARK  10 active torsions:
REMARK  status: ('A' for Active; 'I' for Inactive)
REMARK    1  A    between atoms: C_1  and  C_2
REMARK    2  A    between atoms: C_5  and  N_6
REMARK    3  A    between atoms: N_9  and  C_10
REMARK    4  A    between atoms: C_10  and  C_11
REMARK    5  A    between atoms: C_11  and  S_12
REMARK    6  A    between atoms: S_12  and  C_13
REMARK    7  A    between atoms: C_13  and  N_15
REMARK    8  A    between atoms: C_18  and  O_19
REMARK    9  A    between atoms: O_19  and  S_20
REMARK   10  A    between atoms: S_20  and  C_21
REMARK                            x       y       z     vdW  Elec       q    Type
REMARK                         _______ _______ _______ _____ _____    ______ ____
ROOT
ATOM      1  C   UNL     1       1.309   8.928  19.375  0.00  0.00    +0.000 C 
ATOM      2  S   UNL     1       2.070   9.057  17.880  0.00  0.00    +0.000 S 
ENDROOT
BRANCH   1   3
ATOM      3  N   UNL     1       0.313   9.799  19.835  0.00  0.00    +0.000 N 
ATOM      4  C   UNL     1      -0.755  10.348  18.981  0.00  0.00    +0.000 C 
ATOM      5  C   UNL     1      -0.727  11.879  19.014  0.00  0.00    +0.000 C 
ATOM      6  C   UNL     1      -0.865  12.400  20.448  0.00  0.00    +0.000 C 
ATOM      7  C   UNL     1       0.269  11.809  21.292  0.00  0.00    +0.000 C 
ATOM      8  C   UNL     1       0.267  10.283  21.226  0.00  0.00    +0.000 C 
BRANCH   6   9
ATOM      9  O   UNL     1      -2.156  12.021  20.934  0.00  0.00    +0.000 OA
BRANCH   9  10
ATOM     10  S   UNL     1      -2.733  12.722  22.296  0.00  0.00    +0.000 S 
ATOM     11  C   UNL     1      -4.450  12.739  21.852  0.00  0.00    +0.000 C 
ATOM     12  O   UNL     1      -2.567  11.782  23.388  0.00  0.00    +0.000 OA
ATOM     13  O   UNL     1      -2.243  14.079  22.364  0.00  0.00    +0.000 OA
ENDBRANCH   9  10
ENDBRANCH   6   9
ENDBRANCH   1   3
BRANCH   1  14
ATOM     14  S   UNL     1       1.731   7.623  20.491  0.00  0.00    +0.000 S 
BRANCH  14  15
ATOM     15  C   UNL     1       2.311   6.302  19.373  0.00  0.00    +0.000 C 
BRANCH  15  16
ATOM     16  C   UNL     1       3.163   5.239  20.066  0.00  0.00    +0.000 C 
BRANCH  16  22
ATOM     17  C   UNL     1       1.026   3.047  20.418  0.00  0.00    +0.000 C 
ATOM     18  C   UNL     1       2.181   2.983  19.484  0.00  0.00    +0.000 A 
ATOM     19  N   UNL     1       2.414   1.973  18.667  0.00  0.00    +0.000 NA
ATOM     20  C   UNL     1       3.555   2.287  17.985  0.00  0.00    +0.000 A 
ATOM     21  C   UNL     1       4.032   3.504  18.396  0.00  0.00    +0.000 A 
ATOM     22  N   UNL     1       3.155   3.966  19.350  0.00  0.00    +0.000 N 
BRANCH  21  23
ATOM     23  N   UNL     1       5.208   4.159  17.936  0.00  0.00    +0.000 N 
ATOM     24  O   UNL     1       5.166   4.626  16.790  0.00  0.00    +0.000 OA
ATOM     25  O   UNL     1       6.180   4.210  18.693  0.00  0.00    +0.000 OA
ENDBRANCH  21  23
ENDBRANCH  16  22
ENDBRANCH  15  16
ENDBRANCH  14  15
ENDBRANCH   1  14
TORSDOF 8
ENDMDL
