MODEL 1
REMARK VINA RESULT:      -7.1      0.000      0.000
REMARK  Name = 
REMARK  5 active torsions:
REMARK  status: ('A' for Active; 'I' for Inactive)
REMARK    1  A    between atoms: C_4  and  C_5
REMARK    2  A    between atoms: N_7  and  C_8
REMARK    3  A    between atoms: C_15  and  C_16
REMARK    4  A    between atoms: C_19  and  O_20
REMARK    5  A    between atoms: N_26  and  C_27
REMARK                            x       y       z     vdW  Elec       q    Type
REMARK                         _______ _______ _______ _____ _____    ______ ____
ROOT
ATOM      1  C   UNL     1      -0.000  12.455  19.465  0.00  0.00    +0.000 A 
ATOM      2  C   UNL     1      -1.038  13.124  20.061  0.00  0.00    +0.000 A 
ATOM      3  N   UNL     1      -1.668  12.217  20.882  0.00  0.00    +0.000 N 
ATOM      4  N   UNL     1      -1.129  10.974  20.758  0.00  0.00    +0.000 NA
ATOM      5  C   UNL     1      -0.111  11.104  19.889  0.00  0.00    +0.000 A 
ENDROOT
BRANCH   1   9
ATOM      6  O   UNL     1       1.980  13.061  21.464  0.00  0.00    +0.000 OA
ATOM      7  C   UNL     1       2.599  13.593  20.552  0.00  0.00    +0.000 C 
ATOM      8  C   UNL     1       2.150  13.589  19.131  0.00  0.00    +0.000 C 
ATOM      9  C   UNL     1       0.995  13.086  18.667  0.00  0.00    +0.000 C 
ATOM     10  S   UNL     1       3.295  14.409  18.142  0.00  0.00    +0.000 S 
ATOM     11  C   UNL     1       4.309  14.857  19.515  0.00  0.00    +0.000 C 
ATOM     12  S   UNL     1       5.732  15.704  19.297  0.00  0.00    +0.000 S 
ATOM     13  N   UNL     1       3.767  14.339  20.679  0.00  0.00    +0.000 N 
BRANCH  13  14
ATOM     14  C   UNL     1       4.273  14.582  21.982  0.00  0.00    +0.000 A 
ATOM     15  C   UNL     1       3.906  15.749  22.669  0.00  0.00    +0.000 A 
ATOM     16  C   UNL     1       4.469  16.046  23.910  0.00  0.00    +0.000 A 
ATOM     17  C   UNL     1       5.426  15.196  24.456  0.00  0.00    +0.000 A 
ATOM     18 CL   UNL     1       6.153  15.583  25.965  0.00  0.00    +0.000 Cl
ATOM     19  C   UNL     1       5.811  14.039  23.778  0.00  0.00    +0.000 A 
ATOM     20  C   UNL     1       5.228  13.726  22.547  0.00  0.00    +0.000 A 
ENDBRANCH  13  14
ENDBRANCH   1   9
BRANCH   3  21
ATOM     21  C   UNL     1      -2.749  12.470  21.774  0.00  0.00    +0.000 A 
ATOM     22  C   UNL     1      -2.602  12.289  23.158  0.00  0.00    +0.000 A 
ATOM     23  C   UNL     1      -3.677  12.534  24.018  0.00  0.00    +0.000 A 
ATOM     24  C   UNL     1      -4.903  12.948  23.503  0.00  0.00    +0.000 A 
ATOM     25  C   UNL     1      -5.059  13.126  22.130  0.00  0.00    +0.000 A 
ATOM     26  C   UNL     1      -3.985  12.895  21.266  0.00  0.00    +0.000 A 
ENDBRANCH   3  21
BRANCH   5  27
ATOM     27  C   UNL     1       0.725   9.961  19.512  0.00  0.00    +0.000 A 
ATOM     28  C   UNL     1       1.097   9.003  20.472  0.00  0.00    +0.000 A 
ATOM     29  C   UNL     1       1.875   7.897  20.117  0.00  0.00    +0.000 A 
ATOM     30  C   UNL     1       2.296   7.754  18.802  0.00  0.00    +0.000 A 
ATOM     31  C   UNL     1       1.954   8.696  17.839  0.00  0.00    +0.000 A 
ATOM     32  C   UNL     1       1.167   9.802  18.193  0.00  0.00    +0.000 A 
BRANCH  30  33
ATOM     33  O   UNL     1       3.058   6.692  18.416  0.00  0.00    +0.000 OA
ATOM     34  H   UNL     1       3.242   6.769  17.466  0.00  0.00    +0.000 HD
ENDBRANCH  30  33
ENDBRANCH   5  27
TORSDOF 5
ENDMDL
MODEL 2
REMARK VINA RESULT:      -7.1      0.080      1.191
REMARK  Name = 
REMARK  5 active torsions:
REMARK  status: ('A' for Active; 'I' for Inactive)
REMARK    1  A    between atoms: C_4  and  C_5
REMARK    2  A    between atoms: N_7  and  C_8
REMARK    3  A    between atoms: C_15  and  C_16
REMARK    4  A    between atoms: C_19  and  O_20
REMARK    5  A    between atoms: N_26  and  C_27
REMARK                            x       y       z     vdW  Elec       q    Type
REMARK                         _______ _______ _______ _____ _____    ______ ____
ROOT
ATOM      1  C   UNL     1      -0.021  12.415  19.476  0.00  0.00    +0.000 A 
ATOM      2  C   UNL     1      -1.053  13.089  20.075  0.00  0.00    +0.000 A 
ATOM      3  N   UNL     1      -1.683  12.187  20.901  0.00  0.00    +0.000 N 
ATOM      4  N   UNL     1      -1.150  10.942  20.778  0.00  0.00    +0.000 NA
ATOM      5  C   UNL     1      -0.136  11.065  19.904  0.00  0.00    +0.000 A 
ENDROOT
BRANCH   1   9
ATOM      6  O   UNL     1       1.941  13.078  21.474  0.00  0.00    +0.000 OA
ATOM      7  C   UNL     1       2.561  13.598  20.556  0.00  0.00    +0.000 C 
ATOM      8  C   UNL     1       2.120  13.561  19.133  0.00  0.00    +0.000 C 
ATOM      9  C   UNL     1       0.973  13.039  18.672  0.00  0.00    +0.000 C 
ATOM     10  S   UNL     1       3.264  14.373  18.134  0.00  0.00    +0.000 S 
ATOM     11  C   UNL     1       4.265  14.857  19.505  0.00  0.00    +0.000 C 
ATOM     12  S   UNL     1       5.682  15.714  19.278  0.00  0.00    +0.000 S 
ATOM     13  N   UNL     1       3.721  14.357  20.675  0.00  0.00    +0.000 N 
BRANCH  13  14
ATOM     14  C   UNL     1       4.216  14.631  21.976  0.00  0.00    +0.000 A 
ATOM     15  C   UNL     1       3.838  15.810  22.635  0.00  0.00    +0.000 A 
ATOM     16  C   UNL     1       4.391  16.137  23.874  0.00  0.00    +0.000 A 
ATOM     17  C   UNL     1       5.349  15.304  24.444  0.00  0.00    +0.000 A 
ATOM     18 CL   UNL     1       6.063  15.727  25.949  0.00  0.00    +0.000 Cl
ATOM     19  C   UNL     1       5.744  14.135  23.794  0.00  0.00    +0.000 A 
ATOM     20  C   UNL     1       5.171  13.792  22.566  0.00  0.00    +0.000 A 
ENDBRANCH  13  14
ENDBRANCH   1   9
BRANCH   3  21
ATOM     21  C   UNL     1      -2.759  12.448  21.797  0.00  0.00    +0.000 A 
ATOM     22  C   UNL     1      -3.973  12.979  21.333  0.00  0.00    +0.000 A 
ATOM     23  C   UNL     1      -5.016  13.236  22.228  0.00  0.00    +0.000 A 
ATOM     24  C   UNL     1      -4.851  12.977  23.586  0.00  0.00    +0.000 A 
ATOM     25  C   UNL     1      -3.648  12.454  24.056  0.00  0.00    +0.000 A 
ATOM     26  C   UNL     1      -2.606  12.182  23.165  0.00  0.00    +0.000 A 
ENDBRANCH   3  21
BRANCH   5  27
ATOM     27  C   UNL     1       0.693   9.917  19.527  0.00  0.00    +0.000 A 
ATOM     28  C   UNL     1       1.129   9.758  18.200  0.00  0.00    +0.000 A 
ATOM     29  C   UNL     1       1.939   8.678  17.835  0.00  0.00    +0.000 A 
ATOM     30  C   UNL     1       2.303   7.746  18.796  0.00  0.00    +0.000 A 
ATOM     31  C   UNL     1       1.872   7.873  20.111  0.00  0.00    +0.000 A 
ATOM     32  C   UNL     1       1.066   8.960  20.478  0.00  0.00    +0.000 A 
BRANCH  30  33
ATOM     33  O   UNL     1       3.089   6.677  18.480  0.00  0.00    +0.000 OA
ATOM     34  H   UNL     1       2.765   5.899  18.961  0.00  0.00    +0.000 HD
ENDBRANCH  30  33
ENDBRANCH   5  27
TORSDOF 5
ENDMDL
MODEL 3
REMARK VINA RESULT:      -7.0      4.926      8.960
REMARK  Name = 
REMARK  5 active torsions:
REMARK  status: ('A' for Active; 'I' for Inactive)
REMARK    1  A    between atoms: C_4  and  C_5
REMARK    2  A    between atoms: N_7  and  C_8
REMARK    3  A    between atoms: C_15  and  C_16
REMARK    4  A    between atoms: C_19  and  O_20
REMARK    5  A    between atoms: N_26  and  C_27
REMARK                            x       y       z     vdW  Elec       q    Type
REMARK                         _______ _______ _______ _____ _____    ______ ____
ROOT
ATOM      1  C   UNL     1      -0.724  11.566  21.692  0.00  0.00    +0.000 A 
ATOM      2  C   UNL     1      -0.419  10.286  21.307  0.00  0.00    +0.000 A 
ATOM      3  N   UNL     1       0.551  10.389  20.337  0.00  0.00    +0.000 N 
ATOM      4  N   UNL     1       0.806  11.687  20.023  0.00  0.00    +0.000 NA
ATOM      5  C   UNL     1       0.028  12.418  20.840  0.00  0.00    +0.000 A 
ENDROOT
BRANCH   1   9
ATOM      6  O   UNL     1      -3.153  12.270  20.318  0.00  0.00    +0.000 OA
ATOM      7  C   UNL     1      -3.597  12.520  21.431  0.00  0.00    +0.000 C 
ATOM      8  C   UNL     1      -2.839  12.300  22.695  0.00  0.00    +0.000 C 
ATOM      9  C   UNL     1      -1.567  11.883  22.793  0.00  0.00    +0.000 C 
ATOM     10  S   UNL     1      -3.801  12.741  24.052  0.00  0.00    +0.000 S 
ATOM     11  C   UNL     1      -5.138  13.304  23.046  0.00  0.00    +0.000 C 
ATOM     12  S   UNL     1      -6.548  13.885  23.729  0.00  0.00    +0.000 S 
ATOM     13  N   UNL     1      -4.827  13.106  21.711  0.00  0.00    +0.000 N 
BRANCH  13  14
ATOM     14  C   UNL     1      -5.637  13.527  20.624  0.00  0.00    +0.000 A 
ATOM     15  C   UNL     1      -6.357  12.582  19.880  0.00  0.00    +0.000 A 
ATOM     16  C   UNL     1      -7.081  12.971  18.753  0.00  0.00    +0.000 A 
ATOM     17  C   UNL     1      -7.061  14.301  18.344  0.00  0.00    +0.000 A 
ATOM     18 CL   UNL     1      -7.917  14.774  16.930  0.00  0.00    +0.000 Cl
ATOM     19  C   UNL     1      -6.338  15.250  19.067  0.00  0.00    +0.000 A 
ATOM     20  C   UNL     1      -5.635  14.867  20.212  0.00  0.00    +0.000 A 
ENDBRANCH  13  14
ENDBRANCH   1   9
BRANCH   3  21
ATOM     21  C   UNL     1       1.245   9.322  19.697  0.00  0.00    +0.000 A 
ATOM     22  C   UNL     1       1.610   9.406  18.344  0.00  0.00    +0.000 A 
ATOM     23  C   UNL     1       2.283   8.345  17.730  0.00  0.00    +0.000 A 
ATOM     24  C   UNL     1       2.583   7.195  18.455  0.00  0.00    +0.000 A 
ATOM     25  C   UNL     1       2.220   7.101  19.797  0.00  0.00    +0.000 A 
ATOM     26  C   UNL     1       1.558   8.163  20.421  0.00  0.00    +0.000 A 
ENDBRANCH   3  21
BRANCH   5  27
ATOM     27  C   UNL     1       0.040  13.884  20.800  0.00  0.00    +0.000 A 
ATOM     28  C   UNL     1       0.605  14.620  21.856  0.00  0.00    +0.000 A 
ATOM     29  C   UNL     1       0.641  16.018  21.817  0.00  0.00    +0.000 A 
ATOM     30  C   UNL     1       0.098  16.682  20.726  0.00  0.00    +0.000 A 
ATOM     31  C   UNL     1      -0.480  15.976  19.677  0.00  0.00    +0.000 A 
ATOM     32  C   UNL     1      -0.510  14.575  19.714  0.00  0.00    +0.000 A 
BRANCH  30  33
ATOM     33  O   UNL     1       0.112  18.043  20.651  0.00  0.00    +0.000 OA
ATOM     34  H   UNL     1      -0.754  18.346  20.332  0.00  0.00    +0.000 HD
ENDBRANCH  30  33
ENDBRANCH   5  27
TORSDOF 5
ENDMDL
MODEL 4
REMARK VINA RESULT:      -7.0      0.185      1.201
REMARK  Name = 
REMARK  5 active torsions:
REMARK  status: ('A' for Active; 'I' for Inactive)
REMARK    1  A    between atoms: C_4  and  C_5
REMARK    2  A    between atoms: N_7  and  C_8
REMARK    3  A    between atoms: C_15  and  C_16
REMARK    4  A    between atoms: C_19  and  O_20
REMARK    5  A    between atoms: N_26  and  C_27
REMARK                            x       y       z     vdW  Elec       q    Type
REMARK                         _______ _______ _______ _____ _____    ______ ____
ROOT
ATOM      1  C   UNL     1       0.056  12.428  19.416  0.00  0.00    +0.000 A 
ATOM      2  C   UNL     1      -0.971  13.105  20.022  0.00  0.00    +0.000 A 
ATOM      3  N   UNL     1      -1.582  12.212  20.871  0.00  0.00    +0.000 N 
ATOM      4  N   UNL     1      -1.045  10.968  20.757  0.00  0.00    +0.000 NA
ATOM      5  C   UNL     1      -0.045  11.084  19.865  0.00  0.00    +0.000 A 
ENDROOT
BRANCH   1   9
ATOM      6  O   UNL     1       2.038  13.144  21.376  0.00  0.00    +0.000 OA
ATOM      7  C   UNL     1       2.642  13.652  20.440  0.00  0.00    +0.000 C 
ATOM      8  C   UNL     1       2.182  13.586  19.024  0.00  0.00    +0.000 C 
ATOM      9  C   UNL     1       1.033  13.046  18.587  0.00  0.00    +0.000 C 
ATOM     10  S   UNL     1       3.305  14.389  17.995  0.00  0.00    +0.000 S 
ATOM     11  C   UNL     1       4.321  14.906  19.343  0.00  0.00    +0.000 C 
ATOM     12  S   UNL     1       5.727  15.770  19.083  0.00  0.00    +0.000 S 
ATOM     13  N   UNL     1       3.796  14.422  20.530  0.00  0.00    +0.000 N 
BRANCH  13  14
ATOM     14  C   UNL     1       4.307  14.724  21.819  0.00  0.00    +0.000 A 
ATOM     15  C   UNL     1       5.166  13.819  22.460  0.00  0.00    +0.000 A 
ATOM     16  C   UNL     1       5.600  14.059  23.764  0.00  0.00    +0.000 A 
ATOM     17  C   UNL     1       5.151  15.186  24.446  0.00  0.00    +0.000 A 
ATOM     18 CL   UNL     1       5.650  15.460  26.068  0.00  0.00    +0.000 Cl
ATOM     19  C   UNL     1       4.286  16.087  23.825  0.00  0.00    +0.000 A 
ATOM     20  C   UNL     1       3.873  15.863  22.509  0.00  0.00    +0.000 A 
ENDBRANCH  13  14
ENDBRANCH   1   9
BRANCH   3  21
ATOM     21  C   UNL     1      -2.646  12.479  21.780  0.00  0.00    +0.000 A 
ATOM     22  C   UNL     1      -3.830  13.095  21.345  0.00  0.00    +0.000 A 
ATOM     23  C   UNL     1      -4.860  13.358  22.253  0.00  0.00    +0.000 A 
ATOM     24  C   UNL     1      -4.711  13.020  23.596  0.00  0.00    +0.000 A 
ATOM     25  C   UNL     1      -3.537  12.413  24.036  0.00  0.00    +0.000 A 
ATOM     26  C   UNL     1      -2.508  12.136  23.132  0.00  0.00    +0.000 A 
ENDBRANCH   3  21
BRANCH   5  27
ATOM     27  C   UNL     1       0.784   9.935  19.490  0.00  0.00    +0.000 A 
ATOM     28  C   UNL     1       1.107   8.949  20.440  0.00  0.00    +0.000 A 
ATOM     29  C   UNL     1       1.878   7.838  20.086  0.00  0.00    +0.000 A 
ATOM     30  C   UNL     1       2.341   7.718  18.783  0.00  0.00    +0.000 A 
ATOM     31  C   UNL     1       2.049   8.687  17.831  0.00  0.00    +0.000 A 
ATOM     32  C   UNL     1       1.269   9.798  18.184  0.00  0.00    +0.000 A 
BRANCH  30  33
ATOM     33  O   UNL     1       3.099   6.651  18.399  0.00  0.00    +0.000 OA
ATOM     34  H   UNL     1       3.641   6.912  17.638  0.00  0.00    +0.000 HD
ENDBRANCH  30  33
ENDBRANCH   5  27
TORSDOF 5
ENDMDL
MODEL 5
REMARK VINA RESULT:      -7.0      0.169      1.202
REMARK  Name = 
REMARK  5 active torsions:
REMARK  status: ('A' for Active; 'I' for Inactive)
REMARK    1  A    between atoms: C_4  and  C_5
REMARK    2  A    between atoms: N_7  and  C_8
REMARK    3  A    between atoms: C_15  and  C_16
REMARK    4  A    between atoms: C_19  and  O_20
REMARK    5  A    between atoms: N_26  and  C_27
REMARK                            x       y       z     vdW  Elec       q    Type
REMARK                         _______ _______ _______ _____ _____    ______ ____
ROOT
ATOM      1  C   UNL     1       0.007  12.447  19.468  0.00  0.00    +0.000 A 
ATOM      2  C   UNL     1      -1.011  13.135  20.078  0.00  0.00    +0.000 A 
ATOM      3  N   UNL     1      -1.628  12.248  20.929  0.00  0.00    +0.000 N 
ATOM      4  N   UNL     1      -1.103  10.999  20.814  0.00  0.00    +0.000 NA
ATOM      5  C   UNL     1      -0.106  11.105  19.919  0.00  0.00    +0.000 A 
ENDROOT
BRANCH   1   9
ATOM      6  O   UNL     1       2.010  13.130  21.419  0.00  0.00    +0.000 OA
ATOM      7  C   UNL     1       2.615  13.633  20.481  0.00  0.00    +0.000 C 
ATOM      8  C   UNL     1       2.146  13.579  19.067  0.00  0.00    +0.000 C 
ATOM      9  C   UNL     1       0.987  13.056  18.636  0.00  0.00    +0.000 C 
ATOM     10  S   UNL     1       3.273  14.371  18.035  0.00  0.00    +0.000 S 
ATOM     11  C   UNL     1       4.304  14.870  19.379  0.00  0.00    +0.000 C 
ATOM     12  S   UNL     1       5.719  15.716  19.113  0.00  0.00    +0.000 S 
ATOM     13  N   UNL     1       3.780  14.389  20.567  0.00  0.00    +0.000 N 
BRANCH  13  14
ATOM     14  C   UNL     1       4.303  14.678  21.854  0.00  0.00    +0.000 A 
ATOM     15  C   UNL     1       5.161  13.764  22.482  0.00  0.00    +0.000 A 
ATOM     16  C   UNL     1       5.607  13.993  23.784  0.00  0.00    +0.000 A 
ATOM     17  C   UNL     1       5.170  15.118  24.477  0.00  0.00    +0.000 A 
ATOM     18 CL   UNL     1       5.683  15.378  26.097  0.00  0.00    +0.000 Cl
ATOM     19  C   UNL     1       4.305  16.028  23.869  0.00  0.00    +0.000 A 
ATOM     20  C   UNL     1       3.880  15.815  22.555  0.00  0.00    +0.000 A 
ENDBRANCH  13  14
ENDBRANCH   1   9
BRANCH   3  21
ATOM     21  C   UNL     1      -2.686  12.526  21.842  0.00  0.00    +0.000 A 
ATOM     22  C   UNL     1      -2.593  12.149  23.191  0.00  0.00    +0.000 A 
ATOM     23  C   UNL     1      -3.645  12.423  24.071  0.00  0.00    +0.000 A 
ATOM     24  C   UNL     1      -4.794  13.060  23.610  0.00  0.00    +0.000 A 
ATOM     25  C   UNL     1      -4.896  13.432  22.272  0.00  0.00    +0.000 A 
ATOM     26  C   UNL     1      -3.843  13.174  21.389  0.00  0.00    +0.000 A 
ENDBRANCH   3  21
BRANCH   5  27
ATOM     27  C   UNL     1       0.711   9.947  19.541  0.00  0.00    +0.000 A 
ATOM     28  C   UNL     1       1.165   9.796  18.220  0.00  0.00    +0.000 A 
ATOM     29  C   UNL     1       1.963   8.707  17.855  0.00  0.00    +0.000 A 
ATOM     30  C   UNL     1       2.298   7.759  18.812  0.00  0.00    +0.000 A 
ATOM     31  C   UNL     1       1.848   7.879  20.122  0.00  0.00    +0.000 A 
ATOM     32  C   UNL     1       1.054   8.975  20.488  0.00  0.00    +0.000 A 
BRANCH  30  33
ATOM     33  O   UNL     1       3.072   6.682  18.497  0.00  0.00    +0.000 OA
ATOM     34  H   UNL     1       3.904   6.998  18.110  0.00  0.00    +0.000 HD
ENDBRANCH  30  33
ENDBRANCH   5  27
TORSDOF 5
ENDMDL
MODEL 6
REMARK VINA RESULT:      -6.9      3.320      6.246
REMARK  Name = 
REMARK  5 active torsions:
REMARK  status: ('A' for Active; 'I' for Inactive)
REMARK    1  A    between atoms: C_4  and  C_5
REMARK    2  A    between atoms: N_7  and  C_8
REMARK    3  A    between atoms: C_15  and  C_16
REMARK    4  A    between atoms: C_19  and  O_20
REMARK    5  A    between atoms: N_26  and  C_27
REMARK                            x       y       z     vdW  Elec       q    Type
REMARK                         _______ _______ _______ _____ _____    ______ ____
ROOT
ATOM      1  C   UNL     1      -0.103  10.308  20.106  0.00  0.00    +0.000 A 
ATOM      2  C   UNL     1       0.996   9.509  20.289  0.00  0.00    +0.000 A 
ATOM      3  N   UNL     1       1.152   8.786  19.129  0.00  0.00    +0.000 N 
ATOM      4  N   UNL     1       0.139   9.025  18.252  0.00  0.00    +0.000 NA
ATOM      5  C   UNL     1      -0.639   9.950  18.840  0.00  0.00    +0.000 A 
ENDROOT
BRANCH   1   9
ATOM      6  O   UNL     1       1.682  12.432  19.338  0.00  0.00    +0.000 OA
ATOM      7  C   UNL     1       1.171  13.063  20.254  0.00  0.00    +0.000 C 
ATOM      8  C   UNL     1       0.047  12.551  21.089  0.00  0.00    +0.000 C 
ATOM      9  C   UNL     1      -0.501  11.328  21.015  0.00  0.00    +0.000 C 
ATOM     10  S   UNL     1      -0.417  13.731  22.252  0.00  0.00    +0.000 S 
ATOM     11  C   UNL     1       0.862  14.851  21.772  0.00  0.00    +0.000 C 
ATOM     12  S   UNL     1       1.018  16.346  22.501  0.00  0.00    +0.000 S 
ATOM     13  N   UNL     1       1.579  14.309  20.719  0.00  0.00    +0.000 N 
BRANCH  13  14
ATOM     14  C   UNL     1       2.735  14.898  20.144  0.00  0.00    +0.000 A 
ATOM     15  C   UNL     1       3.991  14.698  20.737  0.00  0.00    +0.000 A 
ATOM     16  C   UNL     1       5.120  15.347  20.237  0.00  0.00    +0.000 A 
ATOM     17  C   UNL     1       4.995  16.224  19.164  0.00  0.00    +0.000 A 
ATOM     18 CL   UNL     1       6.378  17.058  18.575  0.00  0.00    +0.000 Cl
ATOM     19  C   UNL     1       3.750  16.442  18.573  0.00  0.00    +0.000 A 
ATOM     20  C   UNL     1       2.623  15.772  19.055  0.00  0.00    +0.000 A 
ENDBRANCH  13  14
ENDBRANCH   1   9
BRANCH   3  21
ATOM     21  C   UNL     1       2.208   7.884  18.813  0.00  0.00    +0.000 A 
ATOM     22  C   UNL     1       3.002   8.074  17.670  0.00  0.00    +0.000 A 
ATOM     23  C   UNL     1       4.030   7.174  17.371  0.00  0.00    +0.000 A 
ATOM     24  C   UNL     1       4.263   6.079  18.199  0.00  0.00    +0.000 A 
ATOM     25  C   UNL     1       3.476   5.881  19.332  0.00  0.00    +0.000 A 
ATOM     26  C   UNL     1       2.456   6.784  19.644  0.00  0.00    +0.000 A 
ENDBRANCH   3  21
BRANCH   5  27
ATOM     27  C   UNL     1      -1.839  10.473  18.180  0.00  0.00    +0.000 A 
ATOM     28  C   UNL     1      -2.178  10.052  16.882  0.00  0.00    +0.000 A 
ATOM     29  C   UNL     1      -3.333  10.528  16.253  0.00  0.00    +0.000 A 
ATOM     30  C   UNL     1      -4.144  11.438  16.916  0.00  0.00    +0.000 A 
ATOM     31  C   UNL     1      -3.820  11.881  18.194  0.00  0.00    +0.000 A 
ATOM     32  C   UNL     1      -2.666  11.398  18.827  0.00  0.00    +0.000 A 
BRANCH  30  33
ATOM     33  O   UNL     1      -5.276  11.928  16.336  0.00  0.00    +0.000 OA
ATOM     34  H   UNL     1      -5.027  12.622  15.704  0.00  0.00    +0.000 HD
ENDBRANCH  30  33
ENDBRANCH   5  27
TORSDOF 5
ENDMDL
MODEL 7
REMARK VINA RESULT:      -6.8      4.940      8.891
REMARK  Name = 
REMARK  5 active torsions:
REMARK  status: ('A' for Active; 'I' for Inactive)
REMARK    1  A    between atoms: C_4  and  C_5
REMARK    2  A    between atoms: N_7  and  C_8
REMARK    3  A    between atoms: C_15  and  C_16
REMARK    4  A    between atoms: C_19  and  O_20
REMARK    5  A    between atoms: N_26  and  C_27
REMARK                            x       y       z     vdW  Elec       q    Type
REMARK                         _______ _______ _______ _____ _____    ______ ____
ROOT
ATOM      1  C   UNL     1      -0.720  11.475  21.844  0.00  0.00    +0.000 A 
ATOM      2  C   UNL     1      -0.456  10.218  21.364  0.00  0.00    +0.000 A 
ATOM      3  N   UNL     1       0.578  10.351  20.466  0.00  0.00    +0.000 N 
ATOM      4  N   UNL     1       0.917  11.656  20.286  0.00  0.00    +0.000 NA
ATOM      5  C   UNL     1       0.126  12.355  21.118  0.00  0.00    +0.000 A 
ENDROOT
BRANCH   1   9
ATOM      6  O   UNL     1      -2.996  12.489  20.404  0.00  0.00    +0.000 OA
ATOM      7  C   UNL     1      -3.498  12.659  21.507  0.00  0.00    +0.000 C 
ATOM      8  C   UNL     1      -2.845  12.258  22.786  0.00  0.00    +0.000 C 
ATOM      9  C   UNL     1      -1.613  11.741  22.919  0.00  0.00    +0.000 C 
ATOM     10  S   UNL     1      -3.867  12.632  24.119  0.00  0.00    +0.000 S 
ATOM     11  C   UNL     1      -5.091  13.389  23.096  0.00  0.00    +0.000 C 
ATOM     12  S   UNL     1      -6.503  14.001  23.748  0.00  0.00    +0.000 S 
ATOM     13  N   UNL     1      -4.703  13.302  21.770  0.00  0.00    +0.000 N 
BRANCH  13  14
ATOM     14  C   UNL     1      -5.405  13.889  20.685  0.00  0.00    +0.000 A 
ATOM     15  C   UNL     1      -5.288  15.264  20.437  0.00  0.00    +0.000 A 
ATOM     16  C   UNL     1      -6.044  15.869  19.433  0.00  0.00    +0.000 A 
ATOM     17  C   UNL     1      -6.946  15.109  18.694  0.00  0.00    +0.000 A 
ATOM     18 CL   UNL     1      -7.911  15.861  17.487  0.00  0.00    +0.000 Cl
ATOM     19  C   UNL     1      -7.082  13.742  18.939  0.00  0.00    +0.000 A 
ATOM     20  C   UNL     1      -6.305  13.130  19.925  0.00  0.00    +0.000 A 
ENDBRANCH  13  14
ENDBRANCH   1   9
BRANCH   3  21
ATOM     21  C   UNL     1       1.256   9.306  19.774  0.00  0.00    +0.000 A 
ATOM     22  C   UNL     1       1.598   9.440  18.419  0.00  0.00    +0.000 A 
ATOM     23  C   UNL     1       2.256   8.401  17.754  0.00  0.00    +0.000 A 
ATOM     24  C   UNL     1       2.565   7.224  18.430  0.00  0.00    +0.000 A 
ATOM     25  C   UNL     1       2.224   7.081  19.774  0.00  0.00    +0.000 A 
ATOM     26  C   UNL     1       1.578   8.120  20.448  0.00  0.00    +0.000 A 
ENDBRANCH   3  21
BRANCH   5  27
ATOM     27  C   UNL     1       0.215  13.815  21.212  0.00  0.00    +0.000 A 
ATOM     28  C   UNL     1       0.467  14.589  20.066  0.00  0.00    +0.000 A 
ATOM     29  C   UNL     1       0.531  15.983  20.141  0.00  0.00    +0.000 A 
ATOM     30  C   UNL     1       0.356  16.607  21.369  0.00  0.00    +0.000 A 
ATOM     31  C   UNL     1       0.122  15.863  22.519  0.00  0.00    +0.000 A 
ATOM     32  C   UNL     1       0.051  14.464  22.442  0.00  0.00    +0.000 A 
BRANCH  30  33
ATOM     33  O   UNL     1       0.414  17.964  21.485  0.00  0.00    +0.000 OA
ATOM     34  H   UNL     1      -0.319  18.260  22.048  0.00  0.00    +0.000 HD
ENDBRANCH  30  33
ENDBRANCH   5  27
TORSDOF 5
ENDMDL
MODEL 8
REMARK VINA RESULT:      -6.7      5.025      9.062
REMARK  Name = 
REMARK  5 active torsions:
REMARK  status: ('A' for Active; 'I' for Inactive)
REMARK    1  A    between atoms: C_4  and  C_5
REMARK    2  A    between atoms: N_7  and  C_8
REMARK    3  A    between atoms: C_15  and  C_16
REMARK    4  A    between atoms: C_19  and  O_20
REMARK    5  A    between atoms: N_26  and  C_27
REMARK                            x       y       z     vdW  Elec       q    Type
REMARK                         _______ _______ _______ _____ _____    ______ ____
ROOT
ATOM      1  C   UNL     1      -0.932  11.700  22.068  0.00  0.00    +0.000 A 
ATOM      2  C   UNL     1      -0.692  10.467  21.518  0.00  0.00    +0.000 A 
ATOM      3  N   UNL     1       0.371  10.622  20.659  0.00  0.00    +0.000 N 
ATOM      4  N   UNL     1       0.755  11.923  20.570  0.00  0.00    +0.000 NA
ATOM      5  C   UNL     1      -0.038  12.595  21.423  0.00  0.00    +0.000 A 
ENDROOT
BRANCH   1   9
ATOM      6  O   UNL     1      -3.290  12.432  20.590  0.00  0.00    +0.000 OA
ATOM      7  C   UNL     1      -3.808  12.603  21.686  0.00  0.00    +0.000 C 
ATOM      8  C   UNL     1      -3.123  12.321  22.979  0.00  0.00    +0.000 C 
ATOM      9  C   UNL     1      -1.849  11.928  23.132  0.00  0.00    +0.000 C 
ATOM     10  S   UNL     1      -4.179  12.656  24.297  0.00  0.00    +0.000 S 
ATOM     11  C   UNL     1      -5.466  13.249  23.244  0.00  0.00    +0.000 C 
ATOM     12  S   UNL     1      -6.930  13.754  23.871  0.00  0.00    +0.000 S 
ATOM     13  N   UNL     1      -5.068  13.142  21.923  0.00  0.00    +0.000 N 
BRANCH  13  14
ATOM     14  C   UNL     1      -5.820  13.611  20.814  0.00  0.00    +0.000 A 
ATOM     15  C   UNL     1      -6.573  12.710  20.047  0.00  0.00    +0.000 A 
ATOM     16  C   UNL     1      -7.240  13.143  18.901  0.00  0.00    +0.000 A 
ATOM     17  C   UNL     1      -7.131  14.470  18.497  0.00  0.00    +0.000 A 
ATOM     18 CL   UNL     1      -7.917  14.995  17.061  0.00  0.00    +0.000 Cl
ATOM     19  C   UNL     1      -6.375  15.374  19.243  0.00  0.00    +0.000 A 
ATOM     20  C   UNL     1      -5.729  14.949  20.407  0.00  0.00    +0.000 A 
ENDBRANCH  13  14
ENDBRANCH   1   9
BRANCH   3  21
ATOM     21  C   UNL     1       1.037   9.600  19.922  0.00  0.00    +0.000 A 
ATOM     22  C   UNL     1       1.455   8.414  20.547  0.00  0.00    +0.000 A 
ATOM     23  C   UNL     1       2.115   7.427  19.810  0.00  0.00    +0.000 A 
ATOM     24  C   UNL     1       2.372   7.619  18.456  0.00  0.00    +0.000 A 
ATOM     25  C   UNL     1       1.965   8.795  17.829  0.00  0.00    +0.000 A 
ATOM     26  C   UNL     1       1.293   9.782  18.556  0.00  0.00    +0.000 A 
ENDBRANCH   3  21
BRANCH   5  27
ATOM     27  C   UNL     1       0.092  14.043  21.610  0.00  0.00    +0.000 A 
ATOM     28  C   UNL     1       0.701  14.838  20.623  0.00  0.00    +0.000 A 
ATOM     29  C   UNL     1       0.809  16.223  20.782  0.00  0.00    +0.000 A 
ATOM     30  C   UNL     1       0.321  16.814  21.939  0.00  0.00    +0.000 A 
ATOM     31  C   UNL     1      -0.270  16.048  22.937  0.00  0.00    +0.000 A 
ATOM     32  C   UNL     1      -0.385  14.660  22.773  0.00  0.00    +0.000 A 
BRANCH  30  33
ATOM     33  O   UNL     1       0.410  18.161  22.134  0.00  0.00    +0.000 OA
ATOM     34  H   UNL     1      -0.485  18.521  22.237  0.00  0.00    +0.000 HD
ENDBRANCH  30  33
ENDBRANCH   5  27
TORSDOF 5
ENDMDL
MODEL 9
REMARK VINA RESULT:      -6.7      3.287      6.162
REMARK  Name = 
REMARK  5 active torsions:
REMARK  status: ('A' for Active; 'I' for Inactive)
REMARK    1  A    between atoms: C_4  and  C_5
REMARK    2  A    between atoms: N_7  and  C_8
REMARK    3  A    between atoms: C_15  and  C_16
REMARK    4  A    between atoms: C_19  and  O_20
REMARK    5  A    between atoms: N_26  and  C_27
REMARK                            x       y       z     vdW  Elec       q    Type
REMARK                         _______ _______ _______ _____ _____    ______ ____
ROOT
ATOM      1  C   UNL     1       0.059  10.462  19.999  0.00  0.00    +0.000 A 
ATOM      2  C   UNL     1       1.150   9.653  20.187  0.00  0.00    +0.000 A 
ATOM      3  N   UNL     1       1.223   8.832  19.086  0.00  0.00    +0.000 N 
ATOM      4  N   UNL     1       0.167   9.023  18.251  0.00  0.00    +0.000 NA
ATOM      5  C   UNL     1      -0.557  10.013  18.801  0.00  0.00    +0.000 A 
ENDROOT
BRANCH   1   9
ATOM      6  O   UNL     1       2.068  12.357  19.190  0.00  0.00    +0.000 OA
ATOM      7  C   UNL     1       1.594  13.084  20.053  0.00  0.00    +0.000 C 
ATOM      8  C   UNL     1       0.399  12.730  20.871  0.00  0.00    +0.000 C 
ATOM      9  C   UNL     1      -0.265  11.564  20.839  0.00  0.00    +0.000 C 
ATOM     10  S   UNL     1       0.018  14.011  21.954  0.00  0.00    +0.000 S 
ATOM     11  C   UNL     1       1.415  14.973  21.465  0.00  0.00    +0.000 C 
ATOM     12  S   UNL     1       1.695  16.484  22.121  0.00  0.00    +0.000 S 
ATOM     13  N   UNL     1       2.108  14.308  20.468  0.00  0.00    +0.000 N 
BRANCH  13  14
ATOM     14  C   UNL     1       3.334  14.750  19.907  0.00  0.00    +0.000 A 
ATOM     15  C   UNL     1       3.400  15.088  18.547  0.00  0.00    +0.000 A 
ATOM     16  C   UNL     1       4.618  15.433  17.962  0.00  0.00    +0.000 A 
ATOM     17  C   UNL     1       5.782  15.409  18.724  0.00  0.00    +0.000 A 
ATOM     18 CL   UNL     1       7.291  15.792  17.994  0.00  0.00    +0.000 Cl
ATOM     19  C   UNL     1       5.734  15.062  20.074  0.00  0.00    +0.000 A 
ATOM     20  C   UNL     1       4.510  14.743  20.669  0.00  0.00    +0.000 A 
ENDBRANCH  13  14
ENDBRANCH   1   9
BRANCH   3  21
ATOM     21  C   UNL     1       2.242   7.881  18.788  0.00  0.00    +0.000 A 
ATOM     22  C   UNL     1       2.456   6.769  19.617  0.00  0.00    +0.000 A 
ATOM     23  C   UNL     1       3.465   5.850  19.314  0.00  0.00    +0.000 A 
ATOM     24  C   UNL     1       4.271   6.041  18.195  0.00  0.00    +0.000 A 
ATOM     25  C   UNL     1       4.068   7.145  17.370  0.00  0.00    +0.000 A 
ATOM     26  C   UNL     1       3.052   8.061  17.659  0.00  0.00    +0.000 A 
ENDBRANCH   3  21
BRANCH   5  27
ATOM     27  C   UNL     1      -1.783  10.508  18.167  0.00  0.00    +0.000 A 
ATOM     28  C   UNL     1      -2.136  10.088  16.873  0.00  0.00    +0.000 A 
ATOM     29  C   UNL     1      -3.314  10.537  16.269  0.00  0.00    +0.000 A 
ATOM     30  C   UNL     1      -4.136  11.421  16.955  0.00  0.00    +0.000 A 
ATOM     31  C   UNL     1      -3.800  11.863  18.229  0.00  0.00    +0.000 A 
ATOM     32  C   UNL     1      -2.622  11.407  18.837  0.00  0.00    +0.000 A 
BRANCH  30  33
ATOM     33  O   UNL     1      -5.292  11.885  16.400  0.00  0.00    +0.000 OA
ATOM     34  H   UNL     1      -5.148  12.795  16.095  0.00  0.00    +0.000 HD
ENDBRANCH  30  33
ENDBRANCH   5  27
TORSDOF 5
ENDMDL
