MODEL 1
REMARK VINA RESULT:     -10.2      0.000      0.000
REMARK  Name = 
REMARK  6 active torsions:
REMARK  status: ('A' for Active; 'I' for Inactive)
REMARK    1  A    between atoms: C_2  and  C_21
REMARK    2  A    between atoms: N_3  and  C_4
REMARK    3  A    between atoms: C_8  and  O_9
REMARK    4  A    between atoms: O_9  and  C_10
REMARK    5  A    between atoms: C_25  and  O_26
REMARK    6  A    between atoms: O_26  and  C_27
REMARK                            x       y       z     vdW  Elec       q    Type
REMARK                         _______ _______ _______ _____ _____    ______ ____
ROOT
ATOM      1  C   UNL     1       2.538   5.219  20.156  0.00  0.00    +0.000 A 
ATOM      2  C   UNL     1       1.910   4.120  20.745  0.00  0.00    +0.000 A 
ATOM      3  C   UNL     1       2.502   2.861  20.723  0.00  0.00    +0.000 A 
ATOM      4  C   UNL     1       3.762   2.699  20.155  0.00  0.00    +0.000 A 
ATOM      5  C   UNL     1       4.417   3.798  19.594  0.00  0.00    +0.000 A 
ATOM      6  C   UNL     1       3.764   5.035  19.515  0.00  0.00    +0.000 A 
ENDROOT
BRANCH   1   9
ATOM      7  O   UNL     1       2.739   7.307  18.148  0.00  0.00    +0.000 OA
ATOM      8  C   UNL     1       2.161   7.455  19.215  0.00  0.00    +0.000 C 
ATOM      9  N   UNL     1       2.010   6.524  20.216  0.00  0.00    +0.000 N 
ATOM     10  H   UNL     1       1.322   6.713  20.937  0.00  0.00    +0.000 HD
BRANCH   8  11
ATOM     11  C   UNL     1       1.468   8.754  19.409  0.00  0.00    +0.000 A 
ATOM     12  C   UNL     1       1.144   9.613  18.359  0.00  0.00    +0.000 A 
ATOM     13  C   UNL     1       0.482  10.806  18.644  0.00  0.00    +0.000 A 
ATOM     14  C   UNL     1       0.183  11.145  19.969  0.00  0.00    +0.000 A 
ATOM     15  C   UNL     1       0.533  10.296  21.024  0.00  0.00    +0.000 A 
ATOM     16  C   UNL     1       1.123   9.077  20.729  0.00  0.00    +0.000 A 
BRANCH  15  17
ATOM     17  O   UNL     1       0.221  10.731  22.273  0.00  0.00    +0.000 OA
BRANCH  17  18
ATOM     18  C   UNL     1      -0.545   9.891  23.135  0.00  0.00    +0.000 C 
ATOM     19  F   UNL     1      -0.997   8.755  22.566  0.00  0.00    +0.000 F 
ATOM     20  F   UNL     1       0.233   9.533  24.182  0.00  0.00    +0.000 F 
ATOM     21  F   UNL     1      -1.600  10.586  23.614  0.00  0.00    +0.000 F 
ENDBRANCH  17  18
ENDBRANCH  15  17
ENDBRANCH   8  11
ENDBRANCH   1   9
BRANCH   5  22
ATOM     22  O   UNL     1       5.701   3.580  19.145  0.00  0.00    +0.000 OA
BRANCH  22  23
ATOM     23  C   UNL     1       6.341   4.545  18.404  0.00  0.00    +0.000 A 
ATOM     24  C   UNL     1       6.948   5.580  19.131  0.00  0.00    +0.000 A 
ATOM     25  C   UNL     1       7.665   6.613  18.487  0.00  0.00    +0.000 A 
ATOM     26  C   UNL     1       7.791   6.639  17.093  0.00  0.00    +0.000 A 
ATOM     27  C   UNL     1       7.166   5.632  16.398  0.00  0.00    +0.000 A 
ATOM     28  N   UNL     1       7.169   5.381  15.021  0.00  0.00    +0.000 N 
ATOM     29  C   UNL     1       6.446   4.205  14.783  0.00  0.00    +0.000 A 
ATOM     30  O   UNL     1       6.301   3.647  13.712  0.00  0.00    +0.000 OA
ATOM     31  N   UNL     1       5.954   3.782  16.014  0.00  0.00    +0.000 N 
ATOM     32  C   UNL     1       6.437   4.622  17.025  0.00  0.00    +0.000 A 
ATOM     33  H   UNL     1       7.643   5.897  14.310  0.00  0.00    +0.000 HD
ATOM     34  H   UNL     1       5.421   2.931  16.135  0.00  0.00    +0.000 HD
ENDBRANCH  22  23
ENDBRANCH   5  22
TORSDOF 6
ENDMDL
MODEL 2
REMARK VINA RESULT:     -10.1      2.285      3.168
REMARK  Name = 
REMARK  6 active torsions:
REMARK  status: ('A' for Active; 'I' for Inactive)
REMARK    1  A    between atoms: C_2  and  C_21
REMARK    2  A    between atoms: N_3  and  C_4
REMARK    3  A    between atoms: C_8  and  O_9
REMARK    4  A    between atoms: O_9  and  C_10
REMARK    5  A    between atoms: C_25  and  O_26
REMARK    6  A    between atoms: O_26  and  C_27
REMARK                            x       y       z     vdW  Elec       q    Type
REMARK                         _______ _______ _______ _____ _____    ______ ____
ROOT
ATOM      1  C   UNL     1       2.045   5.087  20.525  0.00  0.00    +0.000 A 
ATOM      2  C   UNL     1       1.371   3.889  20.766  0.00  0.00    +0.000 A 
ATOM      3  C   UNL     1       1.936   2.667  20.412  0.00  0.00    +0.000 A 
ATOM      4  C   UNL     1       3.213   2.630  19.860  0.00  0.00    +0.000 A 
ATOM      5  C   UNL     1       3.913   3.820  19.648  0.00  0.00    +0.000 A 
ATOM      6  C   UNL     1       3.290   5.050  19.896  0.00  0.00    +0.000 A 
ENDROOT
BRANCH   1   9
ATOM      7  O   UNL     1       2.326   7.635  19.160  0.00  0.00    +0.000 OA
ATOM      8  C   UNL     1       1.732   7.503  20.220  0.00  0.00    +0.000 C 
ATOM      9  N   UNL     1       1.543   6.340  20.930  0.00  0.00    +0.000 N 
ATOM     10  H   UNL     1       0.847   6.344  21.667  0.00  0.00    +0.000 HD
BRANCH   8  11
ATOM     11  C   UNL     1       1.064   8.719  20.751  0.00  0.00    +0.000 A 
ATOM     12  C   UNL     1       0.769   8.902  22.102  0.00  0.00    +0.000 A 
ATOM     13  C   UNL     1       0.150  10.084  22.503  0.00  0.00    +0.000 A 
ATOM     14  C   UNL     1      -0.199  11.052  21.553  0.00  0.00    +0.000 A 
ATOM     15  C   UNL     1       0.072  10.856  20.195  0.00  0.00    +0.000 A 
ATOM     16  C   UNL     1       0.755   9.711  19.812  0.00  0.00    +0.000 A 
BRANCH  15  17
ATOM     17  O   UNL     1      -0.332  11.843  19.354  0.00  0.00    +0.000 OA
BRANCH  17  18
ATOM     18  C   UNL     1      -1.656  11.814  18.824  0.00  0.00    +0.000 C 
ATOM     19  F   UNL     1      -2.565  12.519  19.528  0.00  0.00    +0.000 F 
ATOM     20  F   UNL     1      -1.626  12.332  17.575  0.00  0.00    +0.000 F 
ATOM     21  F   UNL     1      -2.073  10.531  18.738  0.00  0.00    +0.000 F 
ENDBRANCH  17  18
ENDBRANCH  15  17
ENDBRANCH   8  11
ENDBRANCH   1   9
BRANCH   5  22
ATOM     22  O   UNL     1       5.207   3.694  19.194  0.00  0.00    +0.000 OA
BRANCH  22  23
ATOM     23  C   UNL     1       5.573   4.268  17.999  0.00  0.00    +0.000 A 
ATOM     24  C   UNL     1       4.996   3.715  16.846  0.00  0.00    +0.000 A 
ATOM     25  C   UNL     1       5.266   4.237  15.561  0.00  0.00    +0.000 A 
ATOM     26  C   UNL     1       6.126   5.329  15.397  0.00  0.00    +0.000 A 
ATOM     27  C   UNL     1       6.702   5.838  16.534  0.00  0.00    +0.000 A 
ATOM     28  N   UNL     1       7.548   6.945  16.672  0.00  0.00    +0.000 N 
ATOM     29  C   UNL     1       7.832   7.120  18.033  0.00  0.00    +0.000 A 
ATOM     30  O   UNL     1       8.476   8.025  18.529  0.00  0.00    +0.000 OA
ATOM     31  N   UNL     1       7.204   6.079  18.710  0.00  0.00    +0.000 N 
ATOM     32  C   UNL     1       6.459   5.313  17.804  0.00  0.00    +0.000 A 
ATOM     33  H   UNL     1       7.867   7.560  15.953  0.00  0.00    +0.000 HD
ATOM     34  H   UNL     1       7.219   5.984  19.716  0.00  0.00    +0.000 HD
ENDBRANCH  22  23
ENDBRANCH   5  22
TORSDOF 6
ENDMDL
MODEL 3
REMARK VINA RESULT:     -10.1      1.881      2.382
REMARK  Name = 
REMARK  6 active torsions:
REMARK  status: ('A' for Active; 'I' for Inactive)
REMARK    1  A    between atoms: C_2  and  C_21
REMARK    2  A    between atoms: N_3  and  C_4
REMARK    3  A    between atoms: C_8  and  O_9
REMARK    4  A    between atoms: O_9  and  C_10
REMARK    5  A    between atoms: C_25  and  O_26
REMARK    6  A    between atoms: O_26  and  C_27
REMARK                            x       y       z     vdW  Elec       q    Type
REMARK                         _______ _______ _______ _____ _____    ______ ____
ROOT
ATOM      1  C   UNL     1       2.286   5.031  20.267  0.00  0.00    +0.000 A 
ATOM      2  C   UNL     1       1.535   3.856  20.298  0.00  0.00    +0.000 A 
ATOM      3  C   UNL     1       2.090   2.641  19.906  0.00  0.00    +0.000 A 
ATOM      4  C   UNL     1       3.429   2.583  19.529  0.00  0.00    +0.000 A 
ATOM      5  C   UNL     1       4.202   3.746  19.529  0.00  0.00    +0.000 A 
ATOM      6  C   UNL     1       3.604   4.981  19.810  0.00  0.00    +0.000 A 
ENDROOT
BRANCH   1   9
ATOM      7  O   UNL     1       2.354   7.584  18.885  0.00  0.00    +0.000 OA
ATOM      8  C   UNL     1       1.870   7.436  19.998  0.00  0.00    +0.000 C 
ATOM      9  N   UNL     1       1.787   6.268  20.721  0.00  0.00    +0.000 N 
ATOM     10  H   UNL     1       1.167   6.252  21.522  0.00  0.00    +0.000 HD
BRANCH   8  11
ATOM     11  C   UNL     1       1.219   8.631  20.593  0.00  0.00    +0.000 A 
ATOM     12  C   UNL     1       0.860   8.717  21.938  0.00  0.00    +0.000 A 
ATOM     13  C   UNL     1       0.264   9.886  22.404  0.00  0.00    +0.000 A 
ATOM     14  C   UNL     1       0.002  10.941  21.520  0.00  0.00    +0.000 A 
ATOM     15  C   UNL     1       0.337  10.844  20.166  0.00  0.00    +0.000 A 
ATOM     16  C   UNL     1       0.997   9.708  19.724  0.00  0.00    +0.000 A 
BRANCH  15  17
ATOM     17  O   UNL     1       0.015  11.912  19.390  0.00  0.00    +0.000 OA
BRANCH  17  18
ATOM     18  C   UNL     1      -1.160  11.862  18.583  0.00  0.00    +0.000 C 
ATOM     19  F   UNL     1      -1.381  10.678  17.975  0.00  0.00    +0.000 F 
ATOM     20  F   UNL     1      -2.229  12.113  19.372  0.00  0.00    +0.000 F 
ATOM     21  F   UNL     1      -1.096  12.828  17.641  0.00  0.00    +0.000 F 
ENDBRANCH  17  18
ENDBRANCH  15  17
ENDBRANCH   8  11
ENDBRANCH   1   9
BRANCH   5  22
ATOM     22  O   UNL     1       5.540   3.590  19.243  0.00  0.00    +0.000 OA
BRANCH  22  23
ATOM     23  C   UNL     1       6.198   4.544  18.503  0.00  0.00    +0.000 A 
ATOM     24  C   UNL     1       6.814   5.573  19.230  0.00  0.00    +0.000 A 
ATOM     25  C   UNL     1       7.550   6.594  18.587  0.00  0.00    +0.000 A 
ATOM     26  C   UNL     1       7.685   6.611  17.194  0.00  0.00    +0.000 A 
ATOM     27  C   UNL     1       7.052   5.611  16.499  0.00  0.00    +0.000 A 
ATOM     28  N   UNL     1       7.062   5.353  15.123  0.00  0.00    +0.000 N 
ATOM     29  C   UNL     1       6.324   4.186  14.885  0.00  0.00    +0.000 A 
ATOM     30  O   UNL     1       6.180   3.625  13.815  0.00  0.00    +0.000 OA
ATOM     31  N   UNL     1       5.818   3.775  16.114  0.00  0.00    +0.000 N 
ATOM     32  C   UNL     1       6.305   4.613  17.125  0.00  0.00    +0.000 A 
ATOM     33  H   UNL     1       7.547   5.860  14.413  0.00  0.00    +0.000 HD
ATOM     34  H   UNL     1       5.273   2.932  16.234  0.00  0.00    +0.000 HD
ENDBRANCH  22  23
ENDBRANCH   5  22
TORSDOF 6
ENDMDL
MODEL 4
REMARK VINA RESULT:      -9.9      2.530      3.293
REMARK  Name = 
REMARK  6 active torsions:
REMARK  status: ('A' for Active; 'I' for Inactive)
REMARK    1  A    between atoms: C_2  and  C_21
REMARK    2  A    between atoms: N_3  and  C_4
REMARK    3  A    between atoms: C_8  and  O_9
REMARK    4  A    between atoms: O_9  and  C_10
REMARK    5  A    between atoms: C_25  and  O_26
REMARK    6  A    between atoms: O_26  and  C_27
REMARK                            x       y       z     vdW  Elec       q    Type
REMARK                         _______ _______ _______ _____ _____    ______ ____
ROOT
ATOM      1  C   UNL     1       2.051   5.148  20.529  0.00  0.00    +0.000 A 
ATOM      2  C   UNL     1       1.345   3.965  20.754  0.00  0.00    +0.000 A 
ATOM      3  C   UNL     1       1.878   2.733  20.385  0.00  0.00    +0.000 A 
ATOM      4  C   UNL     1       3.154   2.669  19.833  0.00  0.00    +0.000 A 
ATOM      5  C   UNL     1       3.885   3.842  19.636  0.00  0.00    +0.000 A 
ATOM      6  C   UNL     1       3.295   5.085  19.900  0.00  0.00    +0.000 A 
ENDROOT
BRANCH   1   9
ATOM      7  O   UNL     1       2.227   7.671  19.102  0.00  0.00    +0.000 OA
ATOM      8  C   UNL     1       1.716   7.559  20.207  0.00  0.00    +0.000 C 
ATOM      9  N   UNL     1       1.582   6.408  20.950  0.00  0.00    +0.000 N 
ATOM     10  H   UNL     1       0.945   6.426  21.738  0.00  0.00    +0.000 HD
BRANCH   8  11
ATOM     11  C   UNL     1       1.091   8.784  20.767  0.00  0.00    +0.000 A 
ATOM     12  C   UNL     1       0.645   8.883  22.085  0.00  0.00    +0.000 A 
ATOM     13  C   UNL     1       0.082  10.081  22.519  0.00  0.00    +0.000 A 
ATOM     14  C   UNL     1      -0.060  11.153  21.629  0.00  0.00    +0.000 A 
ATOM     15  C   UNL     1       0.362  11.045  20.300  0.00  0.00    +0.000 A 
ATOM     16  C   UNL     1       0.989   9.876  19.895  0.00  0.00    +0.000 A 
BRANCH  15  17
ATOM     17  O   UNL     1       0.153  12.133  19.514  0.00  0.00    +0.000 OA
BRANCH  17  18
ATOM     18  C   UNL     1       1.258  12.966  19.164  0.00  0.00    +0.000 C 
ATOM     19  F   UNL     1       1.829  12.682  17.976  0.00  0.00    +0.000 F 
ATOM     20  F   UNL     1       0.824  14.245  19.106  0.00  0.00    +0.000 F 
ATOM     21  F   UNL     1       2.201  12.884  20.129  0.00  0.00    +0.000 F 
ENDBRANCH  17  18
ENDBRANCH  15  17
ENDBRANCH   8  11
ENDBRANCH   1   9
BRANCH   5  22
ATOM     22  O   UNL     1       5.176   3.688  19.182  0.00  0.00    +0.000 OA
BRANCH  22  23
ATOM     23  C   UNL     1       5.558   4.266  17.994  0.00  0.00    +0.000 A 
ATOM     24  C   UNL     1       4.986   3.725  16.832  0.00  0.00    +0.000 A 
ATOM     25  C   UNL     1       5.272   4.253  15.553  0.00  0.00    +0.000 A 
ATOM     26  C   UNL     1       6.144   5.338  15.404  0.00  0.00    +0.000 A 
ATOM     27  C   UNL     1       6.714   5.834  16.549  0.00  0.00    +0.000 A 
ATOM     28  N   UNL     1       7.568   6.933  16.702  0.00  0.00    +0.000 N 
ATOM     29  C   UNL     1       7.842   7.097  18.066  0.00  0.00    +0.000 A 
ATOM     30  O   UNL     1       8.490   7.993  18.573  0.00  0.00    +0.000 OA
ATOM     31  N   UNL     1       7.199   6.057  18.730  0.00  0.00    +0.000 N 
ATOM     32  C   UNL     1       6.455   5.304  17.813  0.00  0.00    +0.000 A 
ATOM     33  H   UNL     1       7.900   7.549  15.989  0.00  0.00    +0.000 HD
ATOM     34  H   UNL     1       7.203   5.956  19.737  0.00  0.00    +0.000 HD
ENDBRANCH  22  23
ENDBRANCH   5  22
TORSDOF 6
ENDMDL
MODEL 5
REMARK VINA RESULT:      -9.8      1.570      2.283
REMARK  Name = 
REMARK  6 active torsions:
REMARK  status: ('A' for Active; 'I' for Inactive)
REMARK    1  A    between atoms: C_2  and  C_21
REMARK    2  A    between atoms: N_3  and  C_4
REMARK    3  A    between atoms: C_8  and  O_9
REMARK    4  A    between atoms: O_9  and  C_10
REMARK    5  A    between atoms: C_25  and  O_26
REMARK    6  A    between atoms: O_26  and  C_27
REMARK                            x       y       z     vdW  Elec       q    Type
REMARK                         _______ _______ _______ _____ _____    ______ ____
ROOT
ATOM      1  C   UNL     1       2.305   5.899  20.186  0.00  0.00    +0.000 A 
ATOM      2  C   UNL     1       1.534   4.936  20.839  0.00  0.00    +0.000 A 
ATOM      3  C   UNL     1       1.903   3.594  20.824  0.00  0.00    +0.000 A 
ATOM      4  C   UNL     1       3.083   3.208  20.196  0.00  0.00    +0.000 A 
ATOM      5  C   UNL     1       3.882   4.167  19.570  0.00  0.00    +0.000 A 
ATOM      6  C   UNL     1       3.444   5.496  19.489  0.00  0.00    +0.000 A 
ENDROOT
BRANCH   1   9
ATOM      7  O   UNL     1       1.943   7.715  17.950  0.00  0.00    +0.000 OA
ATOM      8  C   UNL     1       1.861   8.064  19.118  0.00  0.00    +0.000 C 
ATOM      9  N   UNL     1       2.009   7.276  20.236  0.00  0.00    +0.000 N 
ATOM     10  H   UNL     1       1.695   7.651  21.124  0.00  0.00    +0.000 HD
BRANCH   8  11
ATOM     11  C   UNL     1       1.469   9.478  19.353  0.00  0.00    +0.000 A 
ATOM     12  C   UNL     1       1.497  10.455  18.359  0.00  0.00    +0.000 A 
ATOM     13  C   UNL     1       1.098  11.752  18.676  0.00  0.00    +0.000 A 
ATOM     14  C   UNL     1       0.708  12.067  19.984  0.00  0.00    +0.000 A 
ATOM     15  C   UNL     1       0.705  11.093  20.987  0.00  0.00    +0.000 A 
ATOM     16  C   UNL     1       1.032   9.788  20.648  0.00  0.00    +0.000 A 
BRANCH  15  17
ATOM     17  O   UNL     1       0.336  11.509  22.226  0.00  0.00    +0.000 OA
BRANCH  17  18
ATOM     18  C   UNL     1      -1.015  11.333  22.650  0.00  0.00    +0.000 C 
ATOM     19  F   UNL     1      -1.269  10.159  23.265  0.00  0.00    +0.000 F 
ATOM     20  F   UNL     1      -1.318  12.318  23.525  0.00  0.00    +0.000 F 
ATOM     21  F   UNL     1      -1.836  11.450  21.583  0.00  0.00    +0.000 F 
ENDBRANCH  17  18
ENDBRANCH  15  17
ENDBRANCH   8  11
ENDBRANCH   1   9
BRANCH   5  22
ATOM     22  O   UNL     1       5.083   3.725  19.061  0.00  0.00    +0.000 OA
BRANCH  22  23
ATOM     23  C   UNL     1       5.568   4.256  17.888  0.00  0.00    +0.000 A 
ATOM     24  C   UNL     1       5.097   3.670  16.704  0.00  0.00    +0.000 A 
ATOM     25  C   UNL     1       5.494   4.147  15.435  0.00  0.00    +0.000 A 
ATOM     26  C   UNL     1       6.378   5.226  15.319  0.00  0.00    +0.000 A 
ATOM     27  C   UNL     1       6.848   5.767  16.489  0.00  0.00    +0.000 A 
ATOM     28  N   UNL     1       7.690   6.871  16.672  0.00  0.00    +0.000 N 
ATOM     29  C   UNL     1       7.844   7.089  18.047  0.00  0.00    +0.000 A 
ATOM     30  O   UNL     1       8.449   8.004  18.574  0.00  0.00    +0.000 OA
ATOM     31  N   UNL     1       7.143   6.076  18.694  0.00  0.00    +0.000 N 
ATOM     32  C   UNL     1       6.480   5.287  17.746  0.00  0.00    +0.000 A 
ATOM     33  H   UNL     1       8.083   7.460  15.968  0.00  0.00    +0.000 HD
ATOM     34  H   UNL     1       7.061   6.013  19.700  0.00  0.00    +0.000 HD
ENDBRANCH  22  23
ENDBRANCH   5  22
TORSDOF 6
ENDMDL
MODEL 6
REMARK VINA RESULT:      -9.8      2.135      2.556
REMARK  Name = 
REMARK  6 active torsions:
REMARK  status: ('A' for Active; 'I' for Inactive)
REMARK    1  A    between atoms: C_2  and  C_21
REMARK    2  A    between atoms: N_3  and  C_4
REMARK    3  A    between atoms: C_8  and  O_9
REMARK    4  A    between atoms: O_9  and  C_10
REMARK    5  A    between atoms: C_25  and  O_26
REMARK    6  A    between atoms: O_26  and  C_27
REMARK                            x       y       z     vdW  Elec       q    Type
REMARK                         _______ _______ _______ _____ _____    ______ ____
ROOT
ATOM      1  C   UNL     1       2.220   5.155  20.367  0.00  0.00    +0.000 A 
ATOM      2  C   UNL     1       1.467   3.982  20.433  0.00  0.00    +0.000 A 
ATOM      3  C   UNL     1       2.009   2.761  20.042  0.00  0.00    +0.000 A 
ATOM      4  C   UNL     1       3.336   2.695  19.628  0.00  0.00    +0.000 A 
ATOM      5  C   UNL     1       4.111   3.856  19.592  0.00  0.00    +0.000 A 
ATOM      6  C   UNL     1       3.524   5.097  19.874  0.00  0.00    +0.000 A 
ENDROOT
BRANCH   1   9
ATOM      7  O   UNL     1       2.206   7.679  18.931  0.00  0.00    +0.000 OA
ATOM      8  C   UNL     1       1.777   7.552  20.069  0.00  0.00    +0.000 C 
ATOM      9  N   UNL     1       1.735   6.399  20.819  0.00  0.00    +0.000 N 
ATOM     10  H   UNL     1       1.154   6.396  21.649  0.00  0.00    +0.000 HD
BRANCH   8  11
ATOM     11  C   UNL     1       1.148   8.755  20.671  0.00  0.00    +0.000 A 
ATOM     12  C   UNL     1       0.755   8.827  22.007  0.00  0.00    +0.000 A 
ATOM     13  C   UNL     1       0.183  10.006  22.480  0.00  0.00    +0.000 A 
ATOM     14  C   UNL     1      -0.020  11.086  21.611  0.00  0.00    +0.000 A 
ATOM     15  C   UNL     1       0.349  11.004  20.264  0.00  0.00    +0.000 A 
ATOM     16  C   UNL     1       0.985   9.855  19.818  0.00  0.00    +0.000 A 
BRANCH  15  17
ATOM     17  O   UNL     1       0.083  12.096  19.502  0.00  0.00    +0.000 OA
BRANCH  17  18
ATOM     18  C   UNL     1       1.103  13.073  19.299  0.00  0.00    +0.000 C 
ATOM     19  F   UNL     1       2.273  12.807  19.914  0.00  0.00    +0.000 F 
ATOM     20  F   UNL     1       1.355  13.155  17.973  0.00  0.00    +0.000 F 
ATOM     21  F   UNL     1       0.656  14.278  19.718  0.00  0.00    +0.000 F 
ENDBRANCH  17  18
ENDBRANCH  15  17
ENDBRANCH   8  11
ENDBRANCH   1   9
BRANCH   5  22
ATOM     22  O   UNL     1       5.441   3.694  19.271  0.00  0.00    +0.000 OA
BRANCH  22  23
ATOM     23  C   UNL     1       6.083   4.643  18.510  0.00  0.00    +0.000 A 
ATOM     24  C   UNL     1       6.893   5.550  19.209  0.00  0.00    +0.000 A 
ATOM     25  C   UNL     1       7.631   6.551  18.537  0.00  0.00    +0.000 A 
ATOM     26  C   UNL     1       7.574   6.670  17.144  0.00  0.00    +0.000 A 
ATOM     27  C   UNL     1       6.755   5.791  16.482  0.00  0.00    +0.000 A 
ATOM     28  N   UNL     1       6.549   5.647  15.104  0.00  0.00    +0.000 N 
ATOM     29  C   UNL     1       5.672   4.575  14.896  0.00  0.00    +0.000 A 
ATOM     30  O   UNL     1       5.326   4.118  13.823  0.00  0.00    +0.000 OA
ATOM     31  N   UNL     1       5.302   4.110  16.154  0.00  0.00    +0.000 N 
ATOM     32  C   UNL     1       6.004   4.815  17.139  0.00  0.00    +0.000 A 
ATOM     33  H   UNL     1       6.979   6.165  14.368  0.00  0.00    +0.000 HD
ATOM     34  H   UNL     1       4.696   3.312  16.295  0.00  0.00    +0.000 HD
ENDBRANCH  22  23
ENDBRANCH   5  22
TORSDOF 6
ENDMDL
MODEL 7
REMARK VINA RESULT:      -9.7      4.607      9.227
REMARK  Name = 
REMARK  6 active torsions:
REMARK  status: ('A' for Active; 'I' for Inactive)
REMARK    1  A    between atoms: C_2  and  C_21
REMARK    2  A    between atoms: N_3  and  C_4
REMARK    3  A    between atoms: C_8  and  O_9
REMARK    4  A    between atoms: O_9  and  C_10
REMARK    5  A    between atoms: C_25  and  O_26
REMARK    6  A    between atoms: O_26  and  C_27
REMARK                            x       y       z     vdW  Elec       q    Type
REMARK                         _______ _______ _______ _____ _____    ______ ____
ROOT
ATOM      1  C   UNL     1       1.358   8.717  20.188  0.00  0.00    +0.000 A 
ATOM      2  C   UNL     1       0.917   8.601  21.507  0.00  0.00    +0.000 A 
ATOM      3  C   UNL     1       0.104   9.576  22.078  0.00  0.00    +0.000 A 
ATOM      4  C   UNL     1      -0.321  10.657  21.312  0.00  0.00    +0.000 A 
ATOM      5  C   UNL     1       0.084  10.767  19.981  0.00  0.00    +0.000 A 
ATOM      6  C   UNL     1       0.996   9.845  19.450  0.00  0.00    +0.000 A 
ENDROOT
BRANCH   1   9
ATOM      7  O   UNL     1       1.448   5.882  20.808  0.00  0.00    +0.000 OA
ATOM      8  C   UNL     1       2.107   6.396  19.915  0.00  0.00    +0.000 C 
ATOM      9  N   UNL     1       2.121   7.721  19.547  0.00  0.00    +0.000 N 
ATOM     10  H   UNL     1       2.540   7.959  18.655  0.00  0.00    +0.000 HD
BRANCH   8  11
ATOM     11  C   UNL     1       2.911   5.468  19.079  0.00  0.00    +0.000 A 
ATOM     12  C   UNL     1       2.373   4.721  18.031  0.00  0.00    +0.000 A 
ATOM     13  C   UNL     1       3.212   3.887  17.296  0.00  0.00    +0.000 A 
ATOM     14  C   UNL     1       4.567   3.780  17.633  0.00  0.00    +0.000 A 
ATOM     15  C   UNL     1       5.101   4.508  18.702  0.00  0.00    +0.000 A 
ATOM     16  C   UNL     1       4.277   5.393  19.381  0.00  0.00    +0.000 A 
BRANCH  15  17
ATOM     17  O   UNL     1       6.420   4.312  18.962  0.00  0.00    +0.000 OA
BRANCH  17  18
ATOM     18  C   UNL     1       7.396   5.026  18.205  0.00  0.00    +0.000 C 
ATOM     19  F   UNL     1       8.157   4.261  17.395  0.00  0.00    +0.000 F 
ATOM     20  F   UNL     1       6.756   5.924  17.424  0.00  0.00    +0.000 F 
ATOM     21  F   UNL     1       8.207   5.703  19.048  0.00  0.00    +0.000 F 
ENDBRANCH  17  18
ENDBRANCH  15  17
ENDBRANCH   8  11
ENDBRANCH   1   9
BRANCH   5  22
ATOM     22  O   UNL     1      -0.459  11.808  19.260  0.00  0.00    +0.000 OA
BRANCH  22  23
ATOM     23  C   UNL     1      -1.802  11.807  18.963  0.00  0.00    +0.000 A 
ATOM     24  C   UNL     1      -2.652  12.342  19.944  0.00  0.00    +0.000 A 
ATOM     25  C   UNL     1      -4.048  12.428  19.743  0.00  0.00    +0.000 A 
ATOM     26  C   UNL     1      -4.631  11.978  18.553  0.00  0.00    +0.000 A 
ATOM     27  C   UNL     1      -3.786  11.434  17.619  0.00  0.00    +0.000 A 
ATOM     28  N   UNL     1      -4.082  10.960  16.335  0.00  0.00    +0.000 N 
ATOM     29  C   UNL     1      -2.888  10.557  15.724  0.00  0.00    +0.000 A 
ATOM     30  O   UNL     1      -2.755  10.160  14.582  0.00  0.00    +0.000 OA
ATOM     31  N   UNL     1      -1.878  10.732  16.665  0.00  0.00    +0.000 N 
ATOM     32  C   UNL     1      -2.410  11.323  17.818  0.00  0.00    +0.000 A 
ATOM     33  H   UNL     1      -4.971  10.950  15.881  0.00  0.00    +0.000 HD
ATOM     34  H   UNL     1      -0.903  10.548  16.472  0.00  0.00    +0.000 HD
ENDBRANCH  22  23
ENDBRANCH   5  22
TORSDOF 6
ENDMDL
MODEL 8
REMARK VINA RESULT:      -9.6      4.712      9.744
REMARK  Name = 
REMARK  6 active torsions:
REMARK  status: ('A' for Active; 'I' for Inactive)
REMARK    1  A    between atoms: C_2  and  C_21
REMARK    2  A    between atoms: N_3  and  C_4
REMARK    3  A    between atoms: C_8  and  O_9
REMARK    4  A    between atoms: O_9  and  C_10
REMARK    5  A    between atoms: C_25  and  O_26
REMARK    6  A    between atoms: O_26  and  C_27
REMARK                            x       y       z     vdW  Elec       q    Type
REMARK                         _______ _______ _______ _____ _____    ______ ____
ROOT
ATOM      1  C   UNL     1       1.444   8.566  20.195  0.00  0.00    +0.000 A 
ATOM      2  C   UNL     1       1.078   8.500  21.540  0.00  0.00    +0.000 A 
ATOM      3  C   UNL     1       0.261   9.473  22.108  0.00  0.00    +0.000 A 
ATOM      4  C   UNL     1      -0.244  10.500  21.316  0.00  0.00    +0.000 A 
ATOM      5  C   UNL     1       0.085  10.558  19.960  0.00  0.00    +0.000 A 
ATOM      6  C   UNL     1       1.001   9.643  19.425  0.00  0.00    +0.000 A 
ENDROOT
BRANCH   1   9
ATOM      7  O   UNL     1       1.403   5.709  20.713  0.00  0.00    +0.000 OA
ATOM      8  C   UNL     1       2.129   6.230  19.879  0.00  0.00    +0.000 C 
ATOM      9  N   UNL     1       2.209   7.567  19.561  0.00  0.00    +0.000 N 
ATOM     10  H   UNL     1       2.686   7.821  18.704  0.00  0.00    +0.000 HD
BRANCH   8  11
ATOM     11  C   UNL     1       2.948   5.305  19.054  0.00  0.00    +0.000 A 
ATOM     12  C   UNL     1       2.418   4.517  18.032  0.00  0.00    +0.000 A 
ATOM     13  C   UNL     1       3.271   3.689  17.307  0.00  0.00    +0.000 A 
ATOM     14  C   UNL     1       4.633   3.628  17.629  0.00  0.00    +0.000 A 
ATOM     15  C   UNL     1       5.159   4.397  18.672  0.00  0.00    +0.000 A 
ATOM     16  C   UNL     1       4.320   5.275  19.340  0.00  0.00    +0.000 A 
BRANCH  15  17
ATOM     17  O   UNL     1       6.487   4.244  18.920  0.00  0.00    +0.000 OA
BRANCH  17  18
ATOM     18  C   UNL     1       7.428   5.044  18.205  0.00  0.00    +0.000 C 
ATOM     19  F   UNL     1       6.884   5.982  17.404  0.00  0.00    +0.000 F 
ATOM     20  F   UNL     1       8.208   5.687  19.104  0.00  0.00    +0.000 F 
ATOM     21  F   UNL     1       8.219   4.241  17.459  0.00  0.00    +0.000 F 
ENDBRANCH  17  18
ENDBRANCH  15  17
ENDBRANCH   8  11
ENDBRANCH   1   9
BRANCH   5  22
ATOM     22  O   UNL     1      -0.535  11.541  19.222  0.00  0.00    +0.000 OA
BRANCH  22  23
ATOM     23  C   UNL     1      -1.757  11.295  18.642  0.00  0.00    +0.000 A 
ATOM     24  C   UNL     1      -1.765  10.369  17.588  0.00  0.00    +0.000 A 
ATOM     25  C   UNL     1      -2.963  10.006  16.933  0.00  0.00    +0.000 A 
ATOM     26  C   UNL     1      -4.188  10.565  17.315  0.00  0.00    +0.000 A 
ATOM     27  C   UNL     1      -4.155  11.490  18.330  0.00  0.00    +0.000 A 
ATOM     28  N   UNL     1      -5.219  12.160  18.944  0.00  0.00    +0.000 N 
ATOM     29  C   UNL     1      -4.706  12.960  19.973  0.00  0.00    +0.000 A 
ATOM     30  O   UNL     1      -5.347  13.626  20.763  0.00  0.00    +0.000 OA
ATOM     31  N   UNL     1      -3.322  12.817  19.938  0.00  0.00    +0.000 N 
ATOM     32  C   UNL     1      -2.973  11.871  18.966  0.00  0.00    +0.000 A 
ATOM     33  H   UNL     1      -6.193  12.065  18.746  0.00  0.00    +0.000 HD
ATOM     34  H   UNL     1      -2.702  13.263  20.601  0.00  0.00    +0.000 HD
ENDBRANCH  22  23
ENDBRANCH   5  22
TORSDOF 6
ENDMDL
MODEL 9
REMARK VINA RESULT:      -9.6      5.672      8.368
REMARK  Name = 
REMARK  6 active torsions:
REMARK  status: ('A' for Active; 'I' for Inactive)
REMARK    1  A    between atoms: C_2  and  C_21
REMARK    2  A    between atoms: N_3  and  C_4
REMARK    3  A    between atoms: C_8  and  O_9
REMARK    4  A    between atoms: O_9  and  C_10
REMARK    5  A    between atoms: C_25  and  O_26
REMARK    6  A    between atoms: O_26  and  C_27
REMARK                            x       y       z     vdW  Elec       q    Type
REMARK                         _______ _______ _______ _____ _____    ______ ____
ROOT
ATOM      1  C   UNL     1       7.723   6.806  18.162  0.00  0.00    +0.000 A 
ATOM      2  C   UNL     1       7.326   6.697  16.828  0.00  0.00    +0.000 A 
ATOM      3  C   UNL     1       6.508   5.652  16.408  0.00  0.00    +0.000 A 
ATOM      4  C   UNL     1       6.033   4.730  17.336  0.00  0.00    +0.000 A 
ATOM      5  C   UNL     1       6.393   4.848  18.680  0.00  0.00    +0.000 A 
ATOM      6  C   UNL     1       7.311   5.832  19.073  0.00  0.00    +0.000 A 
ENDROOT
BRANCH   1   9
ATOM      7  O   UNL     1       7.503   9.605  17.424  0.00  0.00    +0.000 OA
ATOM      8  C   UNL     1       8.321   9.185  18.230  0.00  0.00    +0.000 C 
ATOM      9  N   UNL     1       8.490   7.884  18.644  0.00  0.00    +0.000 N 
ATOM     10  H   UNL     1       9.049   7.721  19.474  0.00  0.00    +0.000 HD
BRANCH   8  11
ATOM     11  C   UNL     1       9.161  10.209  18.904  0.00  0.00    +0.000 A 
ATOM     12  C   UNL     1       9.169  10.405  20.285  0.00  0.00    +0.000 A 
ATOM     13  C   UNL     1      10.002  11.383  20.822  0.00  0.00    +0.000 A 
ATOM     14  C   UNL     1      10.790  12.176  19.979  0.00  0.00    +0.000 A 
ATOM     15  C   UNL     1      10.762  11.998  18.592  0.00  0.00    +0.000 A 
ATOM     16  C   UNL     1       9.988  10.973  18.069  0.00  0.00    +0.000 A 
BRANCH  15  17
ATOM     17  O   UNL     1      11.543  12.837  17.863  0.00  0.00    +0.000 OA
BRANCH  17  18
ATOM     18  C   UNL     1      11.043  14.124  17.503  0.00  0.00    +0.000 C 
ATOM     19  F   UNL     1       9.714  14.283  17.673  0.00  0.00    +0.000 F 
ATOM     20  F   UNL     1      11.660  15.050  18.271  0.00  0.00    +0.000 F 
ATOM     21  F   UNL     1      11.349  14.376  16.211  0.00  0.00    +0.000 F 
ENDBRANCH  17  18
ENDBRANCH  15  17
ENDBRANCH   8  11
ENDBRANCH   1   9
BRANCH   5  22
ATOM     22  O   UNL     1       5.802   3.961  19.551  0.00  0.00    +0.000 OA
BRANCH  22  23
ATOM     23  C   UNL     1       4.480   3.618  19.389  0.00  0.00    +0.000 A 
ATOM     24  C   UNL     1       4.233   2.339  18.869  0.00  0.00    +0.000 A 
ATOM     25  C   UNL     1       2.917   1.857  18.687  0.00  0.00    +0.000 A 
ATOM     26  C   UNL     1       1.811   2.648  19.019  0.00  0.00    +0.000 A 
ATOM     27  C   UNL     1       2.074   3.907  19.500  0.00  0.00    +0.000 A 
ATOM     28  N   UNL     1       1.177   4.879  19.955  0.00  0.00    +0.000 N 
ATOM     29  C   UNL     1       1.910   5.983  20.410  0.00  0.00    +0.000 A 
ATOM     30  O   UNL     1       1.464   6.983  20.939  0.00  0.00    +0.000 OA
ATOM     31  N   UNL     1       3.251   5.697  20.170  0.00  0.00    +0.000 N 
ATOM     32  C   UNL     1       3.370   4.399  19.660  0.00  0.00    +0.000 A 
ATOM     33  H   UNL     1       0.182   4.810  20.013  0.00  0.00    +0.000 HD
ATOM     34  H   UNL     1       4.006   6.316  20.436  0.00  0.00    +0.000 HD
ENDBRANCH  22  23
ENDBRANCH   5  22
TORSDOF 6
ENDMDL
