MODEL 1
REMARK VINA RESULT:      -6.8      0.000      0.000
REMARK  Name = 
REMARK  4 active torsions:
REMARK  status: ('A' for Active; 'I' for Inactive)
REMARK    1  A    between atoms: C_2  and  O_3
REMARK    2  A    between atoms: C_2  and  C_4
REMARK    3  A    between atoms: C_4  and  N_5
REMARK    4  A    between atoms: N_8  and  C_9
REMARK                            x       y       z     vdW  Elec       q    Type
REMARK                         _______ _______ _______ _____ _____    ______ ____
ROOT
ATOM      1  N   UNL     1       6.146   4.208  18.497  0.00  0.00    +0.000 N 
ATOM      2  C   UNL     1       5.005   4.951  18.348  0.00  0.00    +0.000 C 
ATOM      3  O   UNL     1       5.016   6.120  17.996  0.00  0.00    +0.000 OA
ATOM      4  N   UNL     1       3.873   4.235  18.622  0.00  0.00    +0.000 N 
ATOM      5  H   UNL     1       6.072   3.198  18.463  0.00  0.00    +0.000 HD
ATOM      6  H   UNL     1       3.999   3.427  19.213  0.00  0.00    +0.000 HD
ENDROOT
BRANCH   4   7
ATOM      7  C   UNL     1       2.549   4.855  18.585  0.00  0.00    +0.000 C 
ATOM      8  C   UNL     1       1.524   3.900  17.963  0.00  0.00    +0.000 C 
ATOM      9  C   UNL     1       1.187   2.723  18.878  0.00  0.00    +0.000 C 
ATOM     10  C   UNL     1       0.736   3.193  20.257  0.00  0.00    +0.000 C 
ATOM     11  C   UNL     1       1.746   4.143  20.897  0.00  0.00    +0.000 C 
ATOM     12  C   UNL     1       2.089   5.313  19.977  0.00  0.00    +0.000 C 
ENDBRANCH   4   7
BRANCH   1  13
ATOM     13  C   UNL     1       7.413   4.796  18.104  0.00  0.00    +0.000 C 
BRANCH  13  15
ATOM     14  O   UNL     1       8.231   7.006  18.723  0.00  0.00    +0.000 OA
ATOM     15  C   UNL     1       7.914   5.874  19.055  0.00  0.00    +0.000 C 
BRANCH  15  16
ATOM     16  O   UNL     1       7.949   5.457  20.345  0.00  0.00    +0.000 OA
ATOM     17  H   UNL     1       8.744   4.937  20.577  0.00  0.00    +0.000 HD
ENDBRANCH  15  16
ENDBRANCH  13  15
ENDBRANCH   1  13
TORSDOF 4
ENDMDL
MODEL 2
REMARK VINA RESULT:      -6.7      1.611      2.083
REMARK  Name = 
REMARK  4 active torsions:
REMARK  status: ('A' for Active; 'I' for Inactive)
REMARK    1  A    between atoms: C_2  and  O_3
REMARK    2  A    between atoms: C_2  and  C_4
REMARK    3  A    between atoms: C_4  and  N_5
REMARK    4  A    between atoms: N_8  and  C_9
REMARK                            x       y       z     vdW  Elec       q    Type
REMARK                         _______ _______ _______ _____ _____    ______ ____
ROOT
ATOM      1  N   UNL     1       6.293   4.160  18.473  0.00  0.00    +0.000 N 
ATOM      2  C   UNL     1       5.184   4.944  18.649  0.00  0.00    +0.000 C 
ATOM      3  O   UNL     1       5.106   6.087  18.226  0.00  0.00    +0.000 OA
ATOM      4  N   UNL     1       4.188   4.300  19.329  0.00  0.00    +0.000 N 
ATOM      5  H   UNL     1       6.189   3.154  18.540  0.00  0.00    +0.000 HD
ATOM      6  H   UNL     1       4.482   3.526  19.906  0.00  0.00    +0.000 HD
ENDROOT
BRANCH   4   7
ATOM      7  C   UNL     1       2.941   4.978  19.680  0.00  0.00    +0.000 C 
ATOM      8  C   UNL     1       1.927   4.866  18.535  0.00  0.00    +0.000 C 
ATOM      9  C   UNL     1       1.370   3.451  18.381  0.00  0.00    +0.000 C 
ATOM     10  C   UNL     1       0.783   2.931  19.689  0.00  0.00    +0.000 C 
ATOM     11  C   UNL     1       1.779   3.030  20.842  0.00  0.00    +0.000 C 
ATOM     12  C   UNL     1       2.343   4.442  20.989  0.00  0.00    +0.000 C 
ENDBRANCH   4   7
BRANCH   1  13
ATOM     13  C   UNL     1       7.375   4.662  17.645  0.00  0.00    +0.000 C 
BRANCH  13  15
ATOM     14  O   UNL     1       7.542   5.333  15.309  0.00  0.00    +0.000 OA
ATOM     15  C   UNL     1       7.102   4.564  16.151  0.00  0.00    +0.000 C 
BRANCH  15  16
ATOM     16  O   UNL     1       6.328   3.498  15.829  0.00  0.00    +0.000 OA
ATOM     17  H   UNL     1       6.181   2.872  16.566  0.00  0.00    +0.000 HD
ENDBRANCH  15  16
ENDBRANCH  13  15
ENDBRANCH   1  13
TORSDOF 4
ENDMDL
MODEL 3
REMARK VINA RESULT:      -6.5      1.406      1.695
REMARK  Name = 
REMARK  4 active torsions:
REMARK  status: ('A' for Active; 'I' for Inactive)
REMARK    1  A    between atoms: C_2  and  O_3
REMARK    2  A    between atoms: C_2  and  C_4
REMARK    3  A    between atoms: C_4  and  N_5
REMARK    4  A    between atoms: N_8  and  C_9
REMARK                            x       y       z     vdW  Elec       q    Type
REMARK                         _______ _______ _______ _____ _____    ______ ____
ROOT
ATOM      1  N   UNL     1       5.992   5.043  19.368  0.00  0.00    +0.000 N 
ATOM      2  C   UNL     1       4.757   5.496  18.985  0.00  0.00    +0.000 C 
ATOM      3  O   UNL     1       4.601   6.473  18.271  0.00  0.00    +0.000 OA
ATOM      4  N   UNL     1       3.740   4.727  19.479  0.00  0.00    +0.000 N 
ATOM      5  H   UNL     1       6.082   4.078  19.666  0.00  0.00    +0.000 HD
ATOM      6  H   UNL     1       3.961   4.186  20.301  0.00  0.00    +0.000 HD
ENDROOT
BRANCH   4   7
ATOM      7  C   UNL     1       2.339   5.071  19.243  0.00  0.00    +0.000 C 
ATOM      8  C   UNL     1       1.817   4.371  17.982  0.00  0.00    +0.000 C 
ATOM      9  C   UNL     1       1.642   2.866  18.176  0.00  0.00    +0.000 C 
ATOM     10  C   UNL     1       0.764   2.552  19.384  0.00  0.00    +0.000 C 
ATOM     11  C   UNL     1       1.268   3.236  20.652  0.00  0.00    +0.000 C 
ATOM     12  C   UNL     1       1.453   4.740  20.453  0.00  0.00    +0.000 C 
ENDBRANCH   4   7
BRANCH   1  13
ATOM     13  C   UNL     1       7.170   5.676  18.803  0.00  0.00    +0.000 C 
BRANCH  13  15
ATOM     14  O   UNL     1       8.047   4.191  17.081  0.00  0.00    +0.000 OA
ATOM     15  C   UNL     1       7.484   5.234  17.381  0.00  0.00    +0.000 C 
BRANCH  15  16
ATOM     16  O   UNL     1       7.043   6.116  16.449  0.00  0.00    +0.000 OA
ATOM     17  H   UNL     1       7.692   6.311  15.743  0.00  0.00    +0.000 HD
ENDBRANCH  15  16
ENDBRANCH  13  15
ENDBRANCH   1  13
TORSDOF 4
ENDMDL
MODEL 4
REMARK VINA RESULT:      -6.5      1.889      2.360
REMARK  Name = 
REMARK  4 active torsions:
REMARK  status: ('A' for Active; 'I' for Inactive)
REMARK    1  A    between atoms: C_2  and  O_3
REMARK    2  A    between atoms: C_2  and  C_4
REMARK    3  A    between atoms: C_4  and  N_5
REMARK    4  A    between atoms: N_8  and  C_9
REMARK                            x       y       z     vdW  Elec       q    Type
REMARK                         _______ _______ _______ _____ _____    ______ ____
ROOT
ATOM      1  N   UNL     1       5.961   4.075  17.502  0.00  0.00    +0.000 N 
ATOM      2  C   UNL     1       4.866   4.886  17.635  0.00  0.00    +0.000 C 
ATOM      3  O   UNL     1       4.869   6.063  17.310  0.00  0.00    +0.000 OA
ATOM      4  N   UNL     1       3.785   4.228  18.151  0.00  0.00    +0.000 N 
ATOM      5  H   UNL     1       5.818   3.072  17.468  0.00  0.00    +0.000 HD
ATOM      6  H   UNL     1       3.992   3.396  18.683  0.00  0.00    +0.000 HD
ENDROOT
BRANCH   4   7
ATOM      7  C   UNL     1       2.530   4.924  18.434  0.00  0.00    +0.000 C 
ATOM      8  C   UNL     1       1.331   4.051  18.047  0.00  0.00    +0.000 C 
ATOM      9  C   UNL     1       1.139   2.865  18.993  0.00  0.00    +0.000 C 
ATOM     10  C   UNL     1       1.048   3.314  20.448  0.00  0.00    +0.000 C 
ATOM     11  C   UNL     1       2.236   4.182  20.855  0.00  0.00    +0.000 C 
ATOM     12  C   UNL     1       2.432   5.361  19.903  0.00  0.00    +0.000 C 
ENDBRANCH   4   7
BRANCH   1  13
ATOM     13  C   UNL     1       7.138   4.601  16.835  0.00  0.00    +0.000 C 
BRANCH  13  15
ATOM     14  O   UNL     1       7.569   5.382  14.567  0.00  0.00    +0.000 OA
ATOM     15  C   UNL     1       7.053   4.565  15.316  0.00  0.00    +0.000 C 
BRANCH  15  16
ATOM     16  O   UNL     1       6.354   3.497  14.856  0.00  0.00    +0.000 OA
ATOM     17  H   UNL     1       6.344   2.733  15.466  0.00  0.00    +0.000 HD
ENDBRANCH  15  16
ENDBRANCH  13  15
ENDBRANCH   1  13
TORSDOF 4
ENDMDL
MODEL 5
REMARK VINA RESULT:      -6.5      1.114      1.563
REMARK  Name = 
REMARK  4 active torsions:
REMARK  status: ('A' for Active; 'I' for Inactive)
REMARK    1  A    between atoms: C_2  and  O_3
REMARK    2  A    between atoms: C_2  and  C_4
REMARK    3  A    between atoms: C_4  and  N_5
REMARK    4  A    between atoms: N_8  and  C_9
REMARK                            x       y       z     vdW  Elec       q    Type
REMARK                         _______ _______ _______ _____ _____    ______ ____
ROOT
ATOM      1  N   UNL     1       6.357   4.163  18.376  0.00  0.00    +0.000 N 
ATOM      2  C   UNL     1       5.161   4.226  17.712  0.00  0.00    +0.000 C 
ATOM      3  O   UNL     1       5.032   4.773  16.628  0.00  0.00    +0.000 OA
ATOM      4  N   UNL     1       4.151   3.603  18.390  0.00  0.00    +0.000 N 
ATOM      5  H   UNL     1       6.483   3.442  19.076  0.00  0.00    +0.000 HD
ATOM      6  H   UNL     1       4.289   3.502  19.384  0.00  0.00    +0.000 HD
ENDROOT
BRANCH   4   7
ATOM      7  C   UNL     1       2.777   3.608  17.887  0.00  0.00    +0.000 C 
ATOM      8  C   UNL     1       2.037   2.342  18.334  0.00  0.00    +0.000 C 
ATOM      9  C   UNL     1       1.721   2.344  19.830  0.00  0.00    +0.000 C 
ATOM     10  C   UNL     1       0.963   3.601  20.244  0.00  0.00    +0.000 C 
ATOM     11  C   UNL     1       1.687   4.874  19.812  0.00  0.00    +0.000 C 
ATOM     12  C   UNL     1       2.010   4.867  18.319  0.00  0.00    +0.000 C 
ENDBRANCH   4   7
BRANCH   1  13
ATOM     13  C   UNL     1       7.548   4.659  17.710  0.00  0.00    +0.000 C 
BRANCH  13  15
ATOM     14  O   UNL     1       8.078   6.772  18.801  0.00  0.00    +0.000 OA
ATOM     15  C   UNL     1       7.721   6.168  17.800  0.00  0.00    +0.000 C 
BRANCH  15  16
ATOM     16  O   UNL     1       7.462   6.796  16.626  0.00  0.00    +0.000 OA
ATOM     17  H   UNL     1       8.195   6.754  15.979  0.00  0.00    +0.000 HD
ENDBRANCH  15  16
ENDBRANCH  13  15
ENDBRANCH   1  13
TORSDOF 4
ENDMDL
MODEL 6
REMARK VINA RESULT:      -6.4      1.871      2.534
REMARK  Name = 
REMARK  4 active torsions:
REMARK  status: ('A' for Active; 'I' for Inactive)
REMARK    1  A    between atoms: C_2  and  O_3
REMARK    2  A    between atoms: C_2  and  C_4
REMARK    3  A    between atoms: C_4  and  N_5
REMARK    4  A    between atoms: N_8  and  C_9
REMARK                            x       y       z     vdW  Elec       q    Type
REMARK                         _______ _______ _______ _____ _____    ______ ____
ROOT
ATOM      1  N   UNL     1       5.216   5.817  18.001  0.00  0.00    +0.000 N 
ATOM      2  C   UNL     1       5.078   4.730  18.822  0.00  0.00    +0.000 C 
ATOM      3  O   UNL     1       6.021   4.040  19.173  0.00  0.00    +0.000 OA
ATOM      4  N   UNL     1       3.782   4.523  19.204  0.00  0.00    +0.000 N 
ATOM      5  H   UNL     1       4.490   6.525  18.010  0.00  0.00    +0.000 HD
ATOM      6  H   UNL     1       3.078   4.921  18.601  0.00  0.00    +0.000 HD
ENDROOT
BRANCH   4   7
ATOM      7  C   UNL     1       3.403   3.378  20.032  0.00  0.00    +0.000 C 
ATOM      8  C   UNL     1       2.260   3.754  20.982  0.00  0.00    +0.000 C 
ATOM      9  C   UNL     1       0.930   3.945  20.253  0.00  0.00    +0.000 C 
ATOM     10  C   UNL     1       0.568   2.725  19.412  0.00  0.00    +0.000 C 
ATOM     11  C   UNL     1       1.692   2.336  18.455  0.00  0.00    +0.000 C 
ATOM     12  C   UNL     1       3.023   2.155  19.183  0.00  0.00    +0.000 C 
ENDBRANCH   4   7
BRANCH   1  13
ATOM     13  C   UNL     1       6.554   6.242  17.630  0.00  0.00    +0.000 C 
BRANCH  13  15
ATOM     14  O   UNL     1       6.952   5.745  15.278  0.00  0.00    +0.000 OA
ATOM     15  C   UNL     1       7.140   5.473  16.455  0.00  0.00    +0.000 C 
BRANCH  15  16
ATOM     16  O   UNL     1       7.935   4.446  16.845  0.00  0.00    +0.000 OA
ATOM     17  H   UNL     1       8.610   4.692  17.510  0.00  0.00    +0.000 HD
ENDBRANCH  15  16
ENDBRANCH  13  15
ENDBRANCH   1  13
TORSDOF 4
ENDMDL
MODEL 7
REMARK VINA RESULT:      -6.4      1.978      2.149
REMARK  Name = 
REMARK  4 active torsions:
REMARK  status: ('A' for Active; 'I' for Inactive)
REMARK    1  A    between atoms: C_2  and  O_3
REMARK    2  A    between atoms: C_2  and  C_4
REMARK    3  A    between atoms: C_4  and  N_5
REMARK    4  A    between atoms: N_8  and  C_9
REMARK                            x       y       z     vdW  Elec       q    Type
REMARK                         _______ _______ _______ _____ _____    ______ ____
ROOT
ATOM      1  N   UNL     1       5.376   3.427  16.791  0.00  0.00    +0.000 N 
ATOM      2  C   UNL     1       4.398   4.282  17.223  0.00  0.00    +0.000 C 
ATOM      3  O   UNL     1       4.167   5.353  16.685  0.00  0.00    +0.000 OA
ATOM      4  N   UNL     1       3.714   3.793  18.301  0.00  0.00    +0.000 N 
ATOM      5  H   UNL     1       5.310   2.448  17.044  0.00  0.00    +0.000 HD
ATOM      6  H   UNL     1       4.199   3.098  18.849  0.00  0.00    +0.000 HD
ENDROOT
BRANCH   4   7
ATOM      7  C   UNL     1       2.668   4.575  18.961  0.00  0.00    +0.000 C 
ATOM      8  C   UNL     1       1.280   4.047  18.579  0.00  0.00    +0.000 C 
ATOM      9  C   UNL     1       0.972   2.692  19.216  0.00  0.00    +0.000 C 
ATOM     10  C   UNL     1       1.152   2.727  20.730  0.00  0.00    +0.000 C 
ATOM     11  C   UNL     1       2.530   3.246  21.132  0.00  0.00    +0.000 C 
ATOM     12  C   UNL     1       2.841   4.596  20.487  0.00  0.00    +0.000 C 
ENDBRANCH   4   7
BRANCH   1  13
ATOM     13  C   UNL     1       6.089   3.750  15.568  0.00  0.00    +0.000 C 
BRANCH  13  15
ATOM     14  O   UNL     1       7.609   5.575  15.022  0.00  0.00    +0.000 OA
ATOM     15  C   UNL     1       7.284   4.670  15.776  0.00  0.00    +0.000 C 
BRANCH  15  16
ATOM     16  O   UNL     1       7.956   4.403  16.924  0.00  0.00    +0.000 OA
ATOM     17  H   UNL     1       8.188   3.460  17.042  0.00  0.00    +0.000 HD
ENDBRANCH  15  16
ENDBRANCH  13  15
ENDBRANCH   1  13
TORSDOF 4
ENDMDL
MODEL 8
REMARK VINA RESULT:      -6.4      1.716      1.975
REMARK  Name = 
REMARK  4 active torsions:
REMARK  status: ('A' for Active; 'I' for Inactive)
REMARK    1  A    between atoms: C_2  and  O_3
REMARK    2  A    between atoms: C_2  and  C_4
REMARK    3  A    between atoms: C_4  and  N_5
REMARK    4  A    between atoms: N_8  and  C_9
REMARK                            x       y       z     vdW  Elec       q    Type
REMARK                         _______ _______ _______ _____ _____    ______ ____
ROOT
ATOM      1  N   UNL     1       5.217   3.548  16.918  0.00  0.00    +0.000 N 
ATOM      2  C   UNL     1       4.182   4.364  17.291  0.00  0.00    +0.000 C 
ATOM      3  O   UNL     1       4.096   5.529  16.938  0.00  0.00    +0.000 OA
ATOM      4  N   UNL     1       3.268   3.724  18.080  0.00  0.00    +0.000 N 
ATOM      5  H   UNL     1       5.079   2.545  16.953  0.00  0.00    +0.000 HD
ATOM      6  H   UNL     1       3.607   2.910  18.570  0.00  0.00    +0.000 HD
ENDROOT
BRANCH   4   7
ATOM      7  C   UNL     1       2.116   4.429  18.640  0.00  0.00    +0.000 C 
ATOM      8  C   UNL     1       0.883   3.519  18.657  0.00  0.00    +0.000 C 
ATOM      9  C   UNL     1       0.987   2.408  19.702  0.00  0.00    +0.000 C 
ATOM     10  C   UNL     1       1.278   2.967  21.091  0.00  0.00    +0.000 C 
ATOM     11  C   UNL     1       2.506   3.874  21.098  0.00  0.00    +0.000 C 
ATOM     12  C   UNL     1       2.405   4.978  20.046  0.00  0.00    +0.000 C 
ENDBRANCH   4   7
BRANCH   1  13
ATOM     13  C   UNL     1       6.189   4.052  15.964  0.00  0.00    +0.000 C 
BRANCH  13  15
ATOM     14  O   UNL     1       8.185   4.212  17.353  0.00  0.00    +0.000 OA
ATOM     15  C   UNL     1       7.379   4.749  16.608  0.00  0.00    +0.000 C 
BRANCH  15  16
ATOM     16  O   UNL     1       7.480   6.053  16.246  0.00  0.00    +0.000 OA
ATOM     17  H   UNL     1       6.641   6.553  16.311  0.00  0.00    +0.000 HD
ENDBRANCH  15  16
ENDBRANCH  13  15
ENDBRANCH   1  13
TORSDOF 4
ENDMDL
MODEL 9
REMARK VINA RESULT:      -6.4      0.817      1.193
REMARK  Name = 
REMARK  4 active torsions:
REMARK  status: ('A' for Active; 'I' for Inactive)
REMARK    1  A    between atoms: C_2  and  O_3
REMARK    2  A    between atoms: C_2  and  C_4
REMARK    3  A    between atoms: C_4  and  N_5
REMARK    4  A    between atoms: N_8  and  C_9
REMARK                            x       y       z     vdW  Elec       q    Type
REMARK                         _______ _______ _______ _____ _____    ______ ____
ROOT
ATOM      1  N   UNL     1       6.086   4.331  18.638  0.00  0.00    +0.000 N 
ATOM      2  C   UNL     1       4.880   4.898  18.325  0.00  0.00    +0.000 C 
ATOM      3  O   UNL     1       4.744   5.716  17.429  0.00  0.00    +0.000 OA
ATOM      4  N   UNL     1       3.862   4.436  19.112  0.00  0.00    +0.000 N 
ATOM      5  H   UNL     1       6.090   3.449  19.138  0.00  0.00    +0.000 HD
ATOM      6  H   UNL     1       4.139   4.049  20.002  0.00  0.00    +0.000 HD
ENDROOT
BRANCH   4   7
ATOM      7  C   UNL     1       2.502   4.958  18.987  0.00  0.00    +0.000 C 
ATOM      8  C   UNL     1       1.700   4.134  17.972  0.00  0.00    +0.000 C 
ATOM      9  C   UNL     1       1.351   2.740  18.493  0.00  0.00    +0.000 C 
ATOM     10  C   UNL     1       0.636   2.804  19.839  0.00  0.00    +0.000 C 
ATOM     11  C   UNL     1       1.420   3.617  20.866  0.00  0.00    +0.000 C 
ATOM     12  C   UNL     1       1.777   5.007  20.341  0.00  0.00    +0.000 C 
ENDBRANCH   4   7
BRANCH   1  13
ATOM     13  C   UNL     1       7.230   4.620  17.792  0.00  0.00    +0.000 C 
BRANCH  13  15
ATOM     14  O   UNL     1       8.097   6.661  18.804  0.00  0.00    +0.000 OA
ATOM     15  C   UNL     1       7.662   6.079  17.820  0.00  0.00    +0.000 C 
BRANCH  15  16
ATOM     16  O   UNL     1       7.542   6.684  16.612  0.00  0.00    +0.000 OA
ATOM     17  H   UNL     1       7.107   7.559  16.643  0.00  0.00    +0.000 HD
ENDBRANCH  15  16
ENDBRANCH  13  15
ENDBRANCH   1  13
TORSDOF 4
ENDMDL
