MODEL 1
REMARK VINA RESULT:      -6.7      0.000      0.000
REMARK  Name = 
REMARK  7 active torsions:
REMARK  status: ('A' for Active; 'I' for Inactive)
REMARK    1  A    between atoms: C_1  and  C_2
REMARK    2  A    between atoms: C_5  and  C_6
REMARK    3  A    between atoms: C_7  and  C_8
REMARK    4  A    between atoms: C_7  and  C_10
REMARK    5  A    between atoms: N_12  and  C_13
REMARK    6  A    between atoms: C_14  and  C_15
REMARK    7  A    between atoms: C_19  and  C_20
REMARK                            x       y       z     vdW  Elec       q    Type
REMARK                         _______ _______ _______ _____ _____    ______ ____
ROOT
ATOM      1  C   UNL     1       4.811   4.632  18.081  0.00  0.00    +0.000 C 
ATOM      2  O   UNL     1       4.794   5.601  18.838  0.00  0.00    +0.000 OA
ATOM      3  N   UNL     1       3.983   3.520  18.208  0.00  0.00    +0.000 N 
ATOM      4  H   UNL     1       4.288   2.657  17.775  0.00  0.00    +0.000 HD
ENDROOT
BRANCH   3   5
ATOM      5  C   UNL     1       3.029   3.360  19.246  0.00  0.00    +0.000 A 
ATOM      6  C   UNL     1       1.718   3.872  19.161  0.00  0.00    +0.000 A 
ATOM      7  C   UNL     1       1.135   4.507  17.928  0.00  0.00    +0.000 C 
ATOM      8  C   UNL     1       0.851   3.726  20.260  0.00  0.00    +0.000 A 
ATOM      9  C   UNL     1       1.250   3.041  21.404  0.00  0.00    +0.000 A 
ATOM     10  C   UNL     1       2.516   2.471  21.457  0.00  0.00    +0.000 A 
ATOM     11  C   UNL     1       3.412   2.609  20.384  0.00  0.00    +0.000 A 
ATOM     12  C   UNL     1       4.780   1.994  20.519  0.00  0.00    +0.000 C 
ENDBRANCH   3   5
BRANCH   1  14
ATOM     13  C   UNL     1       5.373   4.697  15.693  0.00  0.00    +0.000 C 
ATOM     14  C   UNL     1       5.821   4.561  16.959  0.00  0.00    +0.000 C 
BRANCH  13  19
ATOM     15  C   UNL     1       7.371   3.297  10.978  0.00  0.00    +0.000 C 
ATOM     16  C   UNL     1       7.123   3.955  12.293  0.00  0.00    +0.000 A 
ATOM     17  C   UNL     1       7.826   4.991  12.863  0.00  0.00    +0.000 A 
ATOM     18  C   UNL     1       7.312   5.355  14.140  0.00  0.00    +0.000 A 
ATOM     19  C   UNL     1       6.192   4.629  14.516  0.00  0.00    +0.000 A 
ATOM     20  S   UNL     1       5.846   3.439  13.307  0.00  0.00    +0.000 S 
ENDBRANCH  13  19
BRANCH  14  21
ATOM     21  C   UNL     1       7.191   4.375  17.290  0.00  0.00    +0.000 C 
ATOM     22  N   UNL     1       8.298   4.260  17.614  0.00  0.00    +0.000 NA
ENDBRANCH  14  21
ENDBRANCH   1  14
TORSDOF 4
ENDMDL
MODEL 2
REMARK VINA RESULT:      -6.5      0.171      1.908
REMARK  Name = 
REMARK  7 active torsions:
REMARK  status: ('A' for Active; 'I' for Inactive)
REMARK    1  A    between atoms: C_1  and  C_2
REMARK    2  A    between atoms: C_5  and  C_6
REMARK    3  A    between atoms: C_7  and  C_8
REMARK    4  A    between atoms: C_7  and  C_10
REMARK    5  A    between atoms: N_12  and  C_13
REMARK    6  A    between atoms: C_14  and  C_15
REMARK    7  A    between atoms: C_19  and  C_20
REMARK                            x       y       z     vdW  Elec       q    Type
REMARK                         _______ _______ _______ _____ _____    ______ ____
ROOT
ATOM      1  C   UNL     1       4.829   4.611  18.045  0.00  0.00    +0.000 C 
ATOM      2  O   UNL     1       4.842   5.565  18.819  0.00  0.00    +0.000 OA
ATOM      3  N   UNL     1       3.985   3.510  18.166  0.00  0.00    +0.000 N 
ATOM      4  H   UNL     1       4.267   2.651  17.712  0.00  0.00    +0.000 HD
ENDROOT
BRANCH   3   5
ATOM      5  C   UNL     1       3.047   3.346  19.218  0.00  0.00    +0.000 A 
ATOM      6  C   UNL     1       3.343   2.629  20.396  0.00  0.00    +0.000 A 
ATOM      7  C   UNL     1       4.705   2.090  20.740  0.00  0.00    +0.000 C 
ATOM      8  C   UNL     1       2.337   2.458  21.365  0.00  0.00    +0.000 A 
ATOM      9  C   UNL     1       1.077   3.026  21.203  0.00  0.00    +0.000 A 
ATOM     10  C   UNL     1       0.811   3.795  20.077  0.00  0.00    +0.000 A 
ATOM     11  C   UNL     1       1.787   3.976  19.083  0.00  0.00    +0.000 A 
ATOM     12  C   UNL     1       1.422   4.795  17.873  0.00  0.00    +0.000 C 
ENDBRANCH   3   5
BRANCH   1  14
ATOM     13  C   UNL     1       5.339   4.623  15.644  0.00  0.00    +0.000 C 
ATOM     14  C   UNL     1       5.818   4.545  16.903  0.00  0.00    +0.000 C 
BRANCH  13  19
ATOM     15  C   UNL     1       7.288   3.160  10.928  0.00  0.00    +0.000 C 
ATOM     16  C   UNL     1       7.044   3.846  12.229  0.00  0.00    +0.000 A 
ATOM     17  C   UNL     1       7.720   4.923  12.754  0.00  0.00    +0.000 A 
ATOM     18  C   UNL     1       7.219   5.305  14.031  0.00  0.00    +0.000 A 
ATOM     19  C   UNL     1       6.135   4.550  14.452  0.00  0.00    +0.000 A 
ATOM     20  S   UNL     1       5.809   3.314  13.285  0.00  0.00    +0.000 S 
ENDBRANCH  13  19
BRANCH  14  21
ATOM     21  C   UNL     1       7.201   4.422  17.210  0.00  0.00    +0.000 C 
ATOM     22  N   UNL     1       8.333   4.282  17.410  0.00  0.00    +0.000 NA
ENDBRANCH  14  21
ENDBRANCH   1  14
TORSDOF 4
ENDMDL
MODEL 3
REMARK VINA RESULT:      -6.4      5.454      6.998
REMARK  Name = 
REMARK  7 active torsions:
REMARK  status: ('A' for Active; 'I' for Inactive)
REMARK    1  A    between atoms: C_1  and  C_2
REMARK    2  A    between atoms: C_5  and  C_6
REMARK    3  A    between atoms: C_7  and  C_8
REMARK    4  A    between atoms: C_7  and  C_10
REMARK    5  A    between atoms: N_12  and  C_13
REMARK    6  A    between atoms: C_14  and  C_15
REMARK    7  A    between atoms: C_19  and  C_20
REMARK                            x       y       z     vdW  Elec       q    Type
REMARK                         _______ _______ _______ _____ _____    ______ ____
ROOT
ATOM      1  C   UNL     1       1.595   9.205  18.440  0.00  0.00    +0.000 C 
ATOM      2  O   UNL     1       2.017  10.177  17.817  0.00  0.00    +0.000 OA
ATOM      3  N   UNL     1       0.411   9.192  19.173  0.00  0.00    +0.000 N 
ATOM      4  H   UNL     1       0.321   8.499  19.905  0.00  0.00    +0.000 HD
ENDROOT
BRANCH   3   5
ATOM      5  C   UNL     1      -0.446  10.314  19.307  0.00  0.00    +0.000 A 
ATOM      6  C   UNL     1      -1.401  10.664  18.330  0.00  0.00    +0.000 A 
ATOM      7  C   UNL     1      -1.723   9.826  17.122  0.00  0.00    +0.000 C 
ATOM      8  C   UNL     1      -2.170  11.829  18.508  0.00  0.00    +0.000 A 
ATOM      9  C   UNL     1      -2.040  12.608  19.654  0.00  0.00    +0.000 A 
ATOM     10  C   UNL     1      -1.153  12.221  20.651  0.00  0.00    +0.000 A 
ATOM     11  C   UNL     1      -0.360  11.071  20.500  0.00  0.00    +0.000 A 
ATOM     12  C   UNL     1       0.604  10.726  21.605  0.00  0.00    +0.000 C 
ENDBRANCH   3   5
BRANCH   1  14
ATOM     13  C   UNL     1       3.327   7.716  17.539  0.00  0.00    +0.000 C 
ATOM     14  C   UNL     1       2.408   7.931  18.503  0.00  0.00    +0.000 C 
BRANCH  13  19
ATOM     15  C   UNL     1       7.548   4.512  17.228  0.00  0.00    +0.000 C 
ATOM     16  C   UNL     1       6.160   5.056  17.289  0.00  0.00    +0.000 A 
ATOM     17  C   UNL     1       4.978   4.352  17.281  0.00  0.00    +0.000 A 
ATOM     18  C   UNL     1       3.841   5.207  17.338  0.00  0.00    +0.000 A 
ATOM     19  C   UNL     1       4.160   6.552  17.437  0.00  0.00    +0.000 A 
ATOM     20  S   UNL     1       5.880   6.741  17.370  0.00  0.00    +0.000 S 
ENDBRANCH  13  19
BRANCH  14  21
ATOM     21  C   UNL     1       2.178   7.033  19.581  0.00  0.00    +0.000 C 
ATOM     22  N   UNL     1       1.960   6.349  20.491  0.00  0.00    +0.000 NA
ENDBRANCH  14  21
ENDBRANCH   1  14
TORSDOF 4
ENDMDL
MODEL 4
REMARK VINA RESULT:      -6.4      5.320      7.612
REMARK  Name = 
REMARK  7 active torsions:
REMARK  status: ('A' for Active; 'I' for Inactive)
REMARK    1  A    between atoms: C_1  and  C_2
REMARK    2  A    between atoms: C_5  and  C_6
REMARK    3  A    between atoms: C_7  and  C_8
REMARK    4  A    between atoms: C_7  and  C_10
REMARK    5  A    between atoms: N_12  and  C_13
REMARK    6  A    between atoms: C_14  and  C_15
REMARK    7  A    between atoms: C_19  and  C_20
REMARK                            x       y       z     vdW  Elec       q    Type
REMARK                         _______ _______ _______ _____ _____    ______ ____
ROOT
ATOM      1  C   UNL     1       2.365   7.058  18.896  0.00  0.00    +0.000 C 
ATOM      2  O   UNL     1       2.521   6.789  17.707  0.00  0.00    +0.000 OA
ATOM      3  N   UNL     1       2.660   6.190  19.944  0.00  0.00    +0.000 N 
ATOM      4  H   UNL     1       2.196   6.350  20.829  0.00  0.00    +0.000 HD
ENDROOT
BRANCH   3   5
ATOM      5  C   UNL     1       3.157   4.873  19.763  0.00  0.00    +0.000 A 
ATOM      6  C   UNL     1       4.489   4.609  19.384  0.00  0.00    +0.000 A 
ATOM      7  C   UNL     1       5.562   5.657  19.270  0.00  0.00    +0.000 C 
ATOM      8  C   UNL     1       4.887   3.277  19.163  0.00  0.00    +0.000 A 
ATOM      9  C   UNL     1       4.005   2.220  19.364  0.00  0.00    +0.000 A 
ATOM     10  C   UNL     1       2.715   2.477  19.811  0.00  0.00    +0.000 A 
ATOM     11  C   UNL     1       2.279   3.795  20.028  0.00  0.00    +0.000 A 
ATOM     12  C   UNL     1       0.859   4.006  20.483  0.00  0.00    +0.000 C 
ENDBRANCH   3   5
BRANCH   1  14
ATOM     13  C   UNL     1       1.469   9.273  18.332  0.00  0.00    +0.000 C 
ATOM     14  C   UNL     1       1.758   8.381  19.303  0.00  0.00    +0.000 C 
BRANCH  13  19
ATOM     15  C   UNL     1       0.941  14.519  18.950  0.00  0.00    +0.000 C 
ATOM     16  C   UNL     1       0.684  13.053  18.841  0.00  0.00    +0.000 A 
ATOM     17  C   UNL     1      -0.523  12.401  18.930  0.00  0.00    +0.000 A 
ATOM     18  C   UNL     1      -0.386  10.990  18.791  0.00  0.00    +0.000 A 
ATOM     19  C   UNL     1       0.915  10.579  18.550  0.00  0.00    +0.000 A 
ATOM     20  S   UNL     1       1.968  11.954  18.586  0.00  0.00    +0.000 S 
ENDBRANCH  13  19
BRANCH  14  21
ATOM     21  C   UNL     1       1.503   8.614  20.683  0.00  0.00    +0.000 C 
ATOM     22  N   UNL     1       1.264   8.746  21.809  0.00  0.00    +0.000 NA
ENDBRANCH  14  21
ENDBRANCH   1  14
TORSDOF 4
ENDMDL
MODEL 5
REMARK VINA RESULT:      -6.3      5.356      7.926
REMARK  Name = 
REMARK  7 active torsions:
REMARK  status: ('A' for Active; 'I' for Inactive)
REMARK    1  A    between atoms: C_1  and  C_2
REMARK    2  A    between atoms: C_5  and  C_6
REMARK    3  A    between atoms: C_7  and  C_8
REMARK    4  A    between atoms: C_7  and  C_10
REMARK    5  A    between atoms: N_12  and  C_13
REMARK    6  A    between atoms: C_14  and  C_15
REMARK    7  A    between atoms: C_19  and  C_20
REMARK                            x       y       z     vdW  Elec       q    Type
REMARK                         _______ _______ _______ _____ _____    ______ ____
ROOT
ATOM      1  C   UNL     1       2.323   7.079  19.409  0.00  0.00    +0.000 C 
ATOM      2  O   UNL     1       2.696   6.405  20.367  0.00  0.00    +0.000 OA
ATOM      3  N   UNL     1       2.581   6.765  18.077  0.00  0.00    +0.000 N 
ATOM      4  H   UNL     1       2.544   7.519  17.402  0.00  0.00    +0.000 HD
ENDROOT
BRANCH   3   5
ATOM      5  C   UNL     1       3.330   5.633  17.663  0.00  0.00    +0.000 A 
ATOM      6  C   UNL     1       2.797   4.328  17.662  0.00  0.00    +0.000 A 
ATOM      7  C   UNL     1       1.357   4.000  17.950  0.00  0.00    +0.000 C 
ATOM      8  C   UNL     1       3.625   3.249  17.297  0.00  0.00    +0.000 A 
ATOM      9  C   UNL     1       4.939   3.457  16.890  0.00  0.00    +0.000 A 
ATOM     10  C   UNL     1       5.440   4.752  16.819  0.00  0.00    +0.000 A 
ATOM     11  C   UNL     1       4.646   5.850  17.189  0.00  0.00    +0.000 A 
ATOM     12  C   UNL     1       5.260   7.224  17.118  0.00  0.00    +0.000 C 
ENDBRANCH   3   5
BRANCH   1  14
ATOM     13  C   UNL     1       1.287   9.135  18.558  0.00  0.00    +0.000 C 
ATOM     14  C   UNL     1       1.587   8.380  19.635  0.00  0.00    +0.000 C 
BRANCH  13  19
ATOM     15  C   UNL     1       0.303  14.344  18.850  0.00  0.00    +0.000 C 
ATOM     16  C   UNL     1       0.170  12.862  18.742  0.00  0.00    +0.000 A 
ATOM     17  C   UNL     1      -0.983  12.128  18.589  0.00  0.00    +0.000 A 
ATOM     18  C   UNL     1      -0.729  10.728  18.536  0.00  0.00    +0.000 A 
ATOM     19  C   UNL     1       0.617  10.404  18.601  0.00  0.00    +0.000 A 
ATOM     20  S   UNL     1       1.546  11.849  18.815  0.00  0.00    +0.000 S 
ENDBRANCH  13  19
BRANCH  14  21
ATOM     21  C   UNL     1       1.230   8.734  20.966  0.00  0.00    +0.000 C 
ATOM     22  N   UNL     1       1.003   9.019  22.066  0.00  0.00    +0.000 NA
ENDBRANCH  14  21
ENDBRANCH   1  14
TORSDOF 4
ENDMDL
MODEL 6
REMARK VINA RESULT:      -6.3      5.391      7.736
REMARK  Name = 
REMARK  7 active torsions:
REMARK  status: ('A' for Active; 'I' for Inactive)
REMARK    1  A    between atoms: C_1  and  C_2
REMARK    2  A    between atoms: C_5  and  C_6
REMARK    3  A    between atoms: C_7  and  C_8
REMARK    4  A    between atoms: C_7  and  C_10
REMARK    5  A    between atoms: N_12  and  C_13
REMARK    6  A    between atoms: C_14  and  C_15
REMARK    7  A    between atoms: C_19  and  C_20
REMARK                            x       y       z     vdW  Elec       q    Type
REMARK                         _______ _______ _______ _____ _____    ______ ____
ROOT
ATOM      1  C   UNL     1       2.315   7.019  18.979  0.00  0.00    +0.000 C 
ATOM      2  O   UNL     1       2.400   6.781  17.776  0.00  0.00    +0.000 OA
ATOM      3  N   UNL     1       2.650   6.118  19.986  0.00  0.00    +0.000 N 
ATOM      4  H   UNL     1       2.239   6.261  20.899  0.00  0.00    +0.000 HD
ENDROOT
BRANCH   3   5
ATOM      5  C   UNL     1       3.113   4.798  19.742  0.00  0.00    +0.000 A 
ATOM      6  C   UNL     1       4.436   4.517  19.342  0.00  0.00    +0.000 A 
ATOM      7  C   UNL     1       5.535   5.542  19.270  0.00  0.00    +0.000 C 
ATOM      8  C   UNL     1       4.799   3.187  19.059  0.00  0.00    +0.000 A 
ATOM      9  C   UNL     1       3.891   2.145  19.218  0.00  0.00    +0.000 A 
ATOM     10  C   UNL     1       2.610   2.414  19.685  0.00  0.00    +0.000 A 
ATOM     11  C   UNL     1       2.209   3.731  19.964  0.00  0.00    +0.000 A 
ATOM     12  C   UNL     1       0.798   3.957  20.437  0.00  0.00    +0.000 C 
ENDBRANCH   3   5
BRANCH   1  14
ATOM     13  C   UNL     1       1.510   9.295  18.533  0.00  0.00    +0.000 C 
ATOM     14  C   UNL     1       1.755   8.340  19.455  0.00  0.00    +0.000 C 
BRANCH  13  19
ATOM     15  C   UNL     1      -1.682  13.321  19.868  0.00  0.00    +0.000 C 
ATOM     16  C   UNL     1      -0.513  12.494  19.448  0.00  0.00    +0.000 A 
ATOM     17  C   UNL     1       0.763  12.922  19.166  0.00  0.00    +0.000 A 
ATOM     18  C   UNL     1       1.619  11.850  18.781  0.00  0.00    +0.000 A 
ATOM     19  C   UNL     1       1.005  10.608  18.819  0.00  0.00    +0.000 A 
ATOM     20  S   UNL     1      -0.661  10.802  19.250  0.00  0.00    +0.000 S 
ENDBRANCH  13  19
BRANCH  14  21
ATOM     21  C   UNL     1       1.496   8.506  20.843  0.00  0.00    +0.000 C 
ATOM     22  N   UNL     1       1.333   8.686  21.976  0.00  0.00    +0.000 NA
ENDBRANCH  14  21
ENDBRANCH   1  14
TORSDOF 4
ENDMDL
MODEL 7
REMARK VINA RESULT:      -6.3      5.264      7.960
REMARK  Name = 
REMARK  7 active torsions:
REMARK  status: ('A' for Active; 'I' for Inactive)
REMARK    1  A    between atoms: C_1  and  C_2
REMARK    2  A    between atoms: C_5  and  C_6
REMARK    3  A    between atoms: C_7  and  C_8
REMARK    4  A    between atoms: C_7  and  C_10
REMARK    5  A    between atoms: N_12  and  C_13
REMARK    6  A    between atoms: C_14  and  C_15
REMARK    7  A    between atoms: C_19  and  C_20
REMARK                            x       y       z     vdW  Elec       q    Type
REMARK                         _______ _______ _______ _____ _____    ______ ____
ROOT
ATOM      1  C   UNL     1       2.515   7.065  19.235  0.00  0.00    +0.000 C 
ATOM      2  O   UNL     1       2.914   6.393  20.183  0.00  0.00    +0.000 OA
ATOM      3  N   UNL     1       2.821   6.806  17.901  0.00  0.00    +0.000 N 
ATOM      4  H   UNL     1       2.746   7.574  17.245  0.00  0.00    +0.000 HD
ENDROOT
BRANCH   3   5
ATOM      5  C   UNL     1       3.655   5.740  17.475  0.00  0.00    +0.000 A 
ATOM      6  C   UNL     1       5.020   5.918  17.168  0.00  0.00    +0.000 A 
ATOM      7  C   UNL     1       5.779   7.197  17.392  0.00  0.00    +0.000 C 
ATOM      8  C   UNL     1       5.764   4.822  16.691  0.00  0.00    +0.000 A 
ATOM      9  C   UNL     1       5.188   3.561  16.568  0.00  0.00    +0.000 A 
ATOM     10  C   UNL     1       3.863   3.371  16.943  0.00  0.00    +0.000 A 
ATOM     11  C   UNL     1       3.088   4.445  17.410  0.00  0.00    +0.000 A 
ATOM     12  C   UNL     1       1.650   4.176  17.769  0.00  0.00    +0.000 C 
ENDBRANCH   3   5
BRANCH   1  14
ATOM     13  C   UNL     1       1.369   9.076  18.416  0.00  0.00    +0.000 C 
ATOM     14  C   UNL     1       1.685   8.306  19.478  0.00  0.00    +0.000 C 
BRANCH  13  19
ATOM     15  C   UNL     1       0.024  14.191  18.869  0.00  0.00    +0.000 C 
ATOM     16  C   UNL     1      -0.003  12.710  18.695  0.00  0.00    +0.000 A 
ATOM     17  C   UNL     1      -1.096  11.910  18.455  0.00  0.00    +0.000 A 
ATOM     18  C   UNL     1      -0.746  10.533  18.358  0.00  0.00    +0.000 A 
ATOM     19  C   UNL     1       0.614  10.295  18.476  0.00  0.00    +0.000 A 
ATOM     20  S   UNL     1       1.433  11.788  18.795  0.00  0.00    +0.000 S 
ENDBRANCH  13  19
BRANCH  14  21
ATOM     21  C   UNL     1       1.264   8.590  20.806  0.00  0.00    +0.000 C 
ATOM     22  N   UNL     1       0.976   8.794  21.910  0.00  0.00    +0.000 NA
ENDBRANCH  14  21
ENDBRANCH   1  14
TORSDOF 4
ENDMDL
MODEL 8
REMARK VINA RESULT:      -6.2      4.841      7.838
REMARK  Name = 
REMARK  7 active torsions:
REMARK  status: ('A' for Active; 'I' for Inactive)
REMARK    1  A    between atoms: C_1  and  C_2
REMARK    2  A    between atoms: C_5  and  C_6
REMARK    3  A    between atoms: C_7  and  C_8
REMARK    4  A    between atoms: C_7  and  C_10
REMARK    5  A    between atoms: N_12  and  C_13
REMARK    6  A    between atoms: C_14  and  C_15
REMARK    7  A    between atoms: C_19  and  C_20
REMARK                            x       y       z     vdW  Elec       q    Type
REMARK                         _______ _______ _______ _____ _____    ______ ____
ROOT
ATOM      1  C   UNL     1       3.228   6.762  18.778  0.00  0.00    +0.000 C 
ATOM      2  O   UNL     1       3.612   6.006  19.667  0.00  0.00    +0.000 OA
ATOM      3  N   UNL     1       3.722   6.761  17.476  0.00  0.00    +0.000 N 
ATOM      4  H   UNL     1       3.609   7.606  16.931  0.00  0.00    +0.000 HD
ENDROOT
BRANCH   3   5
ATOM      5  C   UNL     1       4.752   5.896  17.023  0.00  0.00    +0.000 A 
ATOM      6  C   UNL     1       6.092   6.314  16.885  0.00  0.00    +0.000 A 
ATOM      7  C   UNL     1       6.611   7.654  17.332  0.00  0.00    +0.000 C 
ATOM      8  C   UNL     1       7.042   5.414  16.368  0.00  0.00    +0.000 A 
ATOM      9  C   UNL     1       6.691   4.107  16.042  0.00  0.00    +0.000 A 
ATOM     10  C   UNL     1       5.387   3.674  16.249  0.00  0.00    +0.000 A 
ATOM     11  C   UNL     1       4.410   4.550  16.750  0.00  0.00    +0.000 A 
ATOM     12  C   UNL     1       3.009   4.025  16.921  0.00  0.00    +0.000 C 
ENDBRANCH   3   5
BRANCH   1  14
ATOM     13  C   UNL     1       1.833   8.656  18.076  0.00  0.00    +0.000 C 
ATOM     14  C   UNL     1       2.198   7.827  19.077  0.00  0.00    +0.000 C 
BRANCH  13  19
ATOM     15  C   UNL     1      -0.345  13.410  18.988  0.00  0.00    +0.000 C 
ATOM     16  C   UNL     1      -0.120  11.978  18.635  0.00  0.00    +0.000 A 
ATOM     17  C   UNL     1      -1.046  11.068  18.181  0.00  0.00    +0.000 A 
ATOM     18  C   UNL     1      -0.473   9.782  17.959  0.00  0.00    +0.000 A 
ATOM     19  C   UNL     1       0.891   9.732  18.198  0.00  0.00    +0.000 A 
ATOM     20  S   UNL     1       1.429  11.271  18.782  0.00  0.00    +0.000 S 
ENDBRANCH  13  19
BRANCH  14  21
ATOM     21  C   UNL     1       1.652   7.893  20.388  0.00  0.00    +0.000 C 
ATOM     22  N   UNL     1       1.192   7.883  21.451  0.00  0.00    +0.000 NA
ENDBRANCH  14  21
ENDBRANCH   1  14
TORSDOF 4
ENDMDL
MODEL 9
REMARK VINA RESULT:      -6.2      5.554      7.253
REMARK  Name = 
REMARK  7 active torsions:
REMARK  status: ('A' for Active; 'I' for Inactive)
REMARK    1  A    between atoms: C_1  and  C_2
REMARK    2  A    between atoms: C_5  and  C_6
REMARK    3  A    between atoms: C_7  and  C_8
REMARK    4  A    between atoms: C_7  and  C_10
REMARK    5  A    between atoms: N_12  and  C_13
REMARK    6  A    between atoms: C_14  and  C_15
REMARK    7  A    between atoms: C_19  and  C_20
REMARK                            x       y       z     vdW  Elec       q    Type
REMARK                         _______ _______ _______ _____ _____    ______ ____
ROOT
ATOM      1  C   UNL     1       1.640   9.326  18.329  0.00  0.00    +0.000 C 
ATOM      2  O   UNL     1       2.053  10.254  17.637  0.00  0.00    +0.000 OA
ATOM      3  N   UNL     1       0.489   9.377  19.110  0.00  0.00    +0.000 N 
ATOM      4  H   UNL     1       0.417   8.727  19.882  0.00  0.00    +0.000 HD
ENDROOT
BRANCH   3   5
ATOM      5  C   UNL     1      -0.341  10.523  19.219  0.00  0.00    +0.000 A 
ATOM      6  C   UNL     1      -0.137  11.520  20.195  0.00  0.00    +0.000 A 
ATOM      7  C   UNL     1       1.046  11.567  21.124  0.00  0.00    +0.000 C 
ATOM      8  C   UNL     1      -1.043  12.595  20.278  0.00  0.00    +0.000 A 
ATOM      9  C   UNL     1      -2.101  12.714  19.382  0.00  0.00    +0.000 A 
ATOM     10  C   UNL     1      -2.257  11.771  18.373  0.00  0.00    +0.000 A 
ATOM     11  C   UNL     1      -1.380  10.678  18.269  0.00  0.00    +0.000 A 
ATOM     12  C   UNL     1      -1.624   9.676  17.172  0.00  0.00    +0.000 C 
ENDBRANCH   3   5
BRANCH   1  14
ATOM     13  C   UNL     1       3.336   7.777  17.461  0.00  0.00    +0.000 C 
ATOM     14  C   UNL     1       2.431   8.041  18.427  0.00  0.00    +0.000 C 
BRANCH  13  19
ATOM     15  C   UNL     1       7.495   4.489  17.206  0.00  0.00    +0.000 C 
ATOM     16  C   UNL     1       6.118   5.059  17.268  0.00  0.00    +0.000 A 
ATOM     17  C   UNL     1       4.925   4.377  17.306  0.00  0.00    +0.000 A 
ATOM     18  C   UNL     1       3.803   5.253  17.348  0.00  0.00    +0.000 A 
ATOM     19  C   UNL     1       4.147   6.595  17.391  0.00  0.00    +0.000 A 
ATOM     20  S   UNL     1       5.869   6.750  17.289  0.00  0.00    +0.000 S 
ENDBRANCH  13  19
BRANCH  14  21
ATOM     21  C   UNL     1       2.196   7.184  19.537  0.00  0.00    +0.000 C 
ATOM     22  N   UNL     1       1.958   6.526  20.461  0.00  0.00    +0.000 NA
ENDBRANCH  14  21
ENDBRANCH   1  14
TORSDOF 4
ENDMDL
