MODEL 1
REMARK VINA RESULT:      -7.2      0.000      0.000
REMARK  Name = 
REMARK  4 active torsions:
REMARK  status: ('A' for Active; 'I' for Inactive)
REMARK    1  A    between atoms: C_3  and  C_4
REMARK    2  A    between atoms: C_4  and  C_5
REMARK    3  A    between atoms: C_8  and  O_9
REMARK    4  A    between atoms: N_15  and  C_16
REMARK                            x       y       z     vdW  Elec       q    Type
REMARK                         _______ _______ _______ _____ _____    ______ ____
ROOT
ATOM      1  O   UNL     1       5.703   3.440  15.870  0.00  0.00    +0.000 OA
ATOM      2  C   UNL     1       4.805   4.046  16.444  0.00  0.00    +0.000 C 
ATOM      3  C   UNL     1       3.440   3.448  16.744  0.00  0.00    +0.000 C 
ATOM      4  N   UNL     1       2.814   4.579  17.380  0.00  0.00    +0.000 N 
ATOM      5  C   UNL     1       3.691   5.623  17.587  0.00  0.00    +0.000 C 
ATOM      6  S   UNL     1       3.202   6.963  18.431  0.00  0.00    +0.000 S 
ATOM      7  N   UNL     1       4.897   5.301  17.019  0.00  0.00    +0.000 N 
ATOM      8  H   UNL     1       1.878   4.578  17.768  0.00  0.00    +0.000 HD
ENDROOT
BRANCH   7   9
ATOM      9  C   UNL     1       6.233   5.840  17.321  0.00  0.00    +0.000 C 
ATOM     10  C   UNL     1       6.640   5.384  18.733  0.00  0.00    +0.000 C 
ATOM     11  C   UNL     1       8.048   5.822  19.097  0.00  0.00    +0.000 C 
ATOM     12  C   UNL     1       8.221   7.325  18.919  0.00  0.00    +0.000 C 
ATOM     13  C   UNL     1       7.861   7.761  17.501  0.00  0.00    +0.000 C 
ATOM     14  C   UNL     1       6.434   7.348  17.122  0.00  0.00    +0.000 C 
ENDBRANCH   7   9
BRANCH   3  15
ATOM     15  C   UNL     1       3.653   2.248  17.684  0.00  0.00    +0.000 C 
BRANCH  15  16
ATOM     16  C   UNL     1       2.923   2.420  18.990  0.00  0.00    +0.000 A 
ATOM     17  C   UNL     1       3.637   2.572  20.185  0.00  0.00    +0.000 A 
ATOM     18  C   UNL     1       2.967   2.644  21.406  0.00  0.00    +0.000 A 
ATOM     19  C   UNL     1       1.577   2.570  21.427  0.00  0.00    +0.000 A 
ATOM     20  C   UNL     1       0.851   2.454  20.248  0.00  0.00    +0.000 A 
ATOM     21  C   UNL     1       1.521   2.384  19.029  0.00  0.00    +0.000 A 
BRANCH  19  22
ATOM     22  O   UNL     1       0.882   2.595  22.598  0.00  0.00    +0.000 OA
ATOM     23  H   UNL     1       0.532   3.492  22.731  0.00  0.00    +0.000 HD
ENDBRANCH  19  22
ENDBRANCH  15  16
ENDBRANCH   3  15
TORSDOF 4
ENDMDL
MODEL 2
REMARK VINA RESULT:      -7.1      0.153      1.066
REMARK  Name = 
REMARK  4 active torsions:
REMARK  status: ('A' for Active; 'I' for Inactive)
REMARK    1  A    between atoms: C_3  and  C_4
REMARK    2  A    between atoms: C_4  and  C_5
REMARK    3  A    between atoms: C_8  and  O_9
REMARK    4  A    between atoms: N_15  and  C_16
REMARK                            x       y       z     vdW  Elec       q    Type
REMARK                         _______ _______ _______ _____ _____    ______ ____
ROOT
ATOM      1  O   UNL     1       5.616   3.593  15.737  0.00  0.00    +0.000 OA
ATOM      2  C   UNL     1       4.741   4.139  16.398  0.00  0.00    +0.000 C 
ATOM      3  C   UNL     1       3.397   3.500  16.712  0.00  0.00    +0.000 C 
ATOM      4  N   UNL     1       2.790   4.569  17.464  0.00  0.00    +0.000 N 
ATOM      5  C   UNL     1       3.665   5.606  17.713  0.00  0.00    +0.000 C 
ATOM      6  S   UNL     1       3.203   6.868  18.682  0.00  0.00    +0.000 S 
ATOM      7  N   UNL     1       4.846   5.346  17.065  0.00  0.00    +0.000 N 
ATOM      8  H   UNL     1       1.873   4.524  17.894  0.00  0.00    +0.000 HD
ENDROOT
BRANCH   7   9
ATOM      9  C   UNL     1       6.190   5.878  17.347  0.00  0.00    +0.000 C 
ATOM     10  C   UNL     1       6.626   5.397  18.742  0.00  0.00    +0.000 C 
ATOM     11  C   UNL     1       8.043   5.828  19.083  0.00  0.00    +0.000 C 
ATOM     12  C   UNL     1       8.214   7.334  18.927  0.00  0.00    +0.000 C 
ATOM     13  C   UNL     1       7.825   7.794  17.525  0.00  0.00    +0.000 C 
ATOM     14  C   UNL     1       6.389   7.389  17.170  0.00  0.00    +0.000 C 
ENDBRANCH   7   9
BRANCH   3  15
ATOM     15  C   UNL     1       3.666   2.234  17.543  0.00  0.00    +0.000 C 
BRANCH  15  16
ATOM     16  C   UNL     1       2.989   2.288  18.886  0.00  0.00    +0.000 A 
ATOM     17  C   UNL     1       1.592   2.231  18.978  0.00  0.00    +0.000 A 
ATOM     18  C   UNL     1       0.957   2.368  20.211  0.00  0.00    +0.000 A 
ATOM     19  C   UNL     1       1.725   2.557  21.357  0.00  0.00    +0.000 A 
ATOM     20  C   UNL     1       3.111   2.582  21.290  0.00  0.00    +0.000 A 
ATOM     21  C   UNL     1       3.746   2.442  20.058  0.00  0.00    +0.000 A 
BRANCH  19  22
ATOM     22  O   UNL     1       1.147   2.736  22.578  0.00  0.00    +0.000 OA
ATOM     23  H   UNL     1       0.477   2.044  22.707  0.00  0.00    +0.000 HD
ENDBRANCH  19  22
ENDBRANCH  15  16
ENDBRANCH   3  15
TORSDOF 4
ENDMDL
MODEL 3
REMARK VINA RESULT:      -6.6      2.297      6.067
REMARK  Name = 
REMARK  4 active torsions:
REMARK  status: ('A' for Active; 'I' for Inactive)
REMARK    1  A    between atoms: C_3  and  C_4
REMARK    2  A    between atoms: C_4  and  C_5
REMARK    3  A    between atoms: C_8  and  O_9
REMARK    4  A    between atoms: N_15  and  C_16
REMARK                            x       y       z     vdW  Elec       q    Type
REMARK                         _______ _______ _______ _____ _____    ______ ____
ROOT
ATOM      1  O   UNL     1       6.517   4.766  20.192  0.00  0.00    +0.000 OA
ATOM      2  C   UNL     1       6.124   5.447  19.253  0.00  0.00    +0.000 C 
ATOM      3  C   UNL     1       7.028   5.952  18.139  0.00  0.00    +0.000 C 
ATOM      4  N   UNL     1       6.066   6.691  17.362  0.00  0.00    +0.000 N 
ATOM      5  C   UNL     1       4.776   6.526  17.820  0.00  0.00    +0.000 C 
ATOM      6  S   UNL     1       3.507   7.180  16.979  0.00  0.00    +0.000 S 
ATOM      7  N   UNL     1       4.811   5.774  18.967  0.00  0.00    +0.000 N 
ATOM      8  H   UNL     1       6.271   7.167  16.491  0.00  0.00    +0.000 HD
ENDROOT
BRANCH   7   9
ATOM      9  C   UNL     1       3.738   4.974  19.579  0.00  0.00    +0.000 C 
ATOM     10  C   UNL     1       3.378   3.822  18.625  0.00  0.00    +0.000 C 
ATOM     11  C   UNL     1       2.335   2.888  19.217  0.00  0.00    +0.000 C 
ATOM     12  C   UNL     1       1.098   3.656  19.664  0.00  0.00    +0.000 C 
ATOM     13  C   UNL     1       1.460   4.766  20.648  0.00  0.00    +0.000 C 
ATOM     14  C   UNL     1       2.495   5.734  20.060  0.00  0.00    +0.000 C 
ENDBRANCH   7   9
BRANCH   3  15
ATOM     15  C   UNL     1       7.601   4.724  17.411  0.00  0.00    +0.000 C 
BRANCH  15  16
ATOM     16  C   UNL     1       6.943   4.504  16.075  0.00  0.00    +0.000 A 
ATOM     17  C   UNL     1       5.783   3.725  15.976  0.00  0.00    +0.000 A 
ATOM     18  C   UNL     1       5.220   3.447  14.732  0.00  0.00    +0.000 A 
ATOM     19  C   UNL     1       5.818   3.956  13.583  0.00  0.00    +0.000 A 
ATOM     20  C   UNL     1       6.949   4.759  13.664  0.00  0.00    +0.000 A 
ATOM     21  C   UNL     1       7.510   5.038  14.908  0.00  0.00    +0.000 A 
BRANCH  19  22
ATOM     22  O   UNL     1       5.327   3.678  12.343  0.00  0.00    +0.000 OA
ATOM     23  H   UNL     1       4.708   4.383  12.090  0.00  0.00    +0.000 HD
ENDBRANCH  19  22
ENDBRANCH  15  16
ENDBRANCH   3  15
TORSDOF 4
ENDMDL
MODEL 4
REMARK VINA RESULT:      -6.5      4.567      6.103
REMARK  Name = 
REMARK  4 active torsions:
REMARK  status: ('A' for Active; 'I' for Inactive)
REMARK    1  A    between atoms: C_3  and  C_4
REMARK    2  A    between atoms: C_4  and  C_5
REMARK    3  A    between atoms: C_8  and  O_9
REMARK    4  A    between atoms: N_15  and  C_16
REMARK                            x       y       z     vdW  Elec       q    Type
REMARK                         _______ _______ _______ _____ _____    ______ ____
ROOT
ATOM      1  O   UNL     1       1.859   6.474  20.847  0.00  0.00    +0.000 OA
ATOM      2  C   UNL     1       2.054   7.254  19.922  0.00  0.00    +0.000 C 
ATOM      3  C   UNL     1       2.654   6.847  18.586  0.00  0.00    +0.000 C 
ATOM      4  N   UNL     1       2.672   8.128  17.928  0.00  0.00    +0.000 N 
ATOM      5  C   UNL     1       2.040   9.110  18.661  0.00  0.00    +0.000 C 
ATOM      6  S   UNL     1       1.830  10.622  18.017  0.00  0.00    +0.000 S 
ATOM      7  N   UNL     1       1.666   8.581  19.870  0.00  0.00    +0.000 N 
ATOM      8  H   UNL     1       2.981   8.283  16.975  0.00  0.00    +0.000 HD
ENDROOT
BRANCH   7   9
ATOM      9  C   UNL     1       0.622   9.046  20.798  0.00  0.00    +0.000 C 
ATOM     10  C   UNL     1       0.068  10.385  20.283  0.00  0.00    +0.000 C 
ATOM     11  C   UNL     1      -1.082  10.899  21.135  0.00  0.00    +0.000 C 
ATOM     12  C   UNL     1      -0.686  10.980  22.603  0.00  0.00    +0.000 C 
ATOM     13  C   UNL     1      -0.183   9.634  23.118  0.00  0.00    +0.000 C 
ATOM     14  C   UNL     1       0.993   9.109  22.286  0.00  0.00    +0.000 C 
ENDBRANCH   7   9
BRANCH   3  15
ATOM     15  C   UNL     1       1.699   5.831  17.936  0.00  0.00    +0.000 C 
BRANCH  15  16
ATOM     16  C   UNL     1       2.253   4.432  17.978  0.00  0.00    +0.000 A 
ATOM     17  C   UNL     1       1.529   3.400  18.588  0.00  0.00    +0.000 A 
ATOM     18  C   UNL     1       2.076   2.124  18.706  0.00  0.00    +0.000 A 
ATOM     19  C   UNL     1       3.351   1.879  18.205  0.00  0.00    +0.000 A 
ATOM     20  C   UNL     1       4.071   2.881  17.567  0.00  0.00    +0.000 A 
ATOM     21  C   UNL     1       3.523   4.156  17.447  0.00  0.00    +0.000 A 
BRANCH  19  22
ATOM     22  O   UNL     1       3.943   0.659  18.333  0.00  0.00    +0.000 OA
ATOM     23  H   UNL     1       3.264   0.010  18.583  0.00  0.00    +0.000 HD
ENDBRANCH  19  22
ENDBRANCH  15  16
ENDBRANCH   3  15
TORSDOF 4
ENDMDL
MODEL 5
REMARK VINA RESULT:      -6.3      0.630      1.649
REMARK  Name = 
REMARK  4 active torsions:
REMARK  status: ('A' for Active; 'I' for Inactive)
REMARK    1  A    between atoms: C_3  and  C_4
REMARK    2  A    between atoms: C_4  and  C_5
REMARK    3  A    between atoms: C_8  and  O_9
REMARK    4  A    between atoms: N_15  and  C_16
REMARK                            x       y       z     vdW  Elec       q    Type
REMARK                         _______ _______ _______ _____ _____    ______ ____
ROOT
ATOM      1  O   UNL     1       5.422   4.021  16.277  0.00  0.00    +0.000 OA
ATOM      2  C   UNL     1       4.386   4.429  16.789  0.00  0.00    +0.000 C 
ATOM      3  C   UNL     1       3.064   3.680  16.734  0.00  0.00    +0.000 C 
ATOM      4  N   UNL     1       2.228   4.610  17.449  0.00  0.00    +0.000 N 
ATOM      5  C   UNL     1       2.944   5.656  17.994  0.00  0.00    +0.000 C 
ATOM      6  S   UNL     1       2.188   6.758  18.973  0.00  0.00    +0.000 S 
ATOM      7  N   UNL     1       4.251   5.547  17.593  0.00  0.00    +0.000 N 
ATOM      8  H   UNL     1       1.249   4.460  17.663  0.00  0.00    +0.000 HD
ENDROOT
BRANCH   7   9
ATOM      9  C   UNL     1       5.458   6.115  18.216  0.00  0.00    +0.000 C 
ATOM     10  C   UNL     1       6.242   6.895  17.146  0.00  0.00    +0.000 C 
ATOM     11  C   UNL     1       7.463   7.593  17.722  0.00  0.00    +0.000 C 
ATOM     12  C   UNL     1       8.356   6.613  18.471  0.00  0.00    +0.000 C 
ATOM     13  C   UNL     1       7.580   5.879  19.563  0.00  0.00    +0.000 C 
ATOM     14  C   UNL     1       6.356   5.148  18.998  0.00  0.00    +0.000 C 
ENDBRANCH   7   9
BRANCH   3  15
ATOM     15  C   UNL     1       3.258   2.337  17.458  0.00  0.00    +0.000 C 
BRANCH  15  16
ATOM     16  C   UNL     1       2.667   2.354  18.843  0.00  0.00    +0.000 A 
ATOM     17  C   UNL     1       1.279   2.317  19.021  0.00  0.00    +0.000 A 
ATOM     18  C   UNL     1       0.726   2.421  20.297  0.00  0.00    +0.000 A 
ATOM     19  C   UNL     1       1.567   2.557  21.397  0.00  0.00    +0.000 A 
ATOM     20  C   UNL     1       2.947   2.561  21.242  0.00  0.00    +0.000 A 
ATOM     21  C   UNL     1       3.500   2.455  19.968  0.00  0.00    +0.000 A 
BRANCH  19  22
ATOM     22  O   UNL     1       1.071   2.702  22.657  0.00  0.00    +0.000 OA
ATOM     23  H   UNL     1       1.717   2.340  23.287  0.00  0.00    +0.000 HD
ENDBRANCH  19  22
ENDBRANCH  15  16
ENDBRANCH   3  15
TORSDOF 4
ENDMDL
MODEL 6
REMARK VINA RESULT:      -6.3      3.447      6.649
REMARK  Name = 
REMARK  4 active torsions:
REMARK  status: ('A' for Active; 'I' for Inactive)
REMARK    1  A    between atoms: C_3  and  C_4
REMARK    2  A    between atoms: C_4  and  C_5
REMARK    3  A    between atoms: C_8  and  O_9
REMARK    4  A    between atoms: N_15  and  C_16
REMARK                            x       y       z     vdW  Elec       q    Type
REMARK                         _______ _______ _______ _____ _____    ______ ____
ROOT
ATOM      1  O   UNL     1       4.874   3.650  16.543  0.00  0.00    +0.000 OA
ATOM      2  C   UNL     1       5.748   4.509  16.518  0.00  0.00    +0.000 C 
ATOM      3  C   UNL     1       6.719   4.693  15.363  0.00  0.00    +0.000 C 
ATOM      4  N   UNL     1       7.504   5.787  15.876  0.00  0.00    +0.000 N 
ATOM      5  C   UNL     1       6.997   6.295  17.055  0.00  0.00    +0.000 C 
ATOM      6  S   UNL     1       7.674   7.646  17.735  0.00  0.00    +0.000 S 
ATOM      7  N   UNL     1       5.935   5.520  17.444  0.00  0.00    +0.000 N 
ATOM      8  H   UNL     1       8.259   6.241  15.376  0.00  0.00    +0.000 HD
ENDROOT
BRANCH   7   9
ATOM      9  C   UNL     1       4.820   5.866  18.342  0.00  0.00    +0.000 C 
ATOM     10  C   UNL     1       4.418   4.609  19.133  0.00  0.00    +0.000 C 
ATOM     11  C   UNL     1       3.328   4.895  20.153  0.00  0.00    +0.000 C 
ATOM     12  C   UNL     1       2.123   5.559  19.500  0.00  0.00    +0.000 C 
ATOM     13  C   UNL     1       2.524   6.831  18.758  0.00  0.00    +0.000 C 
ATOM     14  C   UNL     1       3.608   6.560  17.707  0.00  0.00    +0.000 C 
ENDBRANCH   7   9
BRANCH   3  15
ATOM     15  C   UNL     1       5.896   5.055  14.114  0.00  0.00    +0.000 C 
BRANCH  15  16
ATOM     16  C   UNL     1       6.013   4.006  13.041  0.00  0.00    +0.000 A 
ATOM     17  C   UNL     1       4.867   3.371  12.543  0.00  0.00    +0.000 A 
ATOM     18  C   UNL     1       4.977   2.339  11.613  0.00  0.00    +0.000 A 
ATOM     19  C   UNL     1       6.239   1.945  11.176  0.00  0.00    +0.000 A 
ATOM     20  C   UNL     1       7.383   2.586  11.633  0.00  0.00    +0.000 A 
ATOM     21  C   UNL     1       7.273   3.619  12.560  0.00  0.00    +0.000 A 
BRANCH  19  22
ATOM     22  O   UNL     1       6.397   0.915  10.299  0.00  0.00    +0.000 OA
ATOM     23  H   UNL     1       6.310   1.261   9.396  0.00  0.00    +0.000 HD
ENDBRANCH  19  22
ENDBRANCH  15  16
ENDBRANCH   3  15
TORSDOF 4
ENDMDL
MODEL 7
REMARK VINA RESULT:      -6.3      0.597      1.252
REMARK  Name = 
REMARK  4 active torsions:
REMARK  status: ('A' for Active; 'I' for Inactive)
REMARK    1  A    between atoms: C_3  and  C_4
REMARK    2  A    between atoms: C_4  and  C_5
REMARK    3  A    between atoms: C_8  and  O_9
REMARK    4  A    between atoms: N_15  and  C_16
REMARK                            x       y       z     vdW  Elec       q    Type
REMARK                         _______ _______ _______ _____ _____    ______ ____
ROOT
ATOM      1  O   UNL     1       5.494   3.903  16.391  0.00  0.00    +0.000 OA
ATOM      2  C   UNL     1       4.449   4.372  16.827  0.00  0.00    +0.000 C 
ATOM      3  C   UNL     1       3.106   3.663  16.747  0.00  0.00    +0.000 C 
ATOM      4  N   UNL     1       2.269   4.657  17.367  0.00  0.00    +0.000 N 
ATOM      5  C   UNL     1       2.993   5.710  17.889  0.00  0.00    +0.000 C 
ATOM      6  S   UNL     1       2.228   6.889  18.766  0.00  0.00    +0.000 S 
ATOM      7  N   UNL     1       4.313   5.537  17.560  0.00  0.00    +0.000 N 
ATOM      8  H   UNL     1       1.276   4.550  17.539  0.00  0.00    +0.000 HD
ENDROOT
BRANCH   7   9
ATOM      9  C   UNL     1       5.507   6.102  18.211  0.00  0.00    +0.000 C 
ATOM     10  C   UNL     1       6.315   6.885  17.161  0.00  0.00    +0.000 C 
ATOM     11  C   UNL     1       7.524   7.580  17.765  0.00  0.00    +0.000 C 
ATOM     12  C   UNL     1       8.400   6.596  18.530  0.00  0.00    +0.000 C 
ATOM     13  C   UNL     1       7.600   5.859  19.602  0.00  0.00    +0.000 C 
ATOM     14  C   UNL     1       6.387   5.132  19.009  0.00  0.00    +0.000 C 
ENDBRANCH   7   9
BRANCH   3  15
ATOM     15  C   UNL     1       3.219   2.358  17.554  0.00  0.00    +0.000 C 
BRANCH  15  16
ATOM     16  C   UNL     1       2.630   2.495  18.932  0.00  0.00    +0.000 A 
ATOM     17  C   UNL     1       3.464   2.557  20.056  0.00  0.00    +0.000 A 
ATOM     18  C   UNL     1       2.921   2.597  21.339  0.00  0.00    +0.000 A 
ATOM     19  C   UNL     1       1.538   2.580  21.496  0.00  0.00    +0.000 A 
ATOM     20  C   UNL     1       0.696   2.554  20.392  0.00  0.00    +0.000 A 
ATOM     21  C   UNL     1       1.238   2.517  19.109  0.00  0.00    +0.000 A 
BRANCH  19  22
ATOM     22  O   UNL     1       0.963   2.577  22.731  0.00  0.00    +0.000 OA
ATOM     23  H   UNL     1       1.179   3.414  23.175  0.00  0.00    +0.000 HD
ENDBRANCH  19  22
ENDBRANCH  15  16
ENDBRANCH   3  15
TORSDOF 4
ENDMDL
MODEL 8
REMARK VINA RESULT:      -6.3      2.285      5.955
REMARK  Name = 
REMARK  4 active torsions:
REMARK  status: ('A' for Active; 'I' for Inactive)
REMARK    1  A    between atoms: C_3  and  C_4
REMARK    2  A    between atoms: C_4  and  C_5
REMARK    3  A    between atoms: C_8  and  O_9
REMARK    4  A    between atoms: N_15  and  C_16
REMARK                            x       y       z     vdW  Elec       q    Type
REMARK                         _______ _______ _______ _____ _____    ______ ____
ROOT
ATOM      1  O   UNL     1       6.538   4.777  20.248  0.00  0.00    +0.000 OA
ATOM      2  C   UNL     1       6.154   5.442  19.293  0.00  0.00    +0.000 C 
ATOM      3  C   UNL     1       7.069   5.928  18.180  0.00  0.00    +0.000 C 
ATOM      4  N   UNL     1       6.115   6.652  17.380  0.00  0.00    +0.000 N 
ATOM      5  C   UNL     1       4.820   6.495  17.828  0.00  0.00    +0.000 C 
ATOM      6  S   UNL     1       3.559   7.133  16.962  0.00  0.00    +0.000 S 
ATOM      7  N   UNL     1       4.844   5.763  18.987  0.00  0.00    +0.000 N 
ATOM      8  H   UNL     1       6.328   7.113  16.503  0.00  0.00    +0.000 HD
ENDROOT
BRANCH   7   9
ATOM      9  C   UNL     1       3.765   4.973  19.603  0.00  0.00    +0.000 C 
ATOM     10  C   UNL     1       3.401   3.816  18.656  0.00  0.00    +0.000 C 
ATOM     11  C   UNL     1       2.352   2.892  19.251  0.00  0.00    +0.000 C 
ATOM     12  C   UNL     1       1.118   3.670  19.690  0.00  0.00    +0.000 C 
ATOM     13  C   UNL     1       1.483   4.784  20.667  0.00  0.00    +0.000 C 
ATOM     14  C   UNL     1       2.524   5.742  20.075  0.00  0.00    +0.000 C 
ENDBRANCH   7   9
BRANCH   3  15
ATOM     15  C   UNL     1       7.650   4.688  17.479  0.00  0.00    +0.000 C 
BRANCH  15  16
ATOM     16  C   UNL     1       6.980   4.423  16.157  0.00  0.00    +0.000 A 
ATOM     17  C   UNL     1       7.501   4.968  14.977  0.00  0.00    +0.000 A 
ATOM     18  C   UNL     1       6.835   4.798  13.764  0.00  0.00    +0.000 A 
ATOM     19  C   UNL     1       5.647   4.074  13.734  0.00  0.00    +0.000 A 
ATOM     20  C   UNL     1       5.134   3.497  14.888  0.00  0.00    +0.000 A 
ATOM     21  C   UNL     1       5.800   3.665  16.100  0.00  0.00    +0.000 A 
BRANCH  19  22
ATOM     22  O   UNL     1       4.941   3.915  12.579  0.00  0.00    +0.000 OA
ATOM     23  H   UNL     1       4.970   4.749  12.082  0.00  0.00    +0.000 HD
ENDBRANCH  19  22
ENDBRANCH  15  16
ENDBRANCH   3  15
TORSDOF 4
ENDMDL
MODEL 9
REMARK VINA RESULT:      -6.2      2.145      6.084
REMARK  Name = 
REMARK  4 active torsions:
REMARK  status: ('A' for Active; 'I' for Inactive)
REMARK    1  A    between atoms: C_3  and  C_4
REMARK    2  A    between atoms: C_4  and  C_5
REMARK    3  A    between atoms: C_8  and  O_9
REMARK    4  A    between atoms: N_15  and  C_16
REMARK                            x       y       z     vdW  Elec       q    Type
REMARK                         _______ _______ _______ _____ _____    ______ ____
ROOT
ATOM      1  O   UNL     1       5.818   4.219  20.133  0.00  0.00    +0.000 OA
ATOM      2  C   UNL     1       5.663   5.081  19.276  0.00  0.00    +0.000 C 
ATOM      3  C   UNL     1       6.807   5.718  18.503  0.00  0.00    +0.000 C 
ATOM      4  N   UNL     1       6.063   6.643  17.687  0.00  0.00    +0.000 N 
ATOM      5  C   UNL     1       4.699   6.482  17.812  0.00  0.00    +0.000 C 
ATOM      6  S   UNL     1       3.669   7.355  16.852  0.00  0.00    +0.000 S 
ATOM      7  N   UNL     1       4.457   5.536  18.775  0.00  0.00    +0.000 N 
ATOM      8  H   UNL     1       6.471   7.254  16.988  0.00  0.00    +0.000 HD
ENDROOT
BRANCH   7   9
ATOM      9  C   UNL     1       3.255   4.709  18.975  0.00  0.00    +0.000 C 
ATOM     10  C   UNL     1       2.609   5.097  20.317  0.00  0.00    +0.000 C 
ATOM     11  C   UNL     1       1.308   4.353  20.566  0.00  0.00    +0.000 C 
ATOM     12  C   UNL     1       1.504   2.847  20.450  0.00  0.00    +0.000 C 
ATOM     13  C   UNL     1       2.100   2.467  19.097  0.00  0.00    +0.000 C 
ATOM     14  C   UNL     1       3.427   3.191  18.836  0.00  0.00    +0.000 C 
ENDBRANCH   7   9
BRANCH   3  15
ATOM     15  C   UNL     1       7.504   4.606  17.699  0.00  0.00    +0.000 C 
BRANCH  15  16
ATOM     16  C   UNL     1       6.909   4.447  16.326  0.00  0.00    +0.000 A 
ATOM     17  C   UNL     1       5.793   3.624  16.128  0.00  0.00    +0.000 A 
ATOM     18  C   UNL     1       5.292   3.406  14.846  0.00  0.00    +0.000 A 
ATOM     19  C   UNL     1       5.909   4.018  13.759  0.00  0.00    +0.000 A 
ATOM     20  C   UNL     1       6.996   4.864  13.939  0.00  0.00    +0.000 A 
ATOM     21  C   UNL     1       7.495   5.084  15.221  0.00  0.00    +0.000 A 
BRANCH  19  22
ATOM     22  O   UNL     1       5.481   3.802  12.484  0.00  0.00    +0.000 OA
ATOM     23  H   UNL     1       4.559   3.496  12.515  0.00  0.00    +0.000 HD
ENDBRANCH  19  22
ENDBRANCH  15  16
ENDBRANCH   3  15
TORSDOF 4
ENDMDL
