MODEL 1
REMARK VINA RESULT:      -8.8      0.000      0.000
REMARK  Name = 
REMARK  5 active torsions:
REMARK  status: ('A' for Active; 'I' for Inactive)
REMARK    1  A    between atoms: N_2  and  C_4
REMARK    2  A    between atoms: C_6  and  C_7
REMARK    3  A    between atoms: C_13  and  S_14
REMARK    4  A    between atoms: S_14  and  C_15
REMARK    5  A    between atoms: C_18  and  C_19
REMARK                            x       y       z     vdW  Elec       q    Type
REMARK                         _______ _______ _______ _____ _____    ______ ____
ROOT
ATOM      1  S   UNL     1       7.760   5.143  18.197  0.00  0.00    +0.000 S 
ENDROOT
BRANCH   1   7
ATOM      2  C   UNL     1       5.267   4.516  16.933  0.00  0.00    +0.000 A 
ATOM      3  C   UNL     1       3.866   4.341  16.986  0.00  0.00    +0.000 A 
ATOM      4  C   UNL     1       3.208   4.316  18.219  0.00  0.00    +0.000 A 
ATOM      5  C   UNL     1       3.975   4.396  19.390  0.00  0.00    +0.000 A 
ATOM      6  C   UNL     1       5.365   4.565  19.327  0.00  0.00    +0.000 A 
ATOM      7  C   UNL     1       6.039   4.659  18.097  0.00  0.00    +0.000 A 
BRANCH   4   8
ATOM      8  C   UNL     1       1.698   4.253  18.311  0.00  0.00    +0.000 C 
ATOM      9  F   UNL     1       1.069   4.932  17.315  0.00  0.00    +0.000 F 
ATOM     10  F   UNL     1       1.219   2.982  18.269  0.00  0.00    +0.000 F 
ATOM     11  F   UNL     1       1.236   4.791  19.475  0.00  0.00    +0.000 F 
ENDBRANCH   4   8
BRANCH   2  13
ATOM     12  O   UNL     1       6.402   3.575  15.171  0.00  0.00    +0.000 OA
ATOM     13  N   UNL     1       5.862   4.599  15.609  0.00  0.00    +0.000 N 
ATOM     14  O   UNL     1       5.754   5.667  14.993  0.00  0.00    +0.000 OA
ENDBRANCH   2  13
ENDBRANCH   1   7
BRANCH   1  15
ATOM     15  C   UNL     1       7.659   6.837  17.960  0.00  0.00    +0.000 A 
ATOM     16  N   UNL     1       6.881   7.523  17.166  0.00  0.00    +0.000 NA
ATOM     17  N   UNL     1       7.241   8.852  17.301  0.00  0.00    +0.000 NA
ATOM     18  C   UNL     1       8.222   8.941  18.186  0.00  0.00    +0.000 A 
ATOM     19  N   UNL     1       8.524   7.667  18.598  0.00  0.00    +0.000 N 
ATOM     20  H   UNL     1       9.217   7.386  19.274  0.00  0.00    +0.000 HD
BRANCH  18  21
ATOM     21  C   UNL     1       8.862  10.159  18.689  0.00  0.00    +0.000 A 
ATOM     22  C   UNL     1       9.274  10.222  20.031  0.00  0.00    +0.000 A 
ATOM     23  C   UNL     1       9.937  11.350  20.530  0.00  0.00    +0.000 A 
ATOM     24  C   UNL     1      10.189  12.432  19.691  0.00  0.00    +0.000 A 
ATOM     25 CL   UNL     1      11.019  13.812  20.292  0.00  0.00    +0.000 Cl
ATOM     26  C   UNL     1       9.776  12.398  18.363  0.00  0.00    +0.000 A 
ATOM     27  C   UNL     1       9.114  11.270  17.865  0.00  0.00    +0.000 A 
ENDBRANCH  18  21
ENDBRANCH   1  15
TORSDOF 5
ENDMDL
MODEL 2
REMARK VINA RESULT:      -8.8      0.116      1.188
REMARK  Name = 
REMARK  5 active torsions:
REMARK  status: ('A' for Active; 'I' for Inactive)
REMARK    1  A    between atoms: N_2  and  C_4
REMARK    2  A    between atoms: C_6  and  C_7
REMARK    3  A    between atoms: C_13  and  S_14
REMARK    4  A    between atoms: S_14  and  C_15
REMARK    5  A    between atoms: C_18  and  C_19
REMARK                            x       y       z     vdW  Elec       q    Type
REMARK                         _______ _______ _______ _____ _____    ______ ____
ROOT
ATOM      1  S   UNL     1       7.770   5.147  18.218  0.00  0.00    +0.000 S 
ENDROOT
BRANCH   1   7
ATOM      2  C   UNL     1       5.282   4.542  16.933  0.00  0.00    +0.000 A 
ATOM      3  C   UNL     1       3.879   4.386  16.973  0.00  0.00    +0.000 A 
ATOM      4  C   UNL     1       3.207   4.381  18.199  0.00  0.00    +0.000 A 
ATOM      5  C   UNL     1       3.963   4.461  19.378  0.00  0.00    +0.000 A 
ATOM      6  C   UNL     1       5.356   4.611  19.328  0.00  0.00    +0.000 A 
ATOM      7  C   UNL     1       6.043   4.685  18.104  0.00  0.00    +0.000 A 
BRANCH   4   8
ATOM      8  C   UNL     1       1.696   4.339  18.276  0.00  0.00    +0.000 C 
ATOM      9  F   UNL     1       1.180   3.097  18.066  0.00  0.00    +0.000 F 
ATOM     10  F   UNL     1       1.216   4.753  19.478  0.00  0.00    +0.000 F 
ATOM     11  F   UNL     1       1.116   5.143  17.341  0.00  0.00    +0.000 F 
ENDBRANCH   4   8
BRANCH   2  13
ATOM     12  O   UNL     1       6.421   3.569  15.191  0.00  0.00    +0.000 OA
ATOM     13  N   UNL     1       5.892   4.605  15.615  0.00  0.00    +0.000 N 
ATOM     14  O   UNL     1       5.806   5.669  14.989  0.00  0.00    +0.000 OA
ENDBRANCH   2  13
ENDBRANCH   1   7
BRANCH   1  15
ATOM     15  C   UNL     1       7.691   6.844  17.995  0.00  0.00    +0.000 A 
ATOM     16  N   UNL     1       6.930   7.546  17.198  0.00  0.00    +0.000 NA
ATOM     17  N   UNL     1       7.303   8.869  17.350  0.00  0.00    +0.000 NA
ATOM     18  C   UNL     1       8.275   8.939  18.247  0.00  0.00    +0.000 A 
ATOM     19  N   UNL     1       8.557   7.658  18.651  0.00  0.00    +0.000 N 
ATOM     20  H   UNL     1       9.239   7.363  19.332  0.00  0.00    +0.000 HD
BRANCH  18  21
ATOM     21  C   UNL     1       8.923  10.146  18.769  0.00  0.00    +0.000 A 
ATOM     22  C   UNL     1       9.178  11.223  17.906  0.00  0.00    +0.000 A 
ATOM     23  C   UNL     1       9.746  12.411  18.383  0.00  0.00    +0.000 A 
ATOM     24  C   UNL     1      10.070  12.531  19.730  0.00  0.00    +0.000 A 
ATOM     25 CL   UNL     1      10.750  13.993  20.327  0.00  0.00    +0.000 Cl
ATOM     26  C   UNL     1       9.840  11.470  20.602  0.00  0.00    +0.000 A 
ATOM     27  C   UNL     1       9.273  10.283  20.124  0.00  0.00    +0.000 A 
ENDBRANCH  18  21
ENDBRANCH   1  15
TORSDOF 5
ENDMDL
MODEL 3
REMARK VINA RESULT:      -8.4      0.886      1.272
REMARK  Name = 
REMARK  5 active torsions:
REMARK  status: ('A' for Active; 'I' for Inactive)
REMARK    1  A    between atoms: N_2  and  C_4
REMARK    2  A    between atoms: C_6  and  C_7
REMARK    3  A    between atoms: C_13  and  S_14
REMARK    4  A    between atoms: S_14  and  C_15
REMARK    5  A    between atoms: C_18  and  C_19
REMARK                            x       y       z     vdW  Elec       q    Type
REMARK                         _______ _______ _______ _____ _____    ______ ____
ROOT
ATOM      1  S   UNL     1       8.031   5.620  18.955  0.00  0.00    +0.000 S 
ENDROOT
BRANCH   1   7
ATOM      2  C   UNL     1       5.905   4.658  17.293  0.00  0.00    +0.000 A 
ATOM      3  C   UNL     1       4.532   4.437  17.052  0.00  0.00    +0.000 A 
ATOM      4  C   UNL     1       3.600   4.620  18.078  0.00  0.00    +0.000 A 
ATOM      5  C   UNL     1       4.068   4.956  19.357  0.00  0.00    +0.000 A 
ATOM      6  C   UNL     1       5.435   5.169  19.587  0.00  0.00    +0.000 A 
ATOM      7  C   UNL     1       6.380   5.054  18.554  0.00  0.00    +0.000 A 
BRANCH   4   8
ATOM      8  C   UNL     1       2.111   4.512  17.826  0.00  0.00    +0.000 C 
ATOM      9  F   UNL     1       1.408   4.106  18.919  0.00  0.00    +0.000 F 
ATOM     10  F   UNL     1       1.555   5.688  17.430  0.00  0.00    +0.000 F 
ATOM     11  F   UNL     1       1.824   3.610  16.846  0.00  0.00    +0.000 F 
ENDBRANCH   4   8
BRANCH   2  13
ATOM     12  O   UNL     1       6.337   4.791  15.040  0.00  0.00    +0.000 OA
ATOM     13  N   UNL     1       6.798   4.510  16.155  0.00  0.00    +0.000 N 
ATOM     14  O   UNL     1       7.963   4.159  16.376  0.00  0.00    +0.000 OA
ENDBRANCH   2  13
ENDBRANCH   1   7
BRANCH   1  15
ATOM     15  C   UNL     1       7.996   7.232  18.376  0.00  0.00    +0.000 A 
ATOM     16  N   UNL     1       7.379   7.733  17.338  0.00  0.00    +0.000 NA
ATOM     17  N   UNL     1       7.726   9.070  17.272  0.00  0.00    +0.000 NA
ATOM     18  C   UNL     1       8.536   9.352  18.282  0.00  0.00    +0.000 A 
ATOM     19  N   UNL     1       8.743   8.190  18.982  0.00  0.00    +0.000 N 
ATOM     20  H   UNL     1       9.301   8.062  19.811  0.00  0.00    +0.000 HD
BRANCH  18  21
ATOM     21  C   UNL     1       9.091  10.660  18.641  0.00  0.00    +0.000 A 
ATOM     22  C   UNL     1       9.919  10.774  19.770  0.00  0.00    +0.000 A 
ATOM     23  C   UNL     1      10.510  11.997  20.111  0.00  0.00    +0.000 A 
ATOM     24  C   UNL     1      10.272  13.122  19.327  0.00  0.00    +0.000 A 
ATOM     25 CL   UNL     1      11.010  14.623  19.728  0.00  0.00    +0.000 Cl
ATOM     26  C   UNL     1       9.442  13.036  18.213  0.00  0.00    +0.000 A 
ATOM     27  C   UNL     1       8.853  11.813  17.873  0.00  0.00    +0.000 A 
ENDBRANCH  18  21
ENDBRANCH   1  15
TORSDOF 5
ENDMDL
MODEL 4
REMARK VINA RESULT:      -8.3      5.921      7.229
REMARK  Name = 
REMARK  5 active torsions:
REMARK  status: ('A' for Active; 'I' for Inactive)
REMARK    1  A    between atoms: N_2  and  C_4
REMARK    2  A    between atoms: C_6  and  C_7
REMARK    3  A    between atoms: C_13  and  S_14
REMARK    4  A    between atoms: S_14  and  C_15
REMARK    5  A    between atoms: C_18  and  C_19
REMARK                            x       y       z     vdW  Elec       q    Type
REMARK                         _______ _______ _______ _____ _____    ______ ____
ROOT
ATOM      1  S   UNL     1       3.037   5.415  19.960  0.00  0.00    +0.000 S 
ENDROOT
BRANCH   1   7
ATOM      2  C   UNL     1       3.493   4.261  17.378  0.00  0.00    +0.000 A 
ATOM      3  C   UNL     1       4.322   4.032  16.257  0.00  0.00    +0.000 A 
ATOM      4  C   UNL     1       5.521   4.736  16.116  0.00  0.00    +0.000 A 
ATOM      5  C   UNL     1       5.840   5.715  17.068  0.00  0.00    +0.000 A 
ATOM      6  C   UNL     1       5.009   5.938  18.174  0.00  0.00    +0.000 A 
ATOM      7  C   UNL     1       3.832   5.195  18.370  0.00  0.00    +0.000 A 
BRANCH   4   8
ATOM      8  C   UNL     1       6.493   4.431  14.995  0.00  0.00    +0.000 C 
ATOM      9  F   UNL     1       6.552   5.411  14.053  0.00  0.00    +0.000 F 
ATOM     10  F   UNL     1       7.766   4.247  15.435  0.00  0.00    +0.000 F 
ATOM     11  F   UNL     1       6.156   3.293  14.325  0.00  0.00    +0.000 F 
ENDBRANCH   4   8
BRANCH   2  13
ATOM     12  O   UNL     1       2.461   2.249  17.788  0.00  0.00    +0.000 OA
ATOM     13  N   UNL     1       2.299   3.438  17.482  0.00  0.00    +0.000 N 
ATOM     14  O   UNL     1       1.203   3.984  17.303  0.00  0.00    +0.000 OA
ENDBRANCH   2  13
ENDBRANCH   1   7
BRANCH   1  15
ATOM     15  C   UNL     1       2.284   6.941  19.763  0.00  0.00    +0.000 A 
ATOM     16  N   UNL     1       2.238   7.721  18.715  0.00  0.00    +0.000 NA
ATOM     17  N   UNL     1       1.564   8.867  19.096  0.00  0.00    +0.000 NA
ATOM     18  C   UNL     1       1.205   8.749  20.366  0.00  0.00    +0.000 A 
ATOM     19  N   UNL     1       1.677   7.543  20.819  0.00  0.00    +0.000 N 
ATOM     20  H   UNL     1       1.567   7.144  21.738  0.00  0.00    +0.000 HD
BRANCH  18  21
ATOM     21  C   UNL     1       0.413   9.692  21.160  0.00  0.00    +0.000 A 
ATOM     22  C   UNL     1       0.104  10.955  20.629  0.00  0.00    +0.000 A 
ATOM     23  C   UNL     1      -0.696  11.860  21.338  0.00  0.00    +0.000 A 
ATOM     24  C   UNL     1      -1.191  11.511  22.591  0.00  0.00    +0.000 A 
ATOM     25 CL   UNL     1      -2.190  12.608  23.459  0.00  0.00    +0.000 Cl
ATOM     26  C   UNL     1      -0.885  10.270  23.143  0.00  0.00    +0.000 A 
ATOM     27  C   UNL     1      -0.085   9.367  22.433  0.00  0.00    +0.000 A 
ENDBRANCH  18  21
ENDBRANCH   1  15
TORSDOF 5
ENDMDL
MODEL 5
REMARK VINA RESULT:      -8.3      3.124      3.960
REMARK  Name = 
REMARK  5 active torsions:
REMARK  status: ('A' for Active; 'I' for Inactive)
REMARK    1  A    between atoms: N_2  and  C_4
REMARK    2  A    between atoms: C_6  and  C_7
REMARK    3  A    between atoms: C_13  and  S_14
REMARK    4  A    between atoms: S_14  and  C_15
REMARK    5  A    between atoms: C_18  and  C_19
REMARK                            x       y       z     vdW  Elec       q    Type
REMARK                         _______ _______ _______ _____ _____    ______ ____
ROOT
ATOM      1  S   UNL     1       7.356   5.433  17.983  0.00  0.00    +0.000 S 
ENDROOT
BRANCH   1   7
ATOM      2  C   UNL     1       5.443   4.408  16.113  0.00  0.00    +0.000 A 
ATOM      3  C   UNL     1       5.110   3.922  14.830  0.00  0.00    +0.000 A 
ATOM      4  C   UNL     1       6.030   4.019  13.782  0.00  0.00    +0.000 A 
ATOM      5  C   UNL     1       7.249   4.671  14.019  0.00  0.00    +0.000 A 
ATOM      6  C   UNL     1       7.568   5.154  15.295  0.00  0.00    +0.000 A 
ATOM      7  C   UNL     1       6.685   5.007  16.378  0.00  0.00    +0.000 A 
BRANCH   4   8
ATOM      8  C   UNL     1       5.757   3.402  12.427  0.00  0.00    +0.000 C 
ATOM      9  F   UNL     1       4.496   3.635  11.972  0.00  0.00    +0.000 F 
ATOM     10  F   UNL     1       6.601   3.853  11.461  0.00  0.00    +0.000 F 
ATOM     11  F   UNL     1       5.898   2.046  12.448  0.00  0.00    +0.000 F 
ENDBRANCH   4   8
BRANCH   2  13
ATOM     12  O   UNL     1       3.750   5.176  17.465  0.00  0.00    +0.000 OA
ATOM     13  N   UNL     1       4.456   4.205  17.162  0.00  0.00    +0.000 N 
ATOM     14  O   UNL     1       4.357   3.072  17.650  0.00  0.00    +0.000 OA
ENDBRANCH   2  13
ENDBRANCH   1   7
BRANCH   1  15
ATOM     15  C   UNL     1       7.488   7.137  17.863  0.00  0.00    +0.000 A 
ATOM     16  N   UNL     1       6.785   7.981  17.154  0.00  0.00    +0.000 NA
ATOM     17  N   UNL     1       7.335   9.233  17.360  0.00  0.00    +0.000 NA
ATOM     18  C   UNL     1       8.352   9.121  18.201  0.00  0.00    +0.000 A 
ATOM     19  N   UNL     1       8.485   7.791  18.513  0.00  0.00    +0.000 N 
ATOM     20  H   UNL     1       9.156   7.368  19.135  0.00  0.00    +0.000 HD
BRANCH  18  21
ATOM     21  C   UNL     1       9.177  10.199  18.752  0.00  0.00    +0.000 A 
ATOM     22  C   UNL     1       9.919  11.016  17.884  0.00  0.00    +0.000 A 
ATOM     23  C   UNL     1      10.675  12.089  18.373  0.00  0.00    +0.000 A 
ATOM     24  C   UNL     1      10.701  12.351  19.739  0.00  0.00    +0.000 A 
ATOM     25 CL   UNL     1      11.611  13.679  20.345  0.00  0.00    +0.000 Cl
ATOM     26  C   UNL     1       9.986  11.545  20.620  0.00  0.00    +0.000 A 
ATOM     27  C   UNL     1       9.231  10.473  20.130  0.00  0.00    +0.000 A 
ENDBRANCH  18  21
ENDBRANCH   1  15
TORSDOF 5
ENDMDL
MODEL 6
REMARK VINA RESULT:      -8.1      1.509      1.901
REMARK  Name = 
REMARK  5 active torsions:
REMARK  status: ('A' for Active; 'I' for Inactive)
REMARK    1  A    between atoms: N_2  and  C_4
REMARK    2  A    between atoms: C_6  and  C_7
REMARK    3  A    between atoms: C_13  and  S_14
REMARK    4  A    between atoms: S_14  and  C_15
REMARK    5  A    between atoms: C_18  and  C_19
REMARK                            x       y       z     vdW  Elec       q    Type
REMARK                         _______ _______ _______ _____ _____    ______ ____
ROOT
ATOM      1  S   UNL     1       5.620   7.165  16.305  0.00  0.00    +0.000 S 
ENDROOT
BRANCH   1   7
ATOM      2  C   UNL     1       5.475   4.321  16.615  0.00  0.00    +0.000 A 
ATOM      3  C   UNL     1       4.826   3.164  17.100  0.00  0.00    +0.000 A 
ATOM      4  C   UNL     1       3.758   3.281  17.994  0.00  0.00    +0.000 A 
ATOM      5  C   UNL     1       3.399   4.559  18.446  0.00  0.00    +0.000 A 
ATOM      6  C   UNL     1       4.053   5.701  17.962  0.00  0.00    +0.000 A 
ATOM      7  C   UNL     1       5.085   5.610  17.013  0.00  0.00    +0.000 A 
BRANCH   4   8
ATOM      8  C   UNL     1       2.960   2.074  18.440  0.00  0.00    +0.000 C 
ATOM      9  F   UNL     1       2.381   2.232  19.660  0.00  0.00    +0.000 F 
ATOM     10  F   UNL     1       1.958   1.755  17.579  0.00  0.00    +0.000 F 
ATOM     11  F   UNL     1       3.738   0.959  18.542  0.00  0.00    +0.000 F 
ENDBRANCH   4   8
BRANCH   2  13
ATOM     12  O   UNL     1       7.693   4.312  16.014  0.00  0.00    +0.000 OA
ATOM     13  N   UNL     1       6.531   4.112  15.637  0.00  0.00    +0.000 N 
ATOM     14  O   UNL     1       6.205   3.711  14.512  0.00  0.00    +0.000 OA
ENDBRANCH   2  13
ENDBRANCH   1   7
BRANCH   1  15
ATOM     15  C   UNL     1       6.926   7.583  17.332  0.00  0.00    +0.000 A 
ATOM     16  N   UNL     1       7.620   6.833  18.148  0.00  0.00    +0.000 NA
ATOM     17  N   UNL     1       8.516   7.665  18.793  0.00  0.00    +0.000 NA
ATOM     18  C   UNL     1       8.354   8.900  18.343  0.00  0.00    +0.000 A 
ATOM     19  N   UNL     1       7.328   8.876  17.432  0.00  0.00    +0.000 N 
ATOM     20  H   UNL     1       6.960   9.648  16.899  0.00  0.00    +0.000 HD
BRANCH  18  21
ATOM     21  C   UNL     1       9.135  10.089  18.697  0.00  0.00    +0.000 A 
ATOM     22  C   UNL     1       9.304  10.429  20.049  0.00  0.00    +0.000 A 
ATOM     23  C   UNL     1      10.090  11.526  20.424  0.00  0.00    +0.000 A 
ATOM     24  C   UNL     1      10.709  12.300  19.447  0.00  0.00    +0.000 A 
ATOM     25 CL   UNL     1      11.690  13.637  19.901  0.00  0.00    +0.000 Cl
ATOM     26  C   UNL     1      10.542  11.991  18.100  0.00  0.00    +0.000 A 
ATOM     27  C   UNL     1       9.757  10.894  17.727  0.00  0.00    +0.000 A 
ENDBRANCH  18  21
ENDBRANCH   1  15
TORSDOF 5
ENDMDL
MODEL 7
REMARK VINA RESULT:      -8.0      5.454      6.885
REMARK  Name = 
REMARK  5 active torsions:
REMARK  status: ('A' for Active; 'I' for Inactive)
REMARK    1  A    between atoms: N_2  and  C_4
REMARK    2  A    between atoms: C_6  and  C_7
REMARK    3  A    between atoms: C_13  and  S_14
REMARK    4  A    between atoms: S_14  and  C_15
REMARK    5  A    between atoms: C_18  and  C_19
REMARK                            x       y       z     vdW  Elec       q    Type
REMARK                         _______ _______ _______ _____ _____    ______ ____
ROOT
ATOM      1  S   UNL     1       3.892   4.699  19.803  0.00  0.00    +0.000 S 
ENDROOT
BRANCH   1   7
ATOM      2  C   UNL     1       5.959   4.959  17.836  0.00  0.00    +0.000 A 
ATOM      3  C   UNL     1       6.413   4.860  16.503  0.00  0.00    +0.000 A 
ATOM      4  C   UNL     1       5.620   4.235  15.536  0.00  0.00    +0.000 A 
ATOM      5  C   UNL     1       4.409   3.653  15.937  0.00  0.00    +0.000 A 
ATOM      6  C   UNL     1       3.970   3.753  17.264  0.00  0.00    +0.000 A 
ATOM      7  C   UNL     1       4.720   4.434  18.237  0.00  0.00    +0.000 A 
BRANCH   4   8
ATOM      8  C   UNL     1       6.017   4.218  14.075  0.00  0.00    +0.000 C 
ATOM      9  F   UNL     1       4.958   4.330  13.228  0.00  0.00    +0.000 F 
ATOM     10  F   UNL     1       6.875   5.219  13.748  0.00  0.00    +0.000 F 
ATOM     11  F   UNL     1       6.642   3.056  13.731  0.00  0.00    +0.000 F 
ENDBRANCH   4   8
BRANCH   2  13
ATOM     12  O   UNL     1       6.999   5.173  19.875  0.00  0.00    +0.000 OA
ATOM     13  N   UNL     1       6.815   5.684  18.763  0.00  0.00    +0.000 N 
ATOM     14  O   UNL     1       7.334   6.736  18.367  0.00  0.00    +0.000 OA
ENDBRANCH   2  13
ENDBRANCH   1   7
BRANCH   1  15
ATOM     15  C   UNL     1       3.044   6.157  19.504  0.00  0.00    +0.000 A 
ATOM     16  N   UNL     1       2.936   6.850  18.401  0.00  0.00    +0.000 NA
ATOM     17  N   UNL     1       2.198   7.978  18.706  0.00  0.00    +0.000 NA
ATOM     18  C   UNL     1       1.863   7.937  19.987  0.00  0.00    +0.000 A 
ATOM     19  N   UNL     1       2.415   6.800  20.522  0.00  0.00    +0.000 N 
ATOM     20  H   UNL     1       2.341   6.467  21.470  0.00  0.00    +0.000 HD
BRANCH  18  21
ATOM     21  C   UNL     1       1.025   8.889  20.721  0.00  0.00    +0.000 A 
ATOM     22  C   UNL     1       0.296   9.859  20.013  0.00  0.00    +0.000 A 
ATOM     23  C   UNL     1      -0.557  10.748  20.679  0.00  0.00    +0.000 A 
ATOM     24  C   UNL     1      -0.684  10.680  22.063  0.00  0.00    +0.000 A 
ATOM     25 CL   UNL     1      -1.744  11.756  22.884  0.00  0.00    +0.000 Cl
ATOM     26  C   UNL     1       0.040   9.737  22.786  0.00  0.00    +0.000 A 
ATOM     27  C   UNL     1       0.892   8.849  22.120  0.00  0.00    +0.000 A 
ENDBRANCH  18  21
ENDBRANCH   1  15
TORSDOF 5
ENDMDL
MODEL 8
REMARK VINA RESULT:      -8.0      3.132      3.834
REMARK  Name = 
REMARK  5 active torsions:
REMARK  status: ('A' for Active; 'I' for Inactive)
REMARK    1  A    between atoms: N_2  and  C_4
REMARK    2  A    between atoms: C_6  and  C_7
REMARK    3  A    between atoms: C_13  and  S_14
REMARK    4  A    between atoms: S_14  and  C_15
REMARK    5  A    between atoms: C_18  and  C_19
REMARK                            x       y       z     vdW  Elec       q    Type
REMARK                         _______ _______ _______ _____ _____    ______ ____
ROOT
ATOM      1  S   UNL     1       7.357   5.460  17.939  0.00  0.00    +0.000 S 
ENDROOT
BRANCH   1   7
ATOM      2  C   UNL     1       5.433   4.426  16.084  0.00  0.00    +0.000 A 
ATOM      3  C   UNL     1       5.094   3.932  14.806  0.00  0.00    +0.000 A 
ATOM      4  C   UNL     1       6.009   4.022  13.753  0.00  0.00    +0.000 A 
ATOM      5  C   UNL     1       7.230   4.673  13.980  0.00  0.00    +0.000 A 
ATOM      6  C   UNL     1       7.556   5.164  15.252  0.00  0.00    +0.000 A 
ATOM      7  C   UNL     1       6.677   5.025  16.340  0.00  0.00    +0.000 A 
BRANCH   4   8
ATOM      8  C   UNL     1       5.730   3.396  12.403  0.00  0.00    +0.000 C 
ATOM      9  F   UNL     1       6.466   3.938  11.395  0.00  0.00    +0.000 F 
ATOM     10  F   UNL     1       5.976   2.060  12.379  0.00  0.00    +0.000 F 
ATOM     11  F   UNL     1       4.427   3.546  12.032  0.00  0.00    +0.000 F 
ENDBRANCH   4   8
BRANCH   2  13
ATOM     12  O   UNL     1       3.692   5.178  17.381  0.00  0.00    +0.000 OA
ATOM     13  N   UNL     1       4.451   4.231  17.139  0.00  0.00    +0.000 N 
ATOM     14  O   UNL     1       4.409   3.125  17.692  0.00  0.00    +0.000 OA
ENDBRANCH   2  13
ENDBRANCH   1   7
BRANCH   1  15
ATOM     15  C   UNL     1       7.464   7.166  17.818  0.00  0.00    +0.000 A 
ATOM     16  N   UNL     1       6.712   8.005  17.156  0.00  0.00    +0.000 NA
ATOM     17  N   UNL     1       7.261   9.262  17.333  0.00  0.00    +0.000 NA
ATOM     18  C   UNL     1       8.328   9.157  18.112  0.00  0.00    +0.000 A 
ATOM     19  N   UNL     1       8.492   7.827  18.410  0.00  0.00    +0.000 N 
ATOM     20  H   UNL     1       9.203   7.409  18.988  0.00  0.00    +0.000 HD
BRANCH  18  21
ATOM     21  C   UNL     1       9.173  10.241  18.617  0.00  0.00    +0.000 A 
ATOM     22  C   UNL     1       9.253  10.470  20.000  0.00  0.00    +0.000 A 
ATOM     23  C   UNL     1      10.094  11.463  20.520  0.00  0.00    +0.000 A 
ATOM     24  C   UNL     1      10.859  12.243  19.658  0.00  0.00    +0.000 A 
ATOM     25 CL   UNL     1      11.907  13.450  20.290  0.00  0.00    +0.000 Cl
ATOM     26  C   UNL     1      10.784  12.044  18.282  0.00  0.00    +0.000 A 
ATOM     27  C   UNL     1       9.944  11.051  17.764  0.00  0.00    +0.000 A 
ENDBRANCH  18  21
ENDBRANCH   1  15
TORSDOF 5
ENDMDL
MODEL 9
REMARK VINA RESULT:      -8.0      5.411      6.780
REMARK  Name = 
REMARK  5 active torsions:
REMARK  status: ('A' for Active; 'I' for Inactive)
REMARK    1  A    between atoms: N_2  and  C_4
REMARK    2  A    between atoms: C_6  and  C_7
REMARK    3  A    between atoms: C_13  and  S_14
REMARK    4  A    between atoms: S_14  and  C_15
REMARK    5  A    between atoms: C_18  and  C_19
REMARK                            x       y       z     vdW  Elec       q    Type
REMARK                         _______ _______ _______ _____ _____    ______ ____
ROOT
ATOM      1  S   UNL     1       3.960   4.713  19.799  0.00  0.00    +0.000 S 
ENDROOT
BRANCH   1   7
ATOM      2  C   UNL     1       5.996   4.968  17.799  0.00  0.00    +0.000 A 
ATOM      3  C   UNL     1       6.434   4.847  16.462  0.00  0.00    +0.000 A 
ATOM      4  C   UNL     1       5.642   4.183  15.521  0.00  0.00    +0.000 A 
ATOM      5  C   UNL     1       4.448   3.586  15.951  0.00  0.00    +0.000 A 
ATOM      6  C   UNL     1       4.023   3.708  17.282  0.00  0.00    +0.000 A 
ATOM      7  C   UNL     1       4.773   4.428  18.229  0.00  0.00    +0.000 A 
BRANCH   4   8
ATOM      8  C   UNL     1       6.019   4.138  14.056  0.00  0.00    +0.000 C 
ATOM      9  F   UNL     1       6.547   2.945  13.672  0.00  0.00    +0.000 F 
ATOM     10  F   UNL     1       4.965   4.373  13.231  0.00  0.00    +0.000 F 
ATOM     11  F   UNL     1       6.959   5.075  13.743  0.00  0.00    +0.000 F 
ENDBRANCH   4   8
BRANCH   2  13
ATOM     12  O   UNL     1       7.286   6.810  18.273  0.00  0.00    +0.000 OA
ATOM     13  N   UNL     1       6.848   5.732  18.696  0.00  0.00    +0.000 N 
ATOM     14  O   UNL     1       7.044   5.280  19.831  0.00  0.00    +0.000 OA
ENDBRANCH   2  13
ENDBRANCH   1   7
BRANCH   1  15
ATOM     15  C   UNL     1       3.072   6.143  19.475  0.00  0.00    +0.000 A 
ATOM     16  N   UNL     1       2.923   6.796  18.353  0.00  0.00    +0.000 NA
ATOM     17  N   UNL     1       2.167   7.918  18.640  0.00  0.00    +0.000 NA
ATOM     18  C   UNL     1       1.864   7.912  19.930  0.00  0.00    +0.000 A 
ATOM     19  N   UNL     1       2.453   6.804  20.486  0.00  0.00    +0.000 N 
ATOM     20  H   UNL     1       2.410   6.500  21.446  0.00  0.00    +0.000 HD
BRANCH  18  21
ATOM     21  C   UNL     1       1.022   8.868  20.653  0.00  0.00    +0.000 A 
ATOM     22  C   UNL     1       0.803   8.695  22.030  0.00  0.00    +0.000 A 
ATOM     23  C   UNL     1       0.048   9.620  22.762  0.00  0.00    +0.000 A 
ATOM     24  C   UNL     1      -0.501  10.726  22.122  0.00  0.00    +0.000 A 
ATOM     25 CL   UNL     1      -1.412  11.876  23.019  0.00  0.00    +0.000 Cl
ATOM     26  C   UNL     1      -0.310  10.910  20.755  0.00  0.00    +0.000 A 
ATOM     27  C   UNL     1       0.445   9.985  20.025  0.00  0.00    +0.000 A 
ENDBRANCH  18  21
ENDBRANCH   1  15
TORSDOF 5
ENDMDL
