MODEL 1
REMARK VINA RESULT:      -6.4      0.000      0.000
REMARK  Name = 
REMARK  9 active torsions:
REMARK  status: ('A' for Active; 'I' for Inactive)
REMARK    1  A    between atoms: C_1  and  N_2
REMARK    2  A    between atoms: N_2  and  C_3
REMARK    3  A    between atoms: N_11  and  C_12
REMARK    4  A    between atoms: C_14  and  C_15
REMARK    5  A    between atoms: C_15  and  O_16
REMARK    6  A    between atoms: C_15  and  C_17
REMARK    7  A    between atoms: C_17  and  O_18
REMARK    8  A    between atoms: C_19  and  O_20
REMARK    9  A    between atoms: C_21  and  O_22
REMARK                            x       y       z     vdW  Elec       q    Type
REMARK                         _______ _______ _______ _____ _____    ______ ____
ROOT
ATOM      1  C   UNL     1       3.841   5.876  18.563  0.00  0.00    +0.000 C 
ATOM      2  O   UNL     1       4.829   5.844  17.508  0.00  0.00    +0.000 OA
ATOM      3  C   UNL     1       4.885   4.495  16.987  0.00  0.00    +0.000 C 
ATOM      4  C   UNL     1       4.067   3.607  17.939  0.00  0.00    +0.000 C 
ATOM      5  C   UNL     1       3.048   4.572  18.518  0.00  0.00    +0.000 C 
ENDROOT
BRANCH   1  14
ATOM      6  C   UNL     1       0.836   9.583  19.469  0.00  0.00    +0.000 A 
ATOM      7  N   UNL     1       0.538   9.188  20.737  0.00  0.00    +0.000 NA
ATOM      8  C   UNL     1       1.083   8.042  21.205  0.00  0.00    +0.000 A 
ATOM      9  N   UNL     1       1.928   7.198  20.579  0.00  0.00    +0.000 NA
ATOM     10  C   UNL     1       2.205   7.632  19.339  0.00  0.00    +0.000 A 
ATOM     11  C   UNL     1       1.715   8.775  18.723  0.00  0.00    +0.000 A 
ATOM     12  N   UNL     1       2.233   8.912  17.450  0.00  0.00    +0.000 NA
ATOM     13  C   UNL     1       3.019   7.868  17.297  0.00  0.00    +0.000 A 
ATOM     14  N   UNL     1       3.040   7.070  18.411  0.00  0.00    +0.000 N 
BRANCH   6  16
ATOM     15  C   UNL     1      -0.971  10.590  18.241  0.00  0.00    +0.000 C 
ATOM     16  N   UNL     1       0.288  10.753  18.929  0.00  0.00    +0.000 N 
ATOM     17  H   UNL     1       0.312  11.489  19.634  0.00  0.00    +0.000 HD
ENDBRANCH   6  16
ENDBRANCH   1  14
BRANCH   4  18
ATOM     18  O   UNL     1       4.793   3.048  19.045  0.00  0.00    +0.000 OA
ATOM     19  H   UNL     1       4.592   2.086  19.101  0.00  0.00    +0.000 HD
ENDBRANCH   4  18
BRANCH   5  20
ATOM     20  O   UNL     1       2.611   4.152  19.814  0.00  0.00    +0.000 OA
ATOM     21  H   UNL     1       2.928   4.848  20.434  0.00  0.00    +0.000 HD
ENDBRANCH   5  20
BRANCH   3  22
ATOM     22  C   UNL     1       6.357   4.075  16.837  0.00  0.00    +0.000 C 
BRANCH  22  23
ATOM     23  O   UNL     1       7.039   4.381  18.071  0.00  0.00    +0.000 OA
ATOM     24  H   UNL     1       7.657   3.630  18.213  0.00  0.00    +0.000 HD
ENDBRANCH  22  23
BRANCH  22  25
ATOM     25  C   UNL     1       7.083   4.798  15.695  0.00  0.00    +0.000 C 
BRANCH  25  26
ATOM     26  O   UNL     1       7.458   6.115  16.096  0.00  0.00    +0.000 OA
ATOM     27  H   UNL     1       7.080   6.266  16.986  0.00  0.00    +0.000 HD
ENDBRANCH  25  26
ENDBRANCH  22  25
ENDBRANCH   3  22
TORSDOF 8
ENDMDL
MODEL 2
REMARK VINA RESULT:      -6.3      2.865      4.663
REMARK  Name = 
REMARK  9 active torsions:
REMARK  status: ('A' for Active; 'I' for Inactive)
REMARK    1  A    between atoms: C_1  and  N_2
REMARK    2  A    between atoms: N_2  and  C_3
REMARK    3  A    between atoms: N_11  and  C_12
REMARK    4  A    between atoms: C_14  and  C_15
REMARK    5  A    between atoms: C_15  and  O_16
REMARK    6  A    between atoms: C_15  and  C_17
REMARK    7  A    between atoms: C_17  and  O_18
REMARK    8  A    between atoms: C_19  and  O_20
REMARK    9  A    between atoms: C_21  and  O_22
REMARK                            x       y       z     vdW  Elec       q    Type
REMARK                         _______ _______ _______ _____ _____    ______ ____
ROOT
ATOM      1  C   UNL     1       5.167   4.808  17.173  0.00  0.00    +0.000 C 
ATOM      2  O   UNL     1       5.159   4.165  15.878  0.00  0.00    +0.000 OA
ATOM      3  C   UNL     1       6.533   3.953  15.474  0.00  0.00    +0.000 C 
ATOM      4  C   UNL     1       7.420   4.727  16.462  0.00  0.00    +0.000 C 
ATOM      5  C   UNL     1       6.588   4.745  17.731  0.00  0.00    +0.000 C 
ENDROOT
BRANCH   1  14
ATOM      6  C   UNL     1       1.543   4.111  20.332  0.00  0.00    +0.000 A 
ATOM      7  N   UNL     1       1.418   5.426  20.662  0.00  0.00    +0.000 NA
ATOM      8  C   UNL     1       2.260   6.320  20.096  0.00  0.00    +0.000 A 
ATOM      9  N   UNL     1       3.244   6.097  19.201  0.00  0.00    +0.000 NA
ATOM     10  C   UNL     1       3.323   4.791  18.894  0.00  0.00    +0.000 A 
ATOM     11  C   UNL     1       2.539   3.764  19.399  0.00  0.00    +0.000 A 
ATOM     12  N   UNL     1       2.893   2.551  18.840  0.00  0.00    +0.000 NA
ATOM     13  C   UNL     1       3.875   2.840  18.015  0.00  0.00    +0.000 A 
ATOM     14  N   UNL     1       4.167   4.179  18.008  0.00  0.00    +0.000 N 
BRANCH   6  16
ATOM     15  C   UNL     1       1.293   2.360  21.962  0.00  0.00    +0.000 C 
ATOM     16  N   UNL     1       0.707   3.141  20.897  0.00  0.00    +0.000 N 
ATOM     17  H   UNL     1      -0.198   3.561  21.107  0.00  0.00    +0.000 HD
ENDBRANCH   6  16
ENDBRANCH   1  14
BRANCH   4  18
ATOM     18  O   UNL     1       7.689   6.095  16.117  0.00  0.00    +0.000 OA
ATOM     19  H   UNL     1       8.614   6.310  16.374  0.00  0.00    +0.000 HD
ENDBRANCH   4  18
BRANCH   5  20
ATOM     20  O   UNL     1       6.905   5.877  18.547  0.00  0.00    +0.000 OA
ATOM     21  H   UNL     1       6.502   6.649  18.090  0.00  0.00    +0.000 HD
ENDBRANCH   5  20
BRANCH   3  22
ATOM     22  C   UNL     1       6.696   4.381  14.006  0.00  0.00    +0.000 C 
BRANCH  22  23
ATOM     23  O   UNL     1       6.260   5.752  13.886  0.00  0.00    +0.000 OA
ATOM     24  H   UNL     1       6.803   6.248  14.538  0.00  0.00    +0.000 HD
ENDBRANCH  22  23
BRANCH  22  25
ATOM     25  C   UNL     1       5.876   3.529  13.029  0.00  0.00    +0.000 C 
BRANCH  25  26
ATOM     26  O   UNL     1       6.733   2.879  12.091  0.00  0.00    +0.000 OA
ATOM     27  H   UNL     1       7.653   3.115  12.327  0.00  0.00    +0.000 HD
ENDBRANCH  25  26
ENDBRANCH  22  25
ENDBRANCH   3  22
TORSDOF 8
ENDMDL
MODEL 3
REMARK VINA RESULT:      -6.3      3.405      5.349
REMARK  Name = 
REMARK  9 active torsions:
REMARK  status: ('A' for Active; 'I' for Inactive)
REMARK    1  A    between atoms: C_1  and  N_2
REMARK    2  A    between atoms: N_2  and  C_3
REMARK    3  A    between atoms: N_11  and  C_12
REMARK    4  A    between atoms: C_14  and  C_15
REMARK    5  A    between atoms: C_15  and  O_16
REMARK    6  A    between atoms: C_15  and  C_17
REMARK    7  A    between atoms: C_17  and  O_18
REMARK    8  A    between atoms: C_19  and  O_20
REMARK    9  A    between atoms: C_21  and  O_22
REMARK                            x       y       z     vdW  Elec       q    Type
REMARK                         _______ _______ _______ _____ _____    ______ ____
ROOT
ATOM      1  C   UNL     1       5.356   5.455  15.731  0.00  0.00    +0.000 C 
ATOM      2  O   UNL     1       4.856   4.557  14.715  0.00  0.00    +0.000 OA
ATOM      3  C   UNL     1       5.982   3.840  14.155  0.00  0.00    +0.000 C 
ATOM      4  C   UNL     1       7.258   4.515  14.686  0.00  0.00    +0.000 C 
ATOM      5  C   UNL     1       6.812   5.092  16.018  0.00  0.00    +0.000 C 
ENDROOT
BRANCH   1  14
ATOM      6  C   UNL     1       2.651   3.766  19.395  0.00  0.00    +0.000 A 
ATOM      7  N   UNL     1       2.845   2.453  19.091  0.00  0.00    +0.000 NA
ATOM      8  C   UNL     1       3.588   2.141  18.005  0.00  0.00    +0.000 A 
ATOM      9  N   UNL     1       4.206   2.974  17.142  0.00  0.00    +0.000 NA
ATOM     10  C   UNL     1       3.999   4.256  17.487  0.00  0.00    +0.000 A 
ATOM     11  C   UNL     1       3.256   4.725  18.561  0.00  0.00    +0.000 A 
ATOM     12  N   UNL     1       3.281   6.106  18.613  0.00  0.00    +0.000 NA
ATOM     13  C   UNL     1       4.022   6.464  17.588  0.00  0.00    +0.000 A 
ATOM     14  N   UNL     1       4.484   5.385  16.882  0.00  0.00    +0.000 N 
BRANCH   6  16
ATOM     15  C   UNL     1       1.613   3.100  21.460  0.00  0.00    +0.000 C 
ATOM     16  N   UNL     1       1.879   4.146  20.499  0.00  0.00    +0.000 N 
ATOM     17  H   UNL     1       2.252   5.013  20.885  0.00  0.00    +0.000 HD
ENDBRANCH   6  16
ENDBRANCH   1  14
BRANCH   4  18
ATOM     18  O   UNL     1       7.756   5.609  13.900  0.00  0.00    +0.000 OA
ATOM     19  H   UNL     1       8.372   6.141  14.453  0.00  0.00    +0.000 HD
ENDBRANCH   4  18
BRANCH   5  20
ATOM     20  O   UNL     1       7.598   6.231  16.382  0.00  0.00    +0.000 OA
ATOM     21  H   UNL     1       8.514   6.019  16.092  0.00  0.00    +0.000 HD
ENDBRANCH   5  20
BRANCH   3  22
ATOM     22  C   UNL     1       5.861   3.833  12.622  0.00  0.00    +0.000 C 
BRANCH  22  23
ATOM     23  O   UNL     1       4.505   3.474  12.281  0.00  0.00    +0.000 OA
ATOM     24  H   UNL     1       4.224   2.849  12.985  0.00  0.00    +0.000 HD
ENDBRANCH  22  23
BRANCH  22  25
ATOM     25  C   UNL     1       6.807   2.836  11.942  0.00  0.00    +0.000 C 
BRANCH  25  26
ATOM     26  O   UNL     1       6.113   1.634  11.610  0.00  0.00    +0.000 OA
ATOM     27  H   UNL     1       5.190   1.738  11.918  0.00  0.00    +0.000 HD
ENDBRANCH  25  26
ENDBRANCH  22  25
ENDBRANCH   3  22
TORSDOF 8
ENDMDL
MODEL 4
REMARK VINA RESULT:      -6.3      2.849      4.662
REMARK  Name = 
REMARK  9 active torsions:
REMARK  status: ('A' for Active; 'I' for Inactive)
REMARK    1  A    between atoms: C_1  and  N_2
REMARK    2  A    between atoms: N_2  and  C_3
REMARK    3  A    between atoms: N_11  and  C_12
REMARK    4  A    between atoms: C_14  and  C_15
REMARK    5  A    between atoms: C_15  and  O_16
REMARK    6  A    between atoms: C_15  and  C_17
REMARK    7  A    between atoms: C_17  and  O_18
REMARK    8  A    between atoms: C_19  and  O_20
REMARK    9  A    between atoms: C_21  and  O_22
REMARK                            x       y       z     vdW  Elec       q    Type
REMARK                         _______ _______ _______ _____ _____    ______ ____
ROOT
ATOM      1  C   UNL     1       5.063   4.824  16.892  0.00  0.00    +0.000 C 
ATOM      2  O   UNL     1       4.915   4.253  15.573  0.00  0.00    +0.000 OA
ATOM      3  C   UNL     1       6.238   4.005  15.040  0.00  0.00    +0.000 C 
ATOM      4  C   UNL     1       7.241   4.689  15.984  0.00  0.00    +0.000 C 
ATOM      5  C   UNL     1       6.521   4.674  17.320  0.00  0.00    +0.000 C 
ENDROOT
BRANCH   1  14
ATOM      6  C   UNL     1       1.614   4.120  20.240  0.00  0.00    +0.000 A 
ATOM      7  N   UNL     1       1.506   5.435  20.578  0.00  0.00    +0.000 NA
ATOM      8  C   UNL     1       2.316   6.330  19.969  0.00  0.00    +0.000 A 
ATOM      9  N   UNL     1       3.251   6.109  19.022  0.00  0.00    +0.000 NA
ATOM     10  C   UNL     1       3.314   4.804  18.710  0.00  0.00    +0.000 A 
ATOM     11  C   UNL     1       2.559   3.775  19.255  0.00  0.00    +0.000 A 
ATOM     12  N   UNL     1       2.884   2.564  18.676  0.00  0.00    +0.000 NA
ATOM     13  C   UNL     1       3.820   2.855  17.800  0.00  0.00    +0.000 A 
ATOM     14  N   UNL     1       4.110   4.193  17.778  0.00  0.00    +0.000 N 
BRANCH   6  16
ATOM     15  C   UNL     1       1.428   2.426  21.937  0.00  0.00    +0.000 C 
ATOM     16  N   UNL     1       0.811   3.149  20.849  0.00  0.00    +0.000 N 
ATOM     17  H   UNL     1      -0.104   3.551  21.050  0.00  0.00    +0.000 HD
ENDBRANCH   6  16
ENDBRANCH   1  14
BRANCH   4  18
ATOM     18  O   UNL     1       7.541   6.061  15.684  0.00  0.00    +0.000 OA
ATOM     19  H   UNL     1       8.051   6.097  14.843  0.00  0.00    +0.000 HD
ENDBRANCH   4  18
BRANCH   5  20
ATOM     20  O   UNL     1       6.958   5.746  18.160  0.00  0.00    +0.000 OA
ATOM     21  H   UNL     1       6.579   6.561  17.761  0.00  0.00    +0.000 HD
ENDBRANCH   5  20
BRANCH   3  22
ATOM     22  C   UNL     1       6.296   4.504  13.586  0.00  0.00    +0.000 C 
BRANCH  22  23
ATOM     23  O   UNL     1       5.477   3.632  12.779  0.00  0.00    +0.000 OA
ATOM     24  H   UNL     1       4.612   3.593  13.246  0.00  0.00    +0.000 HD
ENDBRANCH  22  23
BRANCH  22  25
ATOM     25  C   UNL     1       7.714   4.509  13.000  0.00  0.00    +0.000 C 
BRANCH  25  26
ATOM     26  O   UNL     1       8.169   5.847  12.803  0.00  0.00    +0.000 OA
ATOM     27  H   UNL     1       7.465   6.443  13.129  0.00  0.00    +0.000 HD
ENDBRANCH  25  26
ENDBRANCH  22  25
ENDBRANCH   3  22
TORSDOF 8
ENDMDL
MODEL 5
REMARK VINA RESULT:      -6.3      3.486      7.137
REMARK  Name = 
REMARK  9 active torsions:
REMARK  status: ('A' for Active; 'I' for Inactive)
REMARK    1  A    between atoms: C_1  and  N_2
REMARK    2  A    between atoms: N_2  and  C_3
REMARK    3  A    between atoms: N_11  and  C_12
REMARK    4  A    between atoms: C_14  and  C_15
REMARK    5  A    between atoms: C_15  and  O_16
REMARK    6  A    between atoms: C_15  and  C_17
REMARK    7  A    between atoms: C_17  and  O_18
REMARK    8  A    between atoms: C_19  and  O_20
REMARK    9  A    between atoms: C_21  and  O_22
REMARK                            x       y       z     vdW  Elec       q    Type
REMARK                         _______ _______ _______ _____ _____    ______ ____
ROOT
ATOM      1  C   UNL     1       1.922   8.580  19.554  0.00  0.00    +0.000 C 
ATOM      2  O   UNL     1       1.134   8.754  20.752  0.00  0.00    +0.000 OA
ATOM      3  C   UNL     1      -0.013   9.574  20.420  0.00  0.00    +0.000 C 
ATOM      4  C   UNL     1       0.222  10.129  19.006  0.00  0.00    +0.000 C 
ATOM      5  C   UNL     1       1.101   9.071  18.363  0.00  0.00    +0.000 C 
ENDROOT
BRANCH   1  14
ATOM      6  C   UNL     1       4.152   4.488  18.183  0.00  0.00    +0.000 A 
ATOM      7  N   UNL     1       4.834   5.063  17.154  0.00  0.00    +0.000 NA
ATOM      8  C   UNL     1       4.639   6.377  16.900  0.00  0.00    +0.000 A 
ATOM      9  N   UNL     1       3.842   7.249  17.550  0.00  0.00    +0.000 NA
ATOM     10  C   UNL     1       3.200   6.643  18.563  0.00  0.00    +0.000 A 
ATOM     11  C   UNL     1       3.291   5.310  18.935  0.00  0.00    +0.000 A 
ATOM     12  N   UNL     1       2.500   5.048  20.037  0.00  0.00    +0.000 NA
ATOM     13  C   UNL     1       1.939   6.202  20.324  0.00  0.00    +0.000 A 
ATOM     14  N   UNL     1       2.333   7.196  19.468  0.00  0.00    +0.000 N 
BRANCH   6  16
ATOM     15  C   UNL     1       3.320   2.249  17.896  0.00  0.00    +0.000 C 
ATOM     16  N   UNL     1       4.305   3.129  18.481  0.00  0.00    +0.000 N 
ATOM     17  H   UNL     1       5.278   2.862  18.333  0.00  0.00    +0.000 HD
ENDBRANCH   6  16
ENDBRANCH   1  14
BRANCH   4  18
ATOM     18  O   UNL     1       0.940  11.371  18.936  0.00  0.00    +0.000 OA
ATOM     19  H   UNL     1       1.577  11.409  19.685  0.00  0.00    +0.000 HD
ENDBRANCH   4  18
BRANCH   5  20
ATOM     20  O   UNL     1       1.917   9.629  17.329  0.00  0.00    +0.000 OA
ATOM     21  H   UNL     1       1.382  10.358  16.940  0.00  0.00    +0.000 HD
ENDBRANCH   5  20
BRANCH   3  22
ATOM     22  C   UNL     1      -0.190  10.653  21.503  0.00  0.00    +0.000 C 
BRANCH  22  23
ATOM     23  O   UNL     1       1.077  11.320  21.682  0.00  0.00    +0.000 OA
ATOM     24  H   UNL     1       1.018  11.743  22.568  0.00  0.00    +0.000 HD
ENDBRANCH  22  23
BRANCH  22  25
ATOM     25  C   UNL     1      -0.631  10.087  22.859  0.00  0.00    +0.000 C 
BRANCH  25  26
ATOM     26  O   UNL     1       0.503   9.682  23.624  0.00  0.00    +0.000 OA
ATOM     27  H   UNL     1       0.549   8.705  23.579  0.00  0.00    +0.000 HD
ENDBRANCH  25  26
ENDBRANCH  22  25
ENDBRANCH   3  22
TORSDOF 8
ENDMDL
MODEL 6
REMARK VINA RESULT:      -6.2      1.435      1.754
REMARK  Name = 
REMARK  9 active torsions:
REMARK  status: ('A' for Active; 'I' for Inactive)
REMARK    1  A    between atoms: C_1  and  N_2
REMARK    2  A    between atoms: N_2  and  C_3
REMARK    3  A    between atoms: N_11  and  C_12
REMARK    4  A    between atoms: C_14  and  C_15
REMARK    5  A    between atoms: C_15  and  O_16
REMARK    6  A    between atoms: C_15  and  C_17
REMARK    7  A    between atoms: C_17  and  O_18
REMARK    8  A    between atoms: C_19  and  O_20
REMARK    9  A    between atoms: C_21  and  O_22
REMARK                            x       y       z     vdW  Elec       q    Type
REMARK                         _______ _______ _______ _____ _____    ______ ____
ROOT
ATOM      1  C   UNL     1       2.945   6.493  19.103  0.00  0.00    +0.000 C 
ATOM      2  O   UNL     1       3.398   6.085  17.793  0.00  0.00    +0.000 OA
ATOM      3  C   UNL     1       3.165   4.662  17.661  0.00  0.00    +0.000 C 
ATOM      4  C   UNL     1       2.776   4.136  19.053  0.00  0.00    +0.000 C 
ATOM      5  C   UNL     1       2.141   5.346  19.713  0.00  0.00    +0.000 C 
ENDROOT
BRANCH   1  14
ATOM      6  C   UNL     1       0.414  10.508  20.140  0.00  0.00    +0.000 A 
ATOM      7  N   UNL     1       0.324  10.251  21.474  0.00  0.00    +0.000 NA
ATOM      8  C   UNL     1       0.864   9.107  21.953  0.00  0.00    +0.000 A 
ATOM      9  N   UNL     1       1.523   8.143  21.278  0.00  0.00    +0.000 NA
ATOM     10  C   UNL     1       1.600   8.443  19.971  0.00  0.00    +0.000 A 
ATOM     11  C   UNL     1       1.087   9.567  19.338  0.00  0.00    +0.000 A 
ATOM     12  N   UNL     1       1.375   9.547  17.987  0.00  0.00    +0.000 NA
ATOM     13  C   UNL     1       2.046   8.432  17.806  0.00  0.00    +0.000 A 
ATOM     14  N   UNL     1       2.213   7.734  18.973  0.00  0.00    +0.000 N 
BRANCH   6  16
ATOM     15  C   UNL     1      -1.583  11.705  19.536  0.00  0.00    +0.000 C 
ATOM     16  N   UNL     1      -0.139  11.669  19.589  0.00  0.00    +0.000 N 
ATOM     17  H   UNL     1       0.306  12.484  20.010  0.00  0.00    +0.000 HD
ENDBRANCH   6  16
ENDBRANCH   1  14
BRANCH   4  18
ATOM     18  O   UNL     1       3.869   3.725  19.890  0.00  0.00    +0.000 OA
ATOM     19  H   UNL     1       4.661   3.576  19.325  0.00  0.00    +0.000 HD
ENDBRANCH   4  18
BRANCH   5  20
ATOM     20  O   UNL     1       2.265   5.288  21.137  0.00  0.00    +0.000 OA
ATOM     21  H   UNL     1       3.031   5.865  21.356  0.00  0.00    +0.000 HD
ENDBRANCH   5  20
BRANCH   3  22
ATOM     22  C   UNL     1       4.417   4.001  17.061  0.00  0.00    +0.000 C 
BRANCH  22  23
ATOM     23  O   UNL     1       4.454   2.627  17.501  0.00  0.00    +0.000 OA
ATOM     24  H   UNL     1       4.098   2.109  16.745  0.00  0.00    +0.000 HD
ENDBRANCH  22  23
BRANCH  22  25
ATOM     25  C   UNL     1       5.726   4.677  17.487  0.00  0.00    +0.000 C 
BRANCH  25  26
ATOM     26  O   UNL     1       6.350   3.941  18.539  0.00  0.00    +0.000 OA
ATOM     27  H   UNL     1       6.915   3.260  18.119  0.00  0.00    +0.000 HD
ENDBRANCH  25  26
ENDBRANCH  22  25
ENDBRANCH   3  22
TORSDOF 8
ENDMDL
MODEL 7
REMARK VINA RESULT:      -6.2      2.863      4.894
REMARK  Name = 
REMARK  9 active torsions:
REMARK  status: ('A' for Active; 'I' for Inactive)
REMARK    1  A    between atoms: C_1  and  N_2
REMARK    2  A    between atoms: N_2  and  C_3
REMARK    3  A    between atoms: N_11  and  C_12
REMARK    4  A    between atoms: C_14  and  C_15
REMARK    5  A    between atoms: C_15  and  O_16
REMARK    6  A    between atoms: C_15  and  C_17
REMARK    7  A    between atoms: C_17  and  O_18
REMARK    8  A    between atoms: C_19  and  O_20
REMARK    9  A    between atoms: C_21  and  O_22
REMARK                            x       y       z     vdW  Elec       q    Type
REMARK                         _______ _______ _______ _____ _____    ______ ____
ROOT
ATOM      1  C   UNL     1       5.463   5.137  15.609  0.00  0.00    +0.000 C 
ATOM      2  O   UNL     1       5.018   4.184  14.618  0.00  0.00    +0.000 OA
ATOM      3  C   UNL     1       6.185   3.672  13.931  0.00  0.00    +0.000 C 
ATOM      4  C   UNL     1       7.379   4.541  14.360  0.00  0.00    +0.000 C 
ATOM      5  C   UNL     1       6.980   5.015  15.745  0.00  0.00    +0.000 C 
ENDROOT
BRANCH   1  14
ATOM      6  C   UNL     1       2.619   5.772  19.496  0.00  0.00    +0.000 A 
ATOM      7  N   UNL     1       2.381   7.091  19.254  0.00  0.00    +0.000 NA
ATOM      8  C   UNL     1       2.973   7.673  18.187  0.00  0.00    +0.000 A 
ATOM      9  N   UNL     1       3.794   7.115  17.274  0.00  0.00    +0.000 NA
ATOM     10  C   UNL     1       3.991   5.814  17.543  0.00  0.00    +0.000 A 
ATOM     11  C   UNL     1       3.462   5.087  18.600  0.00  0.00    +0.000 A 
ATOM     12  N   UNL     1       3.868   3.768  18.545  0.00  0.00    +0.000 NA
ATOM     13  C   UNL     1       4.631   3.699  17.476  0.00  0.00    +0.000 A 
ATOM     14  N   UNL     1       4.731   4.905  16.835  0.00  0.00    +0.000 N 
BRANCH   6  16
ATOM     15  C   UNL     1       0.953   4.227  20.284  0.00  0.00    +0.000 C 
ATOM     16  N   UNL     1       2.043   5.123  20.594  0.00  0.00    +0.000 N 
ATOM     17  H   UNL     1       2.783   4.731  21.176  0.00  0.00    +0.000 HD
ENDBRANCH   6  16
ENDBRANCH   1  14
BRANCH   4  18
ATOM     18  O   UNL     1       7.613   5.714  13.565  0.00  0.00    +0.000 OA
ATOM     19  H   UNL     1       8.504   6.070  13.781  0.00  0.00    +0.000 HD
ENDBRANCH   4  18
BRANCH   5  20
ATOM     20  O   UNL     1       7.602   6.263  16.068  0.00  0.00    +0.000 OA
ATOM     21  H   UNL     1       7.986   6.138  16.965  0.00  0.00    +0.000 HD
ENDBRANCH   5  20
BRANCH   3  22
ATOM     22  C   UNL     1       5.916   3.669  12.416  0.00  0.00    +0.000 C 
BRANCH  22  23
ATOM     23  O   UNL     1       4.502   3.466  12.213  0.00  0.00    +0.000 OA
ATOM     24  H   UNL     1       4.287   3.974  11.399  0.00  0.00    +0.000 HD
ENDBRANCH  22  23
BRANCH  22  25
ATOM     25  C   UNL     1       6.672   2.565  11.667  0.00  0.00    +0.000 C 
BRANCH  25  26
ATOM     26  O   UNL     1       5.880   1.380  11.589  0.00  0.00    +0.000 OA
ATOM     27  H   UNL     1       5.409   1.291  12.442  0.00  0.00    +0.000 HD
ENDBRANCH  25  26
ENDBRANCH  22  25
ENDBRANCH   3  22
TORSDOF 8
ENDMDL
MODEL 8
REMARK VINA RESULT:      -6.2      3.873      5.717
REMARK  Name = 
REMARK  9 active torsions:
REMARK  status: ('A' for Active; 'I' for Inactive)
REMARK    1  A    between atoms: C_1  and  N_2
REMARK    2  A    between atoms: N_2  and  C_3
REMARK    3  A    between atoms: N_11  and  C_12
REMARK    4  A    between atoms: C_14  and  C_15
REMARK    5  A    between atoms: C_15  and  O_16
REMARK    6  A    between atoms: C_15  and  C_17
REMARK    7  A    between atoms: C_17  and  O_18
REMARK    8  A    between atoms: C_19  and  O_20
REMARK    9  A    between atoms: C_21  and  O_22
REMARK                            x       y       z     vdW  Elec       q    Type
REMARK                         _______ _______ _______ _____ _____    ______ ____
ROOT
ATOM      1  C   UNL     1       3.710   4.288  18.402  0.00  0.00    +0.000 C 
ATOM      2  O   UNL     1       3.124   4.698  19.658  0.00  0.00    +0.000 OA
ATOM      3  C   UNL     1       3.141   3.561  20.554  0.00  0.00    +0.000 C 
ATOM      4  C   UNL     1       3.532   2.332  19.717  0.00  0.00    +0.000 C 
ATOM      5  C   UNL     1       4.374   2.928  18.603  0.00  0.00    +0.000 C 
ENDROOT
BRANCH   1  14
ATOM      6  C   UNL     1       7.572   7.197  17.927  0.00  0.00    +0.000 A 
ATOM      7  N   UNL     1       8.262   6.648  18.965  0.00  0.00    +0.000 NA
ATOM      8  C   UNL     1       7.683   5.655  19.677  0.00  0.00    +0.000 A 
ATOM      9  N   UNL     1       6.472   5.089  19.498  0.00  0.00    +0.000 NA
ATOM     10  C   UNL     1       5.832   5.650  18.458  0.00  0.00    +0.000 A 
ATOM     11  C   UNL     1       6.293   6.678  17.648  0.00  0.00    +0.000 A 
ATOM     12  N   UNL     1       5.371   6.983  16.665  0.00  0.00    +0.000 NA
ATOM     13  C   UNL     1       4.371   6.158  16.880  0.00  0.00    +0.000 A 
ATOM     14  N   UNL     1       4.604   5.330  17.947  0.00  0.00    +0.000 N 
BRANCH   6  16
ATOM     15  C   UNL     1       8.312   9.485  17.867  0.00  0.00    +0.000 C 
ATOM     16  N   UNL     1       8.117   8.237  17.166  0.00  0.00    +0.000 N 
ATOM     17  H   UNL     1       8.928   7.888  16.656  0.00  0.00    +0.000 HD
ENDBRANCH   6  16
ENDBRANCH   1  14
BRANCH   4  18
ATOM     18  O   UNL     1       2.445   1.632  19.093  0.00  0.00    +0.000 OA
ATOM     19  H   UNL     1       2.813   0.922  18.520  0.00  0.00    +0.000 HD
ENDBRANCH   4  18
BRANCH   5  20
ATOM     20  O   UNL     1       4.330   2.118  17.425  0.00  0.00    +0.000 OA
ATOM     21  H   UNL     1       3.765   2.613  16.790  0.00  0.00    +0.000 HD
ENDBRANCH   5  20
BRANCH   3  22
ATOM     22  C   UNL     1       1.772   3.446  21.246  0.00  0.00    +0.000 C 
BRANCH  22  23
ATOM     23  O   UNL     1       1.572   2.066  21.619  0.00  0.00    +0.000 OA
ATOM     24  H   UNL     1       1.779   1.552  20.807  0.00  0.00    +0.000 HD
ENDBRANCH  22  23
BRANCH  22  25
ATOM     25  C   UNL     1       0.601   3.877  20.355  0.00  0.00    +0.000 C 
BRANCH  25  26
ATOM     26  O   UNL     1       0.018   2.744  19.713  0.00  0.00    +0.000 OA
ATOM     27  H   UNL     1       0.388   1.946  20.142  0.00  0.00    +0.000 HD
ENDBRANCH  25  26
ENDBRANCH  22  25
ENDBRANCH   3  22
TORSDOF 8
ENDMDL
MODEL 9
REMARK VINA RESULT:      -6.2      3.990      5.704
REMARK  Name = 
REMARK  9 active torsions:
REMARK  status: ('A' for Active; 'I' for Inactive)
REMARK    1  A    between atoms: C_1  and  N_2
REMARK    2  A    between atoms: N_2  and  C_3
REMARK    3  A    between atoms: N_11  and  C_12
REMARK    4  A    between atoms: C_14  and  C_15
REMARK    5  A    between atoms: C_15  and  O_16
REMARK    6  A    between atoms: C_15  and  C_17
REMARK    7  A    between atoms: C_17  and  O_18
REMARK    8  A    between atoms: C_19  and  O_20
REMARK    9  A    between atoms: C_21  and  O_22
REMARK                            x       y       z     vdW  Elec       q    Type
REMARK                         _______ _______ _______ _____ _____    ______ ____
ROOT
ATOM      1  C   UNL     1       3.738   4.272  17.757  0.00  0.00    +0.000 C 
ATOM      2  O   UNL     1       2.941   4.627  18.909  0.00  0.00    +0.000 OA
ATOM      3  C   UNL     1       2.860   3.467  19.772  0.00  0.00    +0.000 C 
ATOM      4  C   UNL     1       3.432   2.277  18.986  0.00  0.00    +0.000 C 
ATOM      5  C   UNL     1       4.418   2.933  18.036  0.00  0.00    +0.000 C 
ENDROOT
BRANCH   1  14
ATOM      6  C   UNL     1       7.560   7.268  17.900  0.00  0.00    +0.000 A 
ATOM      7  N   UNL     1       8.151   6.656  18.962  0.00  0.00    +0.000 NA
ATOM      8  C   UNL     1       7.525   5.604  19.536  0.00  0.00    +0.000 A 
ATOM      9  N   UNL     1       6.353   5.034  19.191  0.00  0.00    +0.000 NA
ATOM     10  C   UNL     1       5.811   5.660  18.133  0.00  0.00    +0.000 A 
ATOM     11  C   UNL     1       6.330   6.751  17.451  0.00  0.00    +0.000 A 
ATOM     12  N   UNL     1       5.507   7.114  16.401  0.00  0.00    +0.000 NA
ATOM     13  C   UNL     1       4.509   6.259  16.451  0.00  0.00    +0.000 A 
ATOM     14  N   UNL     1       4.650   5.359  17.474  0.00  0.00    +0.000 N 
BRANCH   6  16
ATOM     15  C   UNL     1       8.483   9.475  18.147  0.00  0.00    +0.000 C 
ATOM     16  N   UNL     1       8.157   8.370  17.276  0.00  0.00    +0.000 N 
ATOM     17  H   UNL     1       8.914   8.044  16.676  0.00  0.00    +0.000 HD
ENDBRANCH   6  16
ENDBRANCH   1  14
BRANCH   4  18
ATOM     18  O   UNL     1       2.489   1.553  18.180  0.00  0.00    +0.000 OA
ATOM     19  H   UNL     1       1.759   2.162  17.925  0.00  0.00    +0.000 HD
ENDBRANCH   4  18
BRANCH   5  20
ATOM     20  O   UNL     1       4.597   2.153  16.851  0.00  0.00    +0.000 OA
ATOM     21  H   UNL     1       4.025   1.362  16.970  0.00  0.00    +0.000 HD
ENDBRANCH   5  20
BRANCH   3  22
ATOM     22  C   UNL     1       1.403   3.283  20.231  0.00  0.00    +0.000 C 
BRANCH  22  23
ATOM     23  O   UNL     1       0.790   4.587  20.313  0.00  0.00    +0.000 OA
ATOM     24  H   UNL     1      -0.177   4.413  20.290  0.00  0.00    +0.000 HD
ENDBRANCH  22  23
BRANCH  22  25
ATOM     25  C   UNL     1       1.279   2.607  21.602  0.00  0.00    +0.000 C 
BRANCH  25  26
ATOM     26  O   UNL     1       2.486   2.762  22.348  0.00  0.00    +0.000 OA
ATOM     27  H   UNL     1       3.206   2.916  21.704  0.00  0.00    +0.000 HD
ENDBRANCH  25  26
ENDBRANCH  22  25
ENDBRANCH   3  22
TORSDOF 8
ENDMDL
