MODEL 1
REMARK VINA RESULT:      -8.4      0.000      0.000
REMARK  Name = 
REMARK  14 active torsions:
REMARK  status: ('A' for Active; 'I' for Inactive)
REMARK    1  A    between atoms: C_1  and  O_2
REMARK    2  A    between atoms: O_2  and  C_3
REMARK    3  A    between atoms: C_6  and  C_7
REMARK    4  A    between atoms: C_7  and  C_8
REMARK    5  A    between atoms: C_8  and  C_9
REMARK    6  A    between atoms: C_9  and  C_10
REMARK    7  A    between atoms: C_10  and  O_11
REMARK    8  A    between atoms: O_11  and  C_12
REMARK    9  A    between atoms: C_15  and  C_16
REMARK   10  A    between atoms: C_16  and  S_17
REMARK   11  A    between atoms: S_17  and  C_18
REMARK   12  A    between atoms: C_25  and  C_26
REMARK   13  A    between atoms: C_27  and  C_28
REMARK   14  A    between atoms: C_28  and  O_30
REMARK                            x       y       z     vdW  Elec       q    Type
REMARK                         _______ _______ _______ _____ _____    ______ ____
ROOT
ATOM      1  C   UNL     1       6.652   5.530  17.324  0.00  0.00    +0.000 A 
ATOM      2  C   UNL     1       6.353   5.369  18.676  0.00  0.00    +0.000 A 
ATOM      3  C   UNL     1       5.415   4.427  19.077  0.00  0.00    +0.000 A 
ATOM      4  C   UNL     1       4.763   3.668  18.114  0.00  0.00    +0.000 A 
ATOM      5  N   UNL     1       5.055   3.773  16.793  0.00  0.00    +0.000 NA
ATOM      6  C   UNL     1       5.987   4.696  16.409  0.00  0.00    +0.000 A 
ENDROOT
BRANCH   6   7
ATOM      7  C   UNL     1       6.278   4.751  14.963  0.00  0.00    +0.000 C 
ATOM      8  C   UNL     1       6.068   3.726  14.120  0.00  0.00    +0.000 C 
BRANCH   8   9
ATOM      9  C   UNL     1       6.418   3.868  12.694  0.00  0.00    +0.000 C 
ATOM     10  O   UNL     1       7.355   4.515  12.269  0.00  0.00    +0.000 OA
BRANCH   9  11
ATOM     11  O   UNL     1       5.574   3.179  11.899  0.00  0.00    +0.000 OA
ATOM     12  H   UNL     1       4.812   2.777  12.352  0.00  0.00    +0.000 HD
ENDBRANCH   9  11
ENDBRANCH   8   9
ENDBRANCH   6   7
BRANCH   1  13
ATOM     13  O   UNL     1       7.522   6.479  16.845  0.00  0.00    +0.000 OA
BRANCH  13  14
ATOM     14  C   UNL     1       7.268   7.822  17.257  0.00  0.00    +0.000 C 
BRANCH  14  15
ATOM     15  C   UNL     1       8.323   8.264  18.264  0.00  0.00    +0.000 C 
BRANCH  15  16
ATOM     16  C   UNL     1       8.494   9.781  18.195  0.00  0.00    +0.000 C 
BRANCH  16  17
ATOM     17  C   UNL     1       9.473  10.293  19.247  0.00  0.00    +0.000 C 
BRANCH  17  21
ATOM     18  C   UNL     1      11.173  14.087  18.081  0.00  0.00    +0.000 A 
ATOM     19  C   UNL     1      11.447  12.934  17.345  0.00  0.00    +0.000 A 
ATOM     20  C   UNL     1      10.886  11.710  17.712  0.00  0.00    +0.000 A 
ATOM     21  C   UNL     1      10.053  11.622  18.833  0.00  0.00    +0.000 A 
ATOM     22  C   UNL     1       9.812  12.774  19.592  0.00  0.00    +0.000 A 
ATOM     23  C   UNL     1      10.369  14.001  19.217  0.00  0.00    +0.000 A 
BRANCH  18  25
ATOM     24  C   UNL     1      10.960  16.035  16.772  0.00  0.00    +0.000 C 
ATOM     25  O   UNL     1      11.769  15.229  17.621  0.00  0.00    +0.000 OA
ENDBRANCH  18  25
ENDBRANCH  17  21
ENDBRANCH  16  17
ENDBRANCH  15  16
ENDBRANCH  14  15
ENDBRANCH  13  14
ENDBRANCH   1  13
BRANCH   4  26
ATOM     26  C   UNL     1       3.668   2.712  18.538  0.00  0.00    +0.000 C 
BRANCH  26  27
ATOM     27  S   UNL     1       2.015   3.409  18.154  0.00  0.00    +0.000 S 
BRANCH  27  28
ATOM     28  C   UNL     1       2.038   5.035  18.884  0.00  0.00    +0.000 A 
ATOM     29  C   UNL     1       1.768   5.323  20.223  0.00  0.00    +0.000 A 
ATOM     30  C   UNL     1       1.764   6.646  20.679  0.00  0.00    +0.000 A 
ATOM     31  C   UNL     1       2.033   7.694  19.800  0.00  0.00    +0.000 A 
ATOM     32  C   UNL     1       2.322   7.420  18.467  0.00  0.00    +0.000 A 
ATOM     33  C   UNL     1       2.326   6.099  18.015  0.00  0.00    +0.000 A 
ENDBRANCH  27  28
ENDBRANCH  26  27
ENDBRANCH   4  26
TORSDOF 13
ENDMDL
MODEL 2
REMARK VINA RESULT:      -8.3      0.795      1.182
REMARK  Name = 
REMARK  14 active torsions:
REMARK  status: ('A' for Active; 'I' for Inactive)
REMARK    1  A    between atoms: C_1  and  O_2
REMARK    2  A    between atoms: O_2  and  C_3
REMARK    3  A    between atoms: C_6  and  C_7
REMARK    4  A    between atoms: C_7  and  C_8
REMARK    5  A    between atoms: C_8  and  C_9
REMARK    6  A    between atoms: C_9  and  C_10
REMARK    7  A    between atoms: C_10  and  O_11
REMARK    8  A    between atoms: O_11  and  C_12
REMARK    9  A    between atoms: C_15  and  C_16
REMARK   10  A    between atoms: C_16  and  S_17
REMARK   11  A    between atoms: S_17  and  C_18
REMARK   12  A    between atoms: C_25  and  C_26
REMARK   13  A    between atoms: C_27  and  C_28
REMARK   14  A    between atoms: C_28  and  O_30
REMARK                            x       y       z     vdW  Elec       q    Type
REMARK                         _______ _______ _______ _____ _____    ______ ____
ROOT
ATOM      1  C   UNL     1       6.138   5.249  17.246  0.00  0.00    +0.000 A 
ATOM      2  C   UNL     1       6.062   5.088  18.628  0.00  0.00    +0.000 A 
ATOM      3  C   UNL     1       5.231   4.120  19.174  0.00  0.00    +0.000 A 
ATOM      4  C   UNL     1       4.459   3.334  18.329  0.00  0.00    +0.000 A 
ATOM      5  N   UNL     1       4.535   3.438  16.978  0.00  0.00    +0.000 NA
ATOM      6  C   UNL     1       5.364   4.388  16.449  0.00  0.00    +0.000 A 
ENDROOT
BRANCH   6   7
ATOM      7  C   UNL     1       5.420   4.442  14.975  0.00  0.00    +0.000 C 
ATOM      8  C   UNL     1       6.233   3.674  14.231  0.00  0.00    +0.000 C 
BRANCH   8   9
ATOM      9  C   UNL     1       6.238   3.822  12.763  0.00  0.00    +0.000 C 
ATOM     10  O   UNL     1       7.186   4.207  12.106  0.00  0.00    +0.000 OA
BRANCH   9  11
ATOM     11  O   UNL     1       5.056   3.467  12.219  0.00  0.00    +0.000 OA
ATOM     12  H   UNL     1       4.884   2.509  12.189  0.00  0.00    +0.000 HD
ENDBRANCH   9  11
ENDBRANCH   8   9
ENDBRANCH   6   7
BRANCH   1  13
ATOM     13  O   UNL     1       6.890   6.222  16.632  0.00  0.00    +0.000 OA
BRANCH  13  14
ATOM     14  C   UNL     1       6.829   7.520  17.222  0.00  0.00    +0.000 C 
BRANCH  14  15
ATOM     15  C   UNL     1       8.235   8.005  17.556  0.00  0.00    +0.000 C 
BRANCH  15  16
ATOM     16  C   UNL     1       8.184   9.469  17.988  0.00  0.00    +0.000 C 
BRANCH  16  17
ATOM     17  C   UNL     1       8.985   9.717  19.263  0.00  0.00    +0.000 C 
BRANCH  17  21
ATOM     18  C   UNL     1      11.420  13.261  18.876  0.00  0.00    +0.000 A 
ATOM     19  C   UNL     1      10.859  12.662  17.747  0.00  0.00    +0.000 A 
ATOM     20  C   UNL     1      10.060  11.525  17.873  0.00  0.00    +0.000 A 
ATOM     21  C   UNL     1       9.823  10.963  19.132  0.00  0.00    +0.000 A 
ATOM     22  C   UNL     1      10.419  11.545  20.258  0.00  0.00    +0.000 A 
ATOM     23  C   UNL     1      11.213  12.688  20.131  0.00  0.00    +0.000 A 
BRANCH  18  25
ATOM     24  C   UNL     1      12.328  14.714  17.257  0.00  0.00    +0.000 C 
ATOM     25  O   UNL     1      12.176  14.375  18.632  0.00  0.00    +0.000 OA
ENDBRANCH  18  25
ENDBRANCH  17  21
ENDBRANCH  16  17
ENDBRANCH  15  16
ENDBRANCH  14  15
ENDBRANCH  13  14
ENDBRANCH   1  13
BRANCH   4  26
ATOM     26  C   UNL     1       3.476   2.347  18.923  0.00  0.00    +0.000 C 
BRANCH  26  27
ATOM     27  S   UNL     1       1.756   2.962  18.751  0.00  0.00    +0.000 S 
BRANCH  27  28
ATOM     28  C   UNL     1       1.883   4.719  19.020  0.00  0.00    +0.000 A 
ATOM     29  C   UNL     1       2.118   5.673  18.027  0.00  0.00    +0.000 A 
ATOM     30  C   UNL     1       2.252   7.026  18.359  0.00  0.00    +0.000 A 
ATOM     31  C   UNL     1       2.147   7.438  19.686  0.00  0.00    +0.000 A 
ATOM     32  C   UNL     1       1.894   6.501  20.683  0.00  0.00    +0.000 A 
ATOM     33  C   UNL     1       1.761   5.152  20.349  0.00  0.00    +0.000 A 
ENDBRANCH  27  28
ENDBRANCH  26  27
ENDBRANCH   4  26
TORSDOF 13
ENDMDL
MODEL 3
REMARK VINA RESULT:      -7.7      2.421      3.970
REMARK  Name = 
REMARK  14 active torsions:
REMARK  status: ('A' for Active; 'I' for Inactive)
REMARK    1  A    between atoms: C_1  and  O_2
REMARK    2  A    between atoms: O_2  and  C_3
REMARK    3  A    between atoms: C_6  and  C_7
REMARK    4  A    between atoms: C_7  and  C_8
REMARK    5  A    between atoms: C_8  and  C_9
REMARK    6  A    between atoms: C_9  and  C_10
REMARK    7  A    between atoms: C_10  and  O_11
REMARK    8  A    between atoms: O_11  and  C_12
REMARK    9  A    between atoms: C_15  and  C_16
REMARK   10  A    between atoms: C_16  and  S_17
REMARK   11  A    between atoms: S_17  and  C_18
REMARK   12  A    between atoms: C_25  and  C_26
REMARK   13  A    between atoms: C_27  and  C_28
REMARK   14  A    between atoms: C_28  and  O_30
REMARK                            x       y       z     vdW  Elec       q    Type
REMARK                         _______ _______ _______ _____ _____    ______ ____
ROOT
ATOM      1  C   UNL     1       6.223   7.010  17.295  0.00  0.00    +0.000 A 
ATOM      2  C   UNL     1       7.035   5.901  17.069  0.00  0.00    +0.000 A 
ATOM      3  C   UNL     1       6.472   4.642  16.913  0.00  0.00    +0.000 A 
ATOM      4  C   UNL     1       5.094   4.500  17.009  0.00  0.00    +0.000 A 
ATOM      5  N   UNL     1       4.270   5.563  17.192  0.00  0.00    +0.000 NA
ATOM      6  C   UNL     1       4.834   6.800  17.334  0.00  0.00    +0.000 A 
ENDROOT
BRANCH   6   7
ATOM      7  C   UNL     1       3.888   7.920  17.510  0.00  0.00    +0.000 C 
ATOM      8  C   UNL     1       2.744   7.827  18.206  0.00  0.00    +0.000 C 
BRANCH   8   9
ATOM      9  C   UNL     1       1.848   8.995  18.300  0.00  0.00    +0.000 C 
ATOM     10  O   UNL     1       1.060   9.196  19.205  0.00  0.00    +0.000 OA
BRANCH   9  11
ATOM     11  O   UNL     1       2.008   9.837  17.259  0.00  0.00    +0.000 OA
ATOM     12  H   UNL     1       2.284  10.740  17.495  0.00  0.00    +0.000 HD
ENDBRANCH   9  11
ENDBRANCH   8   9
ENDBRANCH   6   7
BRANCH   1  13
ATOM     13  O   UNL     1       6.708   8.277  17.518  0.00  0.00    +0.000 OA
BRANCH  13  14
ATOM     14  C   UNL     1       8.090   8.362  17.865  0.00  0.00    +0.000 C 
BRANCH  14  15
ATOM     15  C   UNL     1       8.568   9.803  17.740  0.00  0.00    +0.000 C 
BRANCH  15  16
ATOM     16  C   UNL     1       8.826  10.381  19.131  0.00  0.00    +0.000 C 
BRANCH  16  17
ATOM     17  C   UNL     1      10.271  10.838  19.300  0.00  0.00    +0.000 C 
BRANCH  17  21
ATOM     18  C   UNL     1      10.930  14.525  17.153  0.00  0.00    +0.000 A 
ATOM     19  C   UNL     1       9.865  14.409  18.047  0.00  0.00    +0.000 A 
ATOM     20  C   UNL     1       9.660  13.222  18.753  0.00  0.00    +0.000 A 
ATOM     21  C   UNL     1      10.513  12.129  18.561  0.00  0.00    +0.000 A 
ATOM     22  C   UNL     1      11.557  12.237  17.634  0.00  0.00    +0.000 A 
ATOM     23  C   UNL     1      11.765  13.430  16.934  0.00  0.00    +0.000 A 
BRANCH  18  25
ATOM     24  C   UNL     1      10.663  16.861  17.317  0.00  0.00    +0.000 C 
ATOM     25  O   UNL     1      11.038  15.737  16.528  0.00  0.00    +0.000 OA
ENDBRANCH  18  25
ENDBRANCH  17  21
ENDBRANCH  16  17
ENDBRANCH  15  16
ENDBRANCH  14  15
ENDBRANCH  13  14
ENDBRANCH   1  13
BRANCH   4  26
ATOM     26  C   UNL     1       4.483   3.116  16.941  0.00  0.00    +0.000 C 
BRANCH  26  27
ATOM     27  S   UNL     1       2.666   3.196  17.184  0.00  0.00    +0.000 S 
BRANCH  27  28
ATOM     28  C   UNL     1       2.449   3.079  18.950  0.00  0.00    +0.000 A 
ATOM     29  C   UNL     1       3.416   2.637  19.854  0.00  0.00    +0.000 A 
ATOM     30  C   UNL     1       3.118   2.536  21.219  0.00  0.00    +0.000 A 
ATOM     31  C   UNL     1       1.853   2.881  21.690  0.00  0.00    +0.000 A 
ATOM     32  C   UNL     1       0.887   3.342  20.802  0.00  0.00    +0.000 A 
ATOM     33  C   UNL     1       1.186   3.442  19.443  0.00  0.00    +0.000 A 
ENDBRANCH  27  28
ENDBRANCH  26  27
ENDBRANCH   4  26
TORSDOF 13
ENDMDL
MODEL 4
REMARK VINA RESULT:      -7.6      5.295      8.305
REMARK  Name = 
REMARK  14 active torsions:
REMARK  status: ('A' for Active; 'I' for Inactive)
REMARK    1  A    between atoms: C_1  and  O_2
REMARK    2  A    between atoms: O_2  and  C_3
REMARK    3  A    between atoms: C_6  and  C_7
REMARK    4  A    between atoms: C_7  and  C_8
REMARK    5  A    between atoms: C_8  and  C_9
REMARK    6  A    between atoms: C_9  and  C_10
REMARK    7  A    between atoms: C_10  and  O_11
REMARK    8  A    between atoms: O_11  and  C_12
REMARK    9  A    between atoms: C_15  and  C_16
REMARK   10  A    between atoms: C_16  and  S_17
REMARK   11  A    between atoms: S_17  and  C_18
REMARK   12  A    between atoms: C_25  and  C_26
REMARK   13  A    between atoms: C_27  and  C_28
REMARK   14  A    between atoms: C_28  and  O_30
REMARK                            x       y       z     vdW  Elec       q    Type
REMARK                         _______ _______ _______ _____ _____    ______ ____
ROOT
ATOM      1  C   UNL     1       3.806   5.787  17.927  0.00  0.00    +0.000 A 
ATOM      2  C   UNL     1       4.377   6.864  17.252  0.00  0.00    +0.000 A 
ATOM      3  C   UNL     1       3.756   8.105  17.264  0.00  0.00    +0.000 A 
ATOM      4  C   UNL     1       2.549   8.252  17.936  0.00  0.00    +0.000 A 
ATOM      5  N   UNL     1       1.983   7.235  18.634  0.00  0.00    +0.000 NA
ATOM      6  C   UNL     1       2.607   6.019  18.624  0.00  0.00    +0.000 A 
ENDROOT
BRANCH   6   7
ATOM      7  C   UNL     1       1.956   4.958  19.416  0.00  0.00    +0.000 C 
ATOM      8  C   UNL     1       2.410   4.530  20.606  0.00  0.00    +0.000 C 
BRANCH   8   9
ATOM      9  C   UNL     1       1.707   3.442  21.309  0.00  0.00    +0.000 C 
ATOM     10  O   UNL     1       2.048   2.968  22.376  0.00  0.00    +0.000 OA
BRANCH   9  11
ATOM     11  O   UNL     1       0.616   3.028  20.632  0.00  0.00    +0.000 OA
ATOM     12  H   UNL     1       0.786   2.375  19.931  0.00  0.00    +0.000 HD
ENDBRANCH   9  11
ENDBRANCH   8   9
ENDBRANCH   6   7
BRANCH   1  13
ATOM     13  O   UNL     1       4.328   4.515  17.913  0.00  0.00    +0.000 OA
BRANCH  13  14
ATOM     14  C   UNL     1       5.426   4.284  18.795  0.00  0.00    +0.000 C 
BRANCH  14  15
ATOM     15  C   UNL     1       6.602   5.169  18.402  0.00  0.00    +0.000 C 
BRANCH  15  16
ATOM     16  C   UNL     1       7.315   4.568  17.192  0.00  0.00    +0.000 C 
BRANCH  16  17
ATOM     17  C   UNL     1       7.336   5.529  16.007  0.00  0.00    +0.000 C 
BRANCH  17  21
ATOM     18  C   UNL     1       5.865   3.556  12.460  0.00  0.00    +0.000 A 
ATOM     19  C   UNL     1       5.118   3.540  13.639  0.00  0.00    +0.000 A 
ATOM     20  C   UNL     1       5.586   4.191  14.781  0.00  0.00    +0.000 A 
ATOM     21  C   UNL     1       6.818   4.854  14.763  0.00  0.00    +0.000 A 
ATOM     22  C   UNL     1       7.582   4.834  13.589  0.00  0.00    +0.000 A 
ATOM     23  C   UNL     1       7.108   4.188  12.443  0.00  0.00    +0.000 A 
BRANCH  18  25
ATOM     24  C   UNL     1       3.929   3.188  11.167  0.00  0.00    +0.000 C 
ATOM     25  O   UNL     1       5.302   2.894  11.403  0.00  0.00    +0.000 OA
ENDBRANCH  18  25
ENDBRANCH  17  21
ENDBRANCH  16  17
ENDBRANCH  15  16
ENDBRANCH  14  15
ENDBRANCH  13  14
ENDBRANCH   1  13
BRANCH   4  26
ATOM     26  C   UNL     1       1.818   9.577  17.866  0.00  0.00    +0.000 C 
BRANCH  26  27
ATOM     27  S   UNL     1       0.766   9.814  19.351  0.00  0.00    +0.000 S 
BRANCH  27  28
ATOM     28  C   UNL     1      -0.809  10.337  18.700  0.00  0.00    +0.000 A 
ATOM     29  C   UNL     1      -1.387   9.875  17.516  0.00  0.00    +0.000 A 
ATOM     30  C   UNL     1      -2.609  10.395  17.072  0.00  0.00    +0.000 A 
ATOM     31  C   UNL     1      -3.265  11.378  17.811  0.00  0.00    +0.000 A 
ATOM     32  C   UNL     1      -2.710  11.833  19.002  0.00  0.00    +0.000 A 
ATOM     33  C   UNL     1      -1.492  11.313  19.443  0.00  0.00    +0.000 A 
ENDBRANCH  27  28
ENDBRANCH  26  27
ENDBRANCH   4  26
TORSDOF 13
ENDMDL
MODEL 5
REMARK VINA RESULT:      -7.6      1.194      1.730
REMARK  Name = 
REMARK  14 active torsions:
REMARK  status: ('A' for Active; 'I' for Inactive)
REMARK    1  A    between atoms: C_1  and  O_2
REMARK    2  A    between atoms: O_2  and  C_3
REMARK    3  A    between atoms: C_6  and  C_7
REMARK    4  A    between atoms: C_7  and  C_8
REMARK    5  A    between atoms: C_8  and  C_9
REMARK    6  A    between atoms: C_9  and  C_10
REMARK    7  A    between atoms: C_10  and  O_11
REMARK    8  A    between atoms: O_11  and  C_12
REMARK    9  A    between atoms: C_15  and  C_16
REMARK   10  A    between atoms: C_16  and  S_17
REMARK   11  A    between atoms: S_17  and  C_18
REMARK   12  A    between atoms: C_25  and  C_26
REMARK   13  A    between atoms: C_27  and  C_28
REMARK   14  A    between atoms: C_28  and  O_30
REMARK                            x       y       z     vdW  Elec       q    Type
REMARK                         _______ _______ _______ _____ _____    ______ ____
ROOT
ATOM      1  C   UNL     1       6.125   4.675  18.217  0.00  0.00    +0.000 A 
ATOM      2  C   UNL     1       5.509   4.560  19.462  0.00  0.00    +0.000 A 
ATOM      3  C   UNL     1       4.484   3.643  19.652  0.00  0.00    +0.000 A 
ATOM      4  C   UNL     1       4.067   2.861  18.582  0.00  0.00    +0.000 A 
ATOM      5  N   UNL     1       4.669   2.921  17.367  0.00  0.00    +0.000 NA
ATOM      6  C   UNL     1       5.683   3.820  17.193  0.00  0.00    +0.000 A 
ENDROOT
BRANCH   6   7
ATOM      7  C   UNL     1       6.313   3.826  15.858  0.00  0.00    +0.000 C 
ATOM      8  C   UNL     1       5.853   4.542  14.819  0.00  0.00    +0.000 C 
BRANCH   8   9
ATOM      9  C   UNL     1       6.534   4.459  13.514  0.00  0.00    +0.000 C 
ATOM     10  O   UNL     1       6.229   3.696  12.617  0.00  0.00    +0.000 OA
BRANCH   9  11
ATOM     11  O   UNL     1       7.546   5.346  13.418  0.00  0.00    +0.000 OA
ATOM     12  H   UNL     1       8.410   5.025  13.732  0.00  0.00    +0.000 HD
ENDBRANCH   9  11
ENDBRANCH   8   9
ENDBRANCH   6   7
BRANCH   1  13
ATOM     13  O   UNL     1       7.104   5.598  17.935  0.00  0.00    +0.000 OA
BRANCH  13  14
ATOM     14  C   UNL     1       6.656   6.938  17.737  0.00  0.00    +0.000 C 
BRANCH  14  15
ATOM     15  C   UNL     1       7.770   7.770  17.113  0.00  0.00    +0.000 C 
BRANCH  15  16
ATOM     16  C   UNL     1       7.836   9.135  17.798  0.00  0.00    +0.000 C 
BRANCH  16  17
ATOM     17  C   UNL     1       8.887   9.169  18.903  0.00  0.00    +0.000 C 
BRANCH  17  21
ATOM     18  C   UNL     1      10.390  13.173  19.491  0.00  0.00    +0.000 A 
ATOM     19  C   UNL     1      10.202  12.671  18.202  0.00  0.00    +0.000 A 
ATOM     20  C   UNL     1       9.702  11.382  18.012  0.00  0.00    +0.000 A 
ATOM     21  C   UNL     1       9.397  10.572  19.112  0.00  0.00    +0.000 A 
ATOM     22  C   UNL     1       9.624  11.066  20.402  0.00  0.00    +0.000 A 
ATOM     23  C   UNL     1      10.118  12.360  20.591  0.00  0.00    +0.000 A 
BRANCH  18  25
ATOM     24  C   UNL     1      12.292  14.564  19.499  0.00  0.00    +0.000 C 
ATOM     25  O   UNL     1      10.875  14.451  19.554  0.00  0.00    +0.000 OA
ENDBRANCH  18  25
ENDBRANCH  17  21
ENDBRANCH  16  17
ENDBRANCH  15  16
ENDBRANCH  14  15
ENDBRANCH  13  14
ENDBRANCH   1  13
BRANCH   4  26
ATOM     26  C   UNL     1       2.883   1.933  18.757  0.00  0.00    +0.000 C 
BRANCH  26  27
ATOM     27  S   UNL     1       1.310   2.819  18.431  0.00  0.00    +0.000 S 
BRANCH  27  28
ATOM     28  C   UNL     1       1.664   4.518  18.839  0.00  0.00    +0.000 A 
ATOM     29  C   UNL     1       2.141   5.480  17.946  0.00  0.00    +0.000 A 
ATOM     30  C   UNL     1       2.435   6.775  18.388  0.00  0.00    +0.000 A 
ATOM     31  C   UNL     1       2.251   7.121  19.726  0.00  0.00    +0.000 A 
ATOM     32  C   UNL     1       1.759   6.177  20.622  0.00  0.00    +0.000 A 
ATOM     33  C   UNL     1       1.466   4.887  20.178  0.00  0.00    +0.000 A 
ENDBRANCH  27  28
ENDBRANCH  26  27
ENDBRANCH   4  26
TORSDOF 13
ENDMDL
MODEL 6
REMARK VINA RESULT:      -7.4      2.126      3.706
REMARK  Name = 
REMARK  14 active torsions:
REMARK  status: ('A' for Active; 'I' for Inactive)
REMARK    1  A    between atoms: C_1  and  O_2
REMARK    2  A    between atoms: O_2  and  C_3
REMARK    3  A    between atoms: C_6  and  C_7
REMARK    4  A    between atoms: C_7  and  C_8
REMARK    5  A    between atoms: C_8  and  C_9
REMARK    6  A    between atoms: C_9  and  C_10
REMARK    7  A    between atoms: C_10  and  O_11
REMARK    8  A    between atoms: O_11  and  C_12
REMARK    9  A    between atoms: C_15  and  C_16
REMARK   10  A    between atoms: C_16  and  S_17
REMARK   11  A    between atoms: S_17  and  C_18
REMARK   12  A    between atoms: C_25  and  C_26
REMARK   13  A    between atoms: C_27  and  C_28
REMARK   14  A    between atoms: C_28  and  O_30
REMARK                            x       y       z     vdW  Elec       q    Type
REMARK                         _______ _______ _______ _____ _____    ______ ____
ROOT
ATOM      1  C   UNL     1       6.016   6.369  16.659  0.00  0.00    +0.000 A 
ATOM      2  C   UNL     1       6.646   5.211  16.205  0.00  0.00    +0.000 A 
ATOM      3  C   UNL     1       5.970   3.999  16.212  0.00  0.00    +0.000 A 
ATOM      4  C   UNL     1       4.670   3.951  16.700  0.00  0.00    +0.000 A 
ATOM      5  N   UNL     1       4.014   5.064  17.116  0.00  0.00    +0.000 NA
ATOM      6  C   UNL     1       4.685   6.254  17.095  0.00  0.00    +0.000 A 
ENDROOT
BRANCH   6   7
ATOM      7  C   UNL     1       3.915   7.432  17.540  0.00  0.00    +0.000 C 
ATOM      8  C   UNL     1       2.635   7.378  17.944  0.00  0.00    +0.000 C 
BRANCH   8   9
ATOM      9  C   UNL     1       1.940   8.616  18.343  0.00  0.00    +0.000 C 
ATOM     10  O   UNL     1       1.471   8.826  19.445  0.00  0.00    +0.000 OA
BRANCH   9  11
ATOM     11  O   UNL     1       1.889   9.510  17.335  0.00  0.00    +0.000 OA
ATOM     12  H   UNL     1       2.251  10.390  17.543  0.00  0.00    +0.000 HD
ENDBRANCH   9  11
ENDBRANCH   8   9
ENDBRANCH   6   7
BRANCH   1  13
ATOM     13  O   UNL     1       6.637   7.592  16.739  0.00  0.00    +0.000 OA
BRANCH  13  14
ATOM     14  C   UNL     1       7.602   7.734  17.781  0.00  0.00    +0.000 C 
BRANCH  14  15
ATOM     15  C   UNL     1       8.553   8.878  17.455  0.00  0.00    +0.000 C 
BRANCH  15  16
ATOM     16  C   UNL     1       8.303  10.042  18.413  0.00  0.00    +0.000 C 
BRANCH  16  17
ATOM     17  C   UNL     1       9.555  10.410  19.204  0.00  0.00    +0.000 C 
BRANCH  17  21
ATOM     18  C   UNL     1      11.331  14.004  17.600  0.00  0.00    +0.000 A 
ATOM     19  C   UNL     1       9.958  13.943  17.847  0.00  0.00    +0.000 A 
ATOM     20  C   UNL     1       9.386  12.787  18.379  0.00  0.00    +0.000 A 
ATOM     21  C   UNL     1      10.180  11.669  18.658  0.00  0.00    +0.000 A 
ATOM     22  C   UNL     1      11.550  11.721  18.373  0.00  0.00    +0.000 A 
ATOM     23  C   UNL     1      12.123  12.883  17.847  0.00  0.00    +0.000 A 
BRANCH  18  25
ATOM     24  C   UNL     1      10.763  16.119  16.728  0.00  0.00    +0.000 C 
ATOM     25  O   UNL     1      11.780  15.190  17.088  0.00  0.00    +0.000 OA
ENDBRANCH  18  25
ENDBRANCH  17  21
ENDBRANCH  16  17
ENDBRANCH  15  16
ENDBRANCH  14  15
ENDBRANCH  13  14
ENDBRANCH   1  13
BRANCH   4  26
ATOM     26  C   UNL     1       3.965   2.615  16.804  0.00  0.00    +0.000 C 
BRANCH  26  27
ATOM     27  S   UNL     1       4.020   1.986  18.526  0.00  0.00    +0.000 S 
BRANCH  27  28
ATOM     28  C   UNL     1       2.768   2.923  19.382  0.00  0.00    +0.000 A 
ATOM     29  C   UNL     1       1.392   2.705  19.289  0.00  0.00    +0.000 A 
ATOM     30  C   UNL     1       0.494   3.538  19.967  0.00  0.00    +0.000 A 
ATOM     31  C   UNL     1       0.964   4.593  20.747  0.00  0.00    +0.000 A 
ATOM     32  C   UNL     1       2.333   4.809  20.863  0.00  0.00    +0.000 A 
ATOM     33  C   UNL     1       3.227   3.977  20.187  0.00  0.00    +0.000 A 
ENDBRANCH  27  28
ENDBRANCH  26  27
ENDBRANCH   4  26
TORSDOF 13
ENDMDL
MODEL 7
REMARK VINA RESULT:      -7.4      7.746     11.583
REMARK  Name = 
REMARK  14 active torsions:
REMARK  status: ('A' for Active; 'I' for Inactive)
REMARK    1  A    between atoms: C_1  and  O_2
REMARK    2  A    between atoms: O_2  and  C_3
REMARK    3  A    between atoms: C_6  and  C_7
REMARK    4  A    between atoms: C_7  and  C_8
REMARK    5  A    between atoms: C_8  and  C_9
REMARK    6  A    between atoms: C_9  and  C_10
REMARK    7  A    between atoms: C_10  and  O_11
REMARK    8  A    between atoms: O_11  and  C_12
REMARK    9  A    between atoms: C_15  and  C_16
REMARK   10  A    between atoms: C_16  and  S_17
REMARK   11  A    between atoms: S_17  and  C_18
REMARK   12  A    between atoms: C_25  and  C_26
REMARK   13  A    between atoms: C_27  and  C_28
REMARK   14  A    between atoms: C_28  and  O_30
REMARK                            x       y       z     vdW  Elec       q    Type
REMARK                         _______ _______ _______ _____ _____    ______ ____
ROOT
ATOM      1  C   UNL     1      -1.407  10.810  18.551  0.00  0.00    +0.000 A 
ATOM      2  C   UNL     1      -1.418  11.427  19.800  0.00  0.00    +0.000 A 
ATOM      3  C   UNL     1      -2.538  12.130  20.223  0.00  0.00    +0.000 A 
ATOM      4  C   UNL     1      -3.634  12.231  19.376  0.00  0.00    +0.000 A 
ATOM      5  N   UNL     1      -3.672  11.613  18.168  0.00  0.00    +0.000 NA
ATOM      6  C   UNL     1      -2.568  10.915  17.765  0.00  0.00    +0.000 A 
ENDROOT
BRANCH   6   7
ATOM      7  C   UNL     1      -2.674  10.248  16.453  0.00  0.00    +0.000 C 
ATOM      8  C   UNL     1      -3.274  10.796  15.384  0.00  0.00    +0.000 C 
BRANCH   8   9
ATOM      9  C   UNL     1      -3.356  10.038  14.121  0.00  0.00    +0.000 C 
ATOM     10  O   UNL     1      -2.402   9.719  13.438  0.00  0.00    +0.000 OA
BRANCH   9  11
ATOM     11  O   UNL     1      -4.629   9.722  13.807  0.00  0.00    +0.000 OA
ATOM     12  H   UNL     1      -5.258  10.464  13.830  0.00  0.00    +0.000 HD
ENDBRANCH   9  11
ENDBRANCH   8   9
ENDBRANCH   6   7
BRANCH   1  13
ATOM     13  O   UNL     1      -0.317  10.148  18.038  0.00  0.00    +0.000 OA
BRANCH  13  14
ATOM     14  C   UNL     1       0.797  10.008  18.919  0.00  0.00    +0.000 C 
BRANCH  14  15
ATOM     15  C   UNL     1       2.076   9.819  18.112  0.00  0.00    +0.000 C 
BRANCH  15  16
ATOM     16  C   UNL     1       2.027   8.480  17.379  0.00  0.00    +0.000 C 
BRANCH  16  17
ATOM     17  C   UNL     1       3.134   7.536  17.838  0.00  0.00    +0.000 C 
BRANCH  17  21
ATOM     18  C   UNL     1       1.442   4.190  19.978  0.00  0.00    +0.000 A 
ATOM     19  C   UNL     1       1.659   4.111  18.601  0.00  0.00    +0.000 A 
ATOM     20  C   UNL     1       2.220   5.187  17.912  0.00  0.00    +0.000 A 
ATOM     21  C   UNL     1       2.557   6.364  18.590  0.00  0.00    +0.000 A 
ATOM     22  C   UNL     1       2.302   6.452  19.964  0.00  0.00    +0.000 A 
ATOM     23  C   UNL     1       1.747   5.370  20.655  0.00  0.00    +0.000 A 
BRANCH  18  25
ATOM     24  C   UNL     1       1.579   2.585  21.699  0.00  0.00    +0.000 C 
ATOM     25  O   UNL     1       0.898   3.071  20.547  0.00  0.00    +0.000 OA
ENDBRANCH  18  25
ENDBRANCH  17  21
ENDBRANCH  16  17
ENDBRANCH  15  16
ENDBRANCH  14  15
ENDBRANCH  13  14
ENDBRANCH   1  13
BRANCH   4  26
ATOM     26  C   UNL     1      -4.817  13.081  19.790  0.00  0.00    +0.000 C 
BRANCH  26  27
ATOM     27  S   UNL     1      -4.350  14.223  21.148  0.00  0.00    +0.000 S 
BRANCH  27  28
ATOM     28  C   UNL     1      -5.702  14.115  22.304  0.00  0.00    +0.000 A 
ATOM     29  C   UNL     1      -6.405  15.202  22.828  0.00  0.00    +0.000 A 
ATOM     30  C   UNL     1      -7.419  15.003  23.772  0.00  0.00    +0.000 A 
ATOM     31  C   UNL     1      -7.742  13.716  24.198  0.00  0.00    +0.000 A 
ATOM     32  C   UNL     1      -7.062  12.623  23.670  0.00  0.00    +0.000 A 
ATOM     33  C   UNL     1      -6.052  12.824  22.728  0.00  0.00    +0.000 A 
ENDBRANCH  27  28
ENDBRANCH  26  27
ENDBRANCH   4  26
TORSDOF 13
ENDMDL
MODEL 8
REMARK VINA RESULT:      -7.3      3.031      7.595
REMARK  Name = 
REMARK  14 active torsions:
REMARK  status: ('A' for Active; 'I' for Inactive)
REMARK    1  A    between atoms: C_1  and  O_2
REMARK    2  A    between atoms: O_2  and  C_3
REMARK    3  A    between atoms: C_6  and  C_7
REMARK    4  A    between atoms: C_7  and  C_8
REMARK    5  A    between atoms: C_8  and  C_9
REMARK    6  A    between atoms: C_9  and  C_10
REMARK    7  A    between atoms: C_10  and  O_11
REMARK    8  A    between atoms: O_11  and  C_12
REMARK    9  A    between atoms: C_15  and  C_16
REMARK   10  A    between atoms: C_16  and  S_17
REMARK   11  A    between atoms: S_17  and  C_18
REMARK   12  A    between atoms: C_25  and  C_26
REMARK   13  A    between atoms: C_27  and  C_28
REMARK   14  A    between atoms: C_28  and  O_30
REMARK                            x       y       z     vdW  Elec       q    Type
REMARK                         _______ _______ _______ _____ _____    ______ ____
ROOT
ATOM      1  C   UNL     1       5.465   4.640  17.416  0.00  0.00    +0.000 A 
ATOM      2  C   UNL     1       5.823   5.099  18.682  0.00  0.00    +0.000 A 
ATOM      3  C   UNL     1       6.770   6.104  18.819  0.00  0.00    +0.000 A 
ATOM      4  C   UNL     1       7.373   6.627  17.682  0.00  0.00    +0.000 A 
ATOM      5  N   UNL     1       7.023   6.229  16.433  0.00  0.00    +0.000 NA
ATOM      6  C   UNL     1       6.082   5.246  16.308  0.00  0.00    +0.000 A 
ENDROOT
BRANCH   6   7
ATOM      7  C   UNL     1       5.727   4.869  14.926  0.00  0.00    +0.000 C 
ATOM      8  C   UNL     1       6.294   3.848  14.262  0.00  0.00    +0.000 C 
BRANCH   8   9
ATOM      9  C   UNL     1       5.893   3.567  12.871  0.00  0.00    +0.000 C 
ATOM     10  O   UNL     1       4.795   3.800  12.403  0.00  0.00    +0.000 OA
BRANCH   9  11
ATOM     11  O   UNL     1       6.900   3.023  12.158  0.00  0.00    +0.000 OA
ATOM     12  H   UNL     1       7.271   3.593  11.461  0.00  0.00    +0.000 HD
ENDBRANCH   9  11
ENDBRANCH   8   9
ENDBRANCH   6   7
BRANCH   1  13
ATOM     13  O   UNL     1       4.581   3.609  17.201  0.00  0.00    +0.000 OA
BRANCH  13  14
ATOM     14  C   UNL     1       3.737   3.275  18.302  0.00  0.00    +0.000 C 
BRANCH  14  15
ATOM     15  C   UNL     1       2.319   3.764  18.036  0.00  0.00    +0.000 C 
BRANCH  15  16
ATOM     16  C   UNL     1       2.307   5.290  17.967  0.00  0.00    +0.000 C 
BRANCH  16  17
ATOM     17  C   UNL     1       2.525   5.925  19.337  0.00  0.00    +0.000 C 
BRANCH  17  21
ATOM     18  C   UNL     1       1.142  10.015  19.346  0.00  0.00    +0.000 A 
ATOM     19  C   UNL     1       1.046   9.234  20.499  0.00  0.00    +0.000 A 
ATOM     20  C   UNL     1       1.507   7.917  20.501  0.00  0.00    +0.000 A 
ATOM     21  C   UNL     1       2.057   7.358  19.341  0.00  0.00    +0.000 A 
ATOM     22  C   UNL     1       2.116   8.133  18.177  0.00  0.00    +0.000 A 
ATOM     23  C   UNL     1       1.661   9.455  18.179  0.00  0.00    +0.000 A 
BRANCH  18  25
ATOM     24  C   UNL     1      -0.461  11.599  18.656  0.00  0.00    +0.000 C 
ATOM     25  O   UNL     1       0.669  11.293  19.466  0.00  0.00    +0.000 OA
ENDBRANCH  18  25
ENDBRANCH  17  21
ENDBRANCH  16  17
ENDBRANCH  15  16
ENDBRANCH  14  15
ENDBRANCH  13  14
ENDBRANCH   1  13
BRANCH   4  26
ATOM     26  C   UNL     1       8.479   7.651  17.832  0.00  0.00    +0.000 C 
BRANCH  26  27
ATOM     27  S   UNL     1       7.786   9.348  17.901  0.00  0.00    +0.000 S 
BRANCH  27  28
ATOM     28  C   UNL     1       9.079  10.326  18.643  0.00  0.00    +0.000 A 
ATOM     29  C   UNL     1       9.215  10.580  20.009  0.00  0.00    +0.000 A 
ATOM     30  C   UNL     1      10.242  11.407  20.479  0.00  0.00    +0.000 A 
ATOM     31  C   UNL     1      11.144  11.984  19.587  0.00  0.00    +0.000 A 
ATOM     32  C   UNL     1      11.031  11.724  18.225  0.00  0.00    +0.000 A 
ATOM     33  C   UNL     1      10.006  10.898  17.759  0.00  0.00    +0.000 A 
ENDBRANCH  27  28
ENDBRANCH  26  27
ENDBRANCH   4  26
TORSDOF 13
ENDMDL
MODEL 9
REMARK VINA RESULT:      -7.3      4.159      7.763
REMARK  Name = 
REMARK  14 active torsions:
REMARK  status: ('A' for Active; 'I' for Inactive)
REMARK    1  A    between atoms: C_1  and  O_2
REMARK    2  A    between atoms: O_2  and  C_3
REMARK    3  A    between atoms: C_6  and  C_7
REMARK    4  A    between atoms: C_7  and  C_8
REMARK    5  A    between atoms: C_8  and  C_9
REMARK    6  A    between atoms: C_9  and  C_10
REMARK    7  A    between atoms: C_10  and  O_11
REMARK    8  A    between atoms: O_11  and  C_12
REMARK    9  A    between atoms: C_15  and  C_16
REMARK   10  A    between atoms: C_16  and  S_17
REMARK   11  A    between atoms: S_17  and  C_18
REMARK   12  A    between atoms: C_25  and  C_26
REMARK   13  A    between atoms: C_27  and  C_28
REMARK   14  A    between atoms: C_28  and  O_30
REMARK                            x       y       z     vdW  Elec       q    Type
REMARK                         _______ _______ _______ _____ _____    ______ ____
ROOT
ATOM      1  C   UNL     1       2.413   6.305  18.965  0.00  0.00    +0.000 A 
ATOM      2  C   UNL     1       2.594   7.543  18.352  0.00  0.00    +0.000 A 
ATOM      3  C   UNL     1       2.076   8.692  18.933  0.00  0.00    +0.000 A 
ATOM      4  C   UNL     1       1.356   8.589  20.117  0.00  0.00    +0.000 A 
ATOM      5  N   UNL     1       1.193   7.405  20.760  0.00  0.00    +0.000 NA
ATOM      6  C   UNL     1       1.715   6.280  20.185  0.00  0.00    +0.000 A 
ENDROOT
BRANCH   6   7
ATOM      7  C   UNL     1       1.523   5.026  20.939  0.00  0.00    +0.000 C 
ATOM      8  C   UNL     1       2.498   4.127  21.153  0.00  0.00    +0.000 C 
BRANCH   8   9
ATOM      9  C   UNL     1       2.201   2.888  21.895  0.00  0.00    +0.000 C 
ATOM     10  O   UNL     1       1.120   2.607  22.376  0.00  0.00    +0.000 OA
BRANCH   9  11
ATOM     11  O   UNL     1       3.277   2.080  21.975  0.00  0.00    +0.000 OA
ATOM     12  H   UNL     1       3.110   1.144  21.764  0.00  0.00    +0.000 HD
ENDBRANCH   9  11
ENDBRANCH   8   9
ENDBRANCH   6   7
BRANCH   1  13
ATOM     13  O   UNL     1       2.844   5.117  18.424  0.00  0.00    +0.000 OA
BRANCH  13  14
ATOM     14  C   UNL     1       1.868   4.378  17.690  0.00  0.00    +0.000 C 
BRANCH  14  15
ATOM     15  C   UNL     1       2.343   2.943  17.494  0.00  0.00    +0.000 C 
BRANCH  15  16
ATOM     16  C   UNL     1       3.823   2.839  17.857  0.00  0.00    +0.000 C 
BRANCH  16  17
ATOM     17  C   UNL     1       4.726   3.169  16.673  0.00  0.00    +0.000 C 
BRANCH  17  21
ATOM     18  C   UNL     1       6.672   6.987  17.201  0.00  0.00    +0.000 A 
ATOM     19  C   UNL     1       5.780   6.788  16.146  0.00  0.00    +0.000 A 
ATOM     20  C   UNL     1       5.140   5.559  15.984  0.00  0.00    +0.000 A 
ATOM     21  C   UNL     1       5.395   4.506  16.869  0.00  0.00    +0.000 A 
ATOM     22  C   UNL     1       6.320   4.697  17.903  0.00  0.00    +0.000 A 
ATOM     23  C   UNL     1       6.955   5.932  18.068  0.00  0.00    +0.000 A 
BRANCH  18  25
ATOM     24  C   UNL     1       8.298   8.372  18.198  0.00  0.00    +0.000 C 
ATOM     25  O   UNL     1       7.231   8.234  17.266  0.00  0.00    +0.000 OA
ENDBRANCH  18  25
ENDBRANCH  17  21
ENDBRANCH  16  17
ENDBRANCH  15  16
ENDBRANCH  14  15
ENDBRANCH  13  14
ENDBRANCH   1  13
BRANCH   4  26
ATOM     26  C   UNL     1       0.704   9.825  20.700  0.00  0.00    +0.000 C 
BRANCH  26  27
ATOM     27  S   UNL     1       0.635  11.170  19.454  0.00  0.00    +0.000 S 
BRANCH  27  28
ATOM     28  C   UNL     1      -1.013  11.070  18.782  0.00  0.00    +0.000 A 
ATOM     29  C   UNL     1      -2.081  11.895  19.139  0.00  0.00    +0.000 A 
ATOM     30  C   UNL     1      -3.351  11.694  18.583  0.00  0.00    +0.000 A 
ATOM     31  C   UNL     1      -3.561  10.668  17.663  0.00  0.00    +0.000 A 
ATOM     32  C   UNL     1      -2.501   9.851  17.285  0.00  0.00    +0.000 A 
ATOM     33  C   UNL     1      -1.236  10.054  17.840  0.00  0.00    +0.000 A 
ENDBRANCH  27  28
ENDBRANCH  26  27
ENDBRANCH   4  26
TORSDOF 13
ENDMDL
