MODEL 1
REMARK VINA RESULT:      -8.6      0.000      0.000
REMARK  Name = 
REMARK  6 active torsions:
REMARK  status: ('A' for Active; 'I' for Inactive)
REMARK    1  A    between atoms: C_1  and  C_2
REMARK    2  A    between atoms: C_2  and  C_3
REMARK    3  A    between atoms: C_12  and  C_13
REMARK    4  A    between atoms: C_13  and  N_15
REMARK    5  A    between atoms: C_21  and  C_22
REMARK    6  A    between atoms: C_21  and  O_23
REMARK                            x       y       z     vdW  Elec       q    Type
REMARK                         _______ _______ _______ _____ _____    ______ ____
ROOT
ATOM      1  C   UNL     1       2.129   5.858  19.735  0.00  0.00    +0.000 A 
ATOM      2  C   UNL     1       1.204   5.357  20.684  0.00  0.00    +0.000 A 
ATOM      3  C   UNL     1       0.978   3.986  20.854  0.00  0.00    +0.000 A 
ATOM      4  C   UNL     1       1.665   3.066  20.079  0.00  0.00    +0.000 A 
ATOM      5  C   UNL     1       2.571   3.543  19.138  0.00  0.00    +0.000 A 
ATOM      6  C   UNL     1       2.814   4.932  18.937  0.00  0.00    +0.000 A 
ATOM      7  C   UNL     1       3.798   5.050  17.855  0.00  0.00    +0.000 A 
ATOM      8  C   UNL     1       4.369   6.149  17.235  0.00  0.00    +0.000 A 
ATOM      9  C   UNL     1       5.271   5.949  16.175  0.00  0.00    +0.000 A 
ATOM     10  C   UNL     1       5.614   4.658  15.726  0.00  0.00    +0.000 A 
ATOM     11  C   UNL     1       5.058   3.540  16.351  0.00  0.00    +0.000 A 
ATOM     12  C   UNL     1       4.162   3.752  17.403  0.00  0.00    +0.000 A 
ATOM     13  C   UNL     1       3.425   2.696  18.206  0.00  0.00    +0.000 C 
ATOM     14  C   UNL     1       4.365   1.764  18.962  0.00  0.00    +0.000 C 
ENDROOT
BRANCH   1  16
ATOM     15  C   UNL     1       1.444   8.083  20.720  0.00  0.00    +0.000 C 
ATOM     16  C   UNL     1       2.289   7.358  19.682  0.00  0.00    +0.000 C 
ENDBRANCH   1  16
BRANCH  10  17
ATOM     17  C   UNL     1       6.545   4.546  14.564  0.00  0.00    +0.000 C 
ATOM     18  O   UNL     1       7.412   5.409  14.430  0.00  0.00    +0.000 OA
BRANCH  17  19
ATOM     19  N   UNL     1       6.374   3.468  13.724  0.00  0.00    +0.000 NA
ATOM     20  C   UNL     1       6.753   3.604  12.491  0.00  0.00    +0.000 C 
ATOM     21  N   UNL     1       7.354   4.671  11.909  0.00  0.00    +0.000 N 
ATOM     22  N   UNL     1       6.624   2.581  11.619  0.00  0.00    +0.000 N 
ATOM     23  H   UNL     1       7.272   5.517  12.476  0.00  0.00    +0.000 HD
ATOM     24  H   UNL     1       7.115   4.854  10.945  0.00  0.00    +0.000 HD
ATOM     25  H   UNL     1       6.024   1.840  11.956  0.00  0.00    +0.000 HD
ATOM     26  H   UNL     1       6.463   2.816  10.649  0.00  0.00    +0.000 HD
ENDBRANCH  17  19
ENDBRANCH  10  17
BRANCH  13  27
ATOM     27  O   UNL     1       2.594   1.941  17.334  0.00  0.00    +0.000 OA
ATOM     28  H   UNL     1       2.706   2.328  16.447  0.00  0.00    +0.000 HD
ENDBRANCH  13  27
TORSDOF 4
ENDMDL
MODEL 2
REMARK VINA RESULT:      -8.6      0.912      1.098
REMARK  Name = 
REMARK  6 active torsions:
REMARK  status: ('A' for Active; 'I' for Inactive)
REMARK    1  A    between atoms: C_1  and  C_2
REMARK    2  A    between atoms: C_2  and  C_3
REMARK    3  A    between atoms: C_12  and  C_13
REMARK    4  A    between atoms: C_13  and  N_15
REMARK    5  A    between atoms: C_21  and  C_22
REMARK    6  A    between atoms: C_21  and  O_23
REMARK                            x       y       z     vdW  Elec       q    Type
REMARK                         _______ _______ _______ _____ _____    ______ ____
ROOT
ATOM      1  C   UNL     1       2.328   7.020  19.342  0.00  0.00    +0.000 A 
ATOM      2  C   UNL     1       1.449   6.740  20.417  0.00  0.00    +0.000 A 
ATOM      3  C   UNL     1       1.268   5.445  20.916  0.00  0.00    +0.000 A 
ATOM      4  C   UNL     1       1.955   4.381  20.355  0.00  0.00    +0.000 A 
ATOM      5  C   UNL     1       2.816   4.639  19.293  0.00  0.00    +0.000 A 
ATOM      6  C   UNL     1       3.011   5.944  18.760  0.00  0.00    +0.000 A 
ATOM      7  C   UNL     1       3.956   5.821  17.643  0.00  0.00    +0.000 A 
ATOM      8  C   UNL     1       4.474   6.753  16.758  0.00  0.00    +0.000 A 
ATOM      9  C   UNL     1       5.346   6.325  15.742  0.00  0.00    +0.000 A 
ATOM     10  C   UNL     1       5.710   4.971  15.598  0.00  0.00    +0.000 A 
ATOM     11  C   UNL     1       5.207   4.023  16.491  0.00  0.00    +0.000 A 
ATOM     12  C   UNL     1       4.341   4.461  17.497  0.00  0.00    +0.000 A 
ATOM     13  C   UNL     1       3.661   3.612  18.555  0.00  0.00    +0.000 C 
ATOM     14  C   UNL     1       4.653   2.904  19.473  0.00  0.00    +0.000 C 
ENDROOT
BRANCH   1  16
ATOM     15  C   UNL     1       1.533   8.827  17.763  0.00  0.00    +0.000 C 
ATOM     16  C   UNL     1       2.443   8.467  18.929  0.00  0.00    +0.000 C 
ENDBRANCH   1  16
BRANCH  10  17
ATOM     17  C   UNL     1       6.605   4.604  14.460  0.00  0.00    +0.000 C 
ATOM     18  O   UNL     1       7.591   5.310  14.247  0.00  0.00    +0.000 OA
BRANCH  17  19
ATOM     19  N   UNL     1       6.269   3.486  13.731  0.00  0.00    +0.000 NA
ATOM     20  C   UNL     1       6.558   3.485  12.467  0.00  0.00    +0.000 C 
ATOM     21  N   UNL     1       7.206   4.437  11.753  0.00  0.00    +0.000 N 
ATOM     22  N   UNL     1       6.265   2.414  11.699  0.00  0.00    +0.000 N 
ATOM     23  H   UNL     1       7.248   5.330  12.249  0.00  0.00    +0.000 HD
ATOM     24  H   UNL     1       6.908   4.566  10.797  0.00  0.00    +0.000 HD
ATOM     25  H   UNL     1       5.628   1.765  12.142  0.00  0.00    +0.000 HD
ATOM     26  H   UNL     1       6.049   2.586  10.727  0.00  0.00    +0.000 HD
ENDBRANCH  17  19
ENDBRANCH  10  17
BRANCH  13  27
ATOM     27  O   UNL     1       2.824   2.655  17.920  0.00  0.00    +0.000 OA
ATOM     28  H   UNL     1       2.051   2.541  18.500  0.00  0.00    +0.000 HD
ENDBRANCH  13  27
TORSDOF 4
ENDMDL
MODEL 3
REMARK VINA RESULT:      -8.5      1.055      1.368
REMARK  Name = 
REMARK  6 active torsions:
REMARK  status: ('A' for Active; 'I' for Inactive)
REMARK    1  A    between atoms: C_1  and  C_2
REMARK    2  A    between atoms: C_2  and  C_3
REMARK    3  A    between atoms: C_12  and  C_13
REMARK    4  A    between atoms: C_13  and  N_15
REMARK    5  A    between atoms: C_21  and  C_22
REMARK    6  A    between atoms: C_21  and  O_23
REMARK                            x       y       z     vdW  Elec       q    Type
REMARK                         _______ _______ _______ _____ _____    ______ ____
ROOT
ATOM      1  C   UNL     1       2.200   5.831  19.665  0.00  0.00    +0.000 A 
ATOM      2  C   UNL     1       1.251   5.380  20.616  0.00  0.00    +0.000 A 
ATOM      3  C   UNL     1       0.901   4.030  20.740  0.00  0.00    +0.000 A 
ATOM      4  C   UNL     1       1.484   3.082  19.915  0.00  0.00    +0.000 A 
ATOM      5  C   UNL     1       2.412   3.510  18.971  0.00  0.00    +0.000 A 
ATOM      6  C   UNL     1       2.779   4.877  18.818  0.00  0.00    +0.000 A 
ATOM      7  C   UNL     1       3.748   4.947  17.717  0.00  0.00    +0.000 A 
ATOM      8  C   UNL     1       4.407   6.012  17.126  0.00  0.00    +0.000 A 
ATOM      9  C   UNL     1       5.264   5.772  16.039  0.00  0.00    +0.000 A 
ATOM     10  C   UNL     1       5.476   4.473  15.533  0.00  0.00    +0.000 A 
ATOM     11  C   UNL     1       4.831   3.388  16.129  0.00  0.00    +0.000 A 
ATOM     12  C   UNL     1       3.980   3.640  17.209  0.00  0.00    +0.000 A 
ATOM     13  C   UNL     1       3.164   2.626  17.988  0.00  0.00    +0.000 C 
ATOM     14  C   UNL     1       4.028   1.581  18.686  0.00  0.00    +0.000 C 
ENDROOT
BRANCH   1  16
ATOM     15  C   UNL     1       1.865   8.044  18.491  0.00  0.00    +0.000 C 
ATOM     16  C   UNL     1       2.498   7.310  19.665  0.00  0.00    +0.000 C 
ENDBRANCH   1  16
BRANCH  10  17
ATOM     17  C   UNL     1       6.370   4.322  14.346  0.00  0.00    +0.000 C 
ATOM     18  O   UNL     1       6.051   3.507  13.480  0.00  0.00    +0.000 OA
BRANCH  17  19
ATOM     19  N   UNL     1       7.490   5.121  14.297  0.00  0.00    +0.000 NA
ATOM     20  C   UNL     1       8.005   5.360  13.131  0.00  0.00    +0.000 C 
ATOM     21  N   UNL     1       7.555   4.961  11.916  0.00  0.00    +0.000 N 
ATOM     22  N   UNL     1       9.097   6.145  13.013  0.00  0.00    +0.000 N 
ATOM     23  H   UNL     1       6.869   4.206  11.987  0.00  0.00    +0.000 HD
ATOM     24  H   UNL     1       8.256   4.753  11.220  0.00  0.00    +0.000 HD
ATOM     25  H   UNL     1       9.567   6.313  13.893  0.00  0.00    +0.000 HD
ATOM     26  H   UNL     1       9.732   5.945  12.252  0.00  0.00    +0.000 HD
ENDBRANCH  17  19
ENDBRANCH  10  17
BRANCH  13  27
ATOM     27  O   UNL     1       2.249   1.986  17.108  0.00  0.00    +0.000 OA
ATOM     28  H   UNL     1       2.592   1.085  16.966  0.00  0.00    +0.000 HD
ENDBRANCH  13  27
TORSDOF 4
ENDMDL
MODEL 4
REMARK VINA RESULT:      -7.9      8.006     11.157
REMARK  Name = 
REMARK  6 active torsions:
REMARK  status: ('A' for Active; 'I' for Inactive)
REMARK    1  A    between atoms: C_1  and  C_2
REMARK    2  A    between atoms: C_2  and  C_3
REMARK    3  A    between atoms: C_12  and  C_13
REMARK    4  A    between atoms: C_13  and  N_15
REMARK    5  A    between atoms: C_21  and  C_22
REMARK    6  A    between atoms: C_21  and  O_23
REMARK                            x       y       z     vdW  Elec       q    Type
REMARK                         _______ _______ _______ _____ _____    ______ ____
ROOT
ATOM      1  C   UNL     1       1.726   7.753  19.967  0.00  0.00    +0.000 A 
ATOM      2  C   UNL     1       2.427   7.384  18.793  0.00  0.00    +0.000 A 
ATOM      3  C   UNL     1       2.563   8.249  17.701  0.00  0.00    +0.000 A 
ATOM      4  C   UNL     1       2.000   9.514  17.742  0.00  0.00    +0.000 A 
ATOM      5  C   UNL     1       1.303   9.889  18.885  0.00  0.00    +0.000 A 
ATOM      6  C   UNL     1       1.141   9.026  20.006  0.00  0.00    +0.000 A 
ATOM      7  C   UNL     1       0.332   9.746  20.997  0.00  0.00    +0.000 A 
ATOM      8  C   UNL     1      -0.149   9.383  22.244  0.00  0.00    +0.000 A 
ATOM      9  C   UNL     1      -0.949  10.288  22.962  0.00  0.00    +0.000 A 
ATOM     10  C   UNL     1      -1.275  11.560  22.450  0.00  0.00    +0.000 A 
ATOM     11  C   UNL     1      -0.784  11.946  21.201  0.00  0.00    +0.000 A 
ATOM     12  C   UNL     1       0.011  11.037  20.496  0.00  0.00    +0.000 A 
ATOM     13  C   UNL     1       0.627  11.231  19.123  0.00  0.00    +0.000 C 
ATOM     14  C   UNL     1       1.610  12.396  19.076  0.00  0.00    +0.000 C 
ENDROOT
BRANCH   1  16
ATOM     15  C   UNL     1       1.887   5.304  20.574  0.00  0.00    +0.000 C 
ATOM     16  C   UNL     1       1.684   6.728  21.074  0.00  0.00    +0.000 C 
ENDBRANCH   1  16
BRANCH  10  17
ATOM     17  C   UNL     1      -2.168  12.435  23.265  0.00  0.00    +0.000 C 
ATOM     18  O   UNL     1      -1.761  13.556  23.571  0.00  0.00    +0.000 OA
BRANCH  17  19
ATOM     19  N   UNL     1      -3.401  11.928  23.610  0.00  0.00    +0.000 NA
ATOM     20  C   UNL     1      -4.073  12.556  24.523  0.00  0.00    +0.000 C 
ATOM     21  N   UNL     1      -3.745  13.701  25.170  0.00  0.00    +0.000 N 
ATOM     22  N   UNL     1      -5.294  12.117  24.898  0.00  0.00    +0.000 N 
ATOM     23  H   UNL     1      -2.756  13.934  25.065  0.00  0.00    +0.000 HD
ATOM     24  H   UNL     1      -4.036  13.775  26.134  0.00  0.00    +0.000 HD
ATOM     25  H   UNL     1      -5.497  11.178  24.579  0.00  0.00    +0.000 HD
ATOM     26  H   UNL     1      -5.572  12.283  25.856  0.00  0.00    +0.000 HD
ENDBRANCH  17  19
ENDBRANCH  10  17
BRANCH  13  27
ATOM     27  O   UNL     1      -0.408  11.433  18.170  0.00  0.00    +0.000 OA
ATOM     28  H   UNL     1      -1.246  11.400  18.665  0.00  0.00    +0.000 HD
ENDBRANCH  13  27
TORSDOF 4
ENDMDL
MODEL 5
REMARK VINA RESULT:      -7.8      0.902      1.002
REMARK  Name = 
REMARK  6 active torsions:
REMARK  status: ('A' for Active; 'I' for Inactive)
REMARK    1  A    between atoms: C_1  and  C_2
REMARK    2  A    between atoms: C_2  and  C_3
REMARK    3  A    between atoms: C_12  and  C_13
REMARK    4  A    between atoms: C_13  and  N_15
REMARK    5  A    between atoms: C_21  and  C_22
REMARK    6  A    between atoms: C_21  and  O_23
REMARK                            x       y       z     vdW  Elec       q    Type
REMARK                         _______ _______ _______ _____ _____    ______ ____
ROOT
ATOM      1  C   UNL     1       2.001   5.224  20.133  0.00  0.00    +0.000 A 
ATOM      2  C   UNL     1       0.925   4.556  20.769  0.00  0.00    +0.000 A 
ATOM      3  C   UNL     1       0.549   3.252  20.426  0.00  0.00    +0.000 A 
ATOM      4  C   UNL     1       1.232   2.569  19.433  0.00  0.00    +0.000 A 
ATOM      5  C   UNL     1       2.286   3.214  18.795  0.00  0.00    +0.000 A 
ATOM      6  C   UNL     1       2.683   4.543  19.117  0.00  0.00    +0.000 A 
ATOM      7  C   UNL     1       3.797   4.892  18.226  0.00  0.00    +0.000 A 
ATOM      8  C   UNL     1       4.542   6.051  18.080  0.00  0.00    +0.000 A 
ATOM      9  C   UNL     1       5.540   6.106  17.093  0.00  0.00    +0.000 A 
ATOM     10  C   UNL     1       5.808   5.013  16.245  0.00  0.00    +0.000 A 
ATOM     11  C   UNL     1       5.076   3.833  16.390  0.00  0.00    +0.000 A 
ATOM     12  C   UNL     1       4.086   3.790  17.376  0.00  0.00    +0.000 A 
ATOM     13  C   UNL     1       3.159   2.631  17.694  0.00  0.00    +0.000 C 
ATOM     14  C   UNL     1       3.908   1.381  18.144  0.00  0.00    +0.000 C 
ENDROOT
BRANCH   1  16
ATOM     15  C   UNL     1       1.906   7.701  19.635  0.00  0.00    +0.000 C 
ATOM     16  C   UNL     1       2.310   6.617  20.625  0.00  0.00    +0.000 C 
ENDBRANCH   1  16
BRANCH  10  17
ATOM     17  C   UNL     1       6.857   5.181  15.196  0.00  0.00    +0.000 C 
ATOM     18  O   UNL     1       7.798   5.939  15.432  0.00  0.00    +0.000 OA
BRANCH  17  19
ATOM     19  N   UNL     1       6.702   4.462  14.032  0.00  0.00    +0.000 NA
ATOM     20  C   UNL     1       7.415   4.817  13.009  0.00  0.00    +0.000 C 
ATOM     21  N   UNL     1       8.350   5.795  12.935  0.00  0.00    +0.000 N 
ATOM     22  N   UNL     1       7.319   4.146  11.841  0.00  0.00    +0.000 N 
ATOM     23  H   UNL     1       8.293   6.445  13.722  0.00  0.00    +0.000 HD
ATOM     24  H   UNL     1       8.419   6.290  12.058  0.00  0.00    +0.000 HD
ATOM     25  H   UNL     1       6.514   3.534  11.796  0.00  0.00    +0.000 HD
ATOM     26  H   UNL     1       7.472   4.670  10.991  0.00  0.00    +0.000 HD
ENDBRANCH  17  19
ENDBRANCH  10  17
BRANCH  13  27
ATOM     27  O   UNL     1       2.370   2.335  16.550  0.00  0.00    +0.000 OA
ATOM     28  H   UNL     1       2.929   1.792  15.966  0.00  0.00    +0.000 HD
ENDBRANCH  13  27
TORSDOF 4
ENDMDL
MODEL 6
REMARK VINA RESULT:      -7.6      5.125      7.326
REMARK  Name = 
REMARK  6 active torsions:
REMARK  status: ('A' for Active; 'I' for Inactive)
REMARK    1  A    between atoms: C_1  and  C_2
REMARK    2  A    between atoms: C_2  and  C_3
REMARK    3  A    between atoms: C_12  and  C_13
REMARK    4  A    between atoms: C_13  and  N_15
REMARK    5  A    between atoms: C_21  and  C_22
REMARK    6  A    between atoms: C_21  and  O_23
REMARK                            x       y       z     vdW  Elec       q    Type
REMARK                         _______ _______ _______ _____ _____    ______ ____
ROOT
ATOM      1  C   UNL     1       4.477   5.202  17.162  0.00  0.00    +0.000 A 
ATOM      2  C   UNL     1       4.969   3.880  17.294  0.00  0.00    +0.000 A 
ATOM      3  C   UNL     1       4.556   3.029  18.327  0.00  0.00    +0.000 A 
ATOM      4  C   UNL     1       3.640   3.472  19.267  0.00  0.00    +0.000 A 
ATOM      5  C   UNL     1       3.153   4.770  19.155  0.00  0.00    +0.000 A 
ATOM      6  C   UNL     1       3.563   5.658  18.121  0.00  0.00    +0.000 A 
ATOM      7  C   UNL     1       2.868   6.933  18.342  0.00  0.00    +0.000 A 
ATOM      8  C   UNL     1       2.911   8.142  17.668  0.00  0.00    +0.000 A 
ATOM      9  C   UNL     1       2.150   9.222  18.147  0.00  0.00    +0.000 A 
ATOM     10  C   UNL     1       1.340   9.109  19.295  0.00  0.00    +0.000 A 
ATOM     11  C   UNL     1       1.276   7.892  19.975  0.00  0.00    +0.000 A 
ATOM     12  C   UNL     1       2.037   6.825  19.489  0.00  0.00    +0.000 A 
ATOM     13  C   UNL     1       2.139   5.430  20.077  0.00  0.00    +0.000 C 
ATOM     14  C   UNL     1       0.803   4.696  20.095  0.00  0.00    +0.000 C 
ENDROOT
BRANCH   1  16
ATOM     15  C   UNL     1       5.690   5.127  14.945  0.00  0.00    +0.000 C 
ATOM     16  C   UNL     1       4.990   5.993  15.983  0.00  0.00    +0.000 C 
ENDBRANCH   1  16
BRANCH  10  17
ATOM     17  C   UNL     1       0.604  10.324  19.754  0.00  0.00    +0.000 C 
ATOM     18  O   UNL     1       0.223  10.364  20.924  0.00  0.00    +0.000 OA
BRANCH  17  19
ATOM     19  N   UNL     1       0.412  11.329  18.832  0.00  0.00    +0.000 NA
ATOM     20  C   UNL     1      -0.809  11.608  18.496  0.00  0.00    +0.000 C 
ATOM     21  N   UNL     1      -1.957  11.068  18.973  0.00  0.00    +0.000 N 
ATOM     22  N   UNL     1      -1.066  12.590  17.605  0.00  0.00    +0.000 N 
ATOM     23  H   UNL     1      -1.792  10.194  19.478  0.00  0.00    +0.000 HD
ATOM     24  H   UNL     1      -2.718  10.970  18.317  0.00  0.00    +0.000 HD
ATOM     25  H   UNL     1      -0.247  12.892  17.094  0.00  0.00    +0.000 HD
ATOM     26  H   UNL     1      -1.885  12.484  17.022  0.00  0.00    +0.000 HD
ENDBRANCH  17  19
ENDBRANCH  10  17
BRANCH  13  27
ATOM     27  O   UNL     1       2.662   5.515  21.396  0.00  0.00    +0.000 OA
ATOM     28  H   UNL     1       1.893   5.529  21.994  0.00  0.00    +0.000 HD
ENDBRANCH  13  27
TORSDOF 4
ENDMDL
MODEL 7
REMARK VINA RESULT:      -7.5      1.505      2.012
REMARK  Name = 
REMARK  6 active torsions:
REMARK  status: ('A' for Active; 'I' for Inactive)
REMARK    1  A    between atoms: C_1  and  C_2
REMARK    2  A    between atoms: C_2  and  C_3
REMARK    3  A    between atoms: C_12  and  C_13
REMARK    4  A    between atoms: C_13  and  N_15
REMARK    5  A    between atoms: C_21  and  C_22
REMARK    6  A    between atoms: C_21  and  O_23
REMARK                            x       y       z     vdW  Elec       q    Type
REMARK                         _______ _______ _______ _____ _____    ______ ____
ROOT
ATOM      1  C   UNL     1       2.243   7.761  18.996  0.00  0.00    +0.000 A 
ATOM      2  C   UNL     1       1.350   7.670  20.093  0.00  0.00    +0.000 A 
ATOM      3  C   UNL     1       1.157   6.478  20.802  0.00  0.00    +0.000 A 
ATOM      4  C   UNL     1       1.847   5.333  20.437  0.00  0.00    +0.000 A 
ATOM      5  C   UNL     1       2.722   5.405  19.359  0.00  0.00    +0.000 A 
ATOM      6  C   UNL     1       2.930   6.601  18.615  0.00  0.00    +0.000 A 
ATOM      7  C   UNL     1       3.887   6.288  17.547  0.00  0.00    +0.000 A 
ATOM      8  C   UNL     1       4.421   7.055  16.524  0.00  0.00    +0.000 A 
ATOM      9  C   UNL     1       5.303   6.459  15.607  0.00  0.00    +0.000 A 
ATOM     10  C   UNL     1       5.663   5.099  15.699  0.00  0.00    +0.000 A 
ATOM     11  C   UNL     1       5.145   4.318  16.733  0.00  0.00    +0.000 A 
ATOM     12  C   UNL     1       4.269   4.923  17.639  0.00  0.00    +0.000 A 
ATOM     13  C   UNL     1       3.572   4.266  18.817  0.00  0.00    +0.000 C 
ATOM     14  C   UNL     1       4.549   3.723  19.854  0.00  0.00    +0.000 C 
ENDROOT
BRANCH   1  16
ATOM     15  C   UNL     1       1.164  10.012  18.596  0.00  0.00    +0.000 C 
ATOM     16  C   UNL     1       2.370   9.117  18.346  0.00  0.00    +0.000 C 
ENDBRANCH   1  16
BRANCH  10  17
ATOM     17  C   UNL     1       6.571   4.543  14.652  0.00  0.00    +0.000 C 
ATOM     18  O   UNL     1       6.238   3.499  14.090  0.00  0.00    +0.000 OA
BRANCH  17  19
ATOM     19  N   UNL     1       7.720   5.250  14.376  0.00  0.00    +0.000 NA
ATOM     20  C   UNL     1       8.062   5.375  13.132  0.00  0.00    +0.000 C 
ATOM     21  N   UNL     1       7.404   4.936  12.031  0.00  0.00    +0.000 N 
ATOM     22  N   UNL     1       9.172   6.066  12.793  0.00  0.00    +0.000 N 
ATOM     23  H   UNL     1       6.690   4.241  12.259  0.00  0.00    +0.000 HD
ATOM     24  H   UNL     1       7.974   4.632  11.255  0.00  0.00    +0.000 HD
ATOM     25  H   UNL     1       9.782   6.253  13.578  0.00  0.00    +0.000 HD
ATOM     26  H   UNL     1       9.666   5.772  11.963  0.00  0.00    +0.000 HD
ENDBRANCH  17  19
ENDBRANCH  10  17
BRANCH  13  27
ATOM     27  O   UNL     1       2.739   3.217  18.342  0.00  0.00    +0.000 OA
ATOM     28  H   UNL     1       1.899   3.633  18.079  0.00  0.00    +0.000 HD
ENDBRANCH  13  27
TORSDOF 4
ENDMDL
MODEL 8
REMARK VINA RESULT:      -7.3      5.269      7.368
REMARK  Name = 
REMARK  6 active torsions:
REMARK  status: ('A' for Active; 'I' for Inactive)
REMARK    1  A    between atoms: C_1  and  C_2
REMARK    2  A    between atoms: C_2  and  C_3
REMARK    3  A    between atoms: C_12  and  C_13
REMARK    4  A    between atoms: C_13  and  N_15
REMARK    5  A    between atoms: C_21  and  C_22
REMARK    6  A    between atoms: C_21  and  O_23
REMARK                            x       y       z     vdW  Elec       q    Type
REMARK                         _______ _______ _______ _____ _____    ______ ____
ROOT
ATOM      1  C   UNL     1       4.083   4.723  17.311  0.00  0.00    +0.000 A 
ATOM      2  C   UNL     1       4.491   3.391  17.051  0.00  0.00    +0.000 A 
ATOM      3  C   UNL     1       4.088   2.316  17.852  0.00  0.00    +0.000 A 
ATOM      4  C   UNL     1       3.265   2.534  18.945  0.00  0.00    +0.000 A 
ATOM      5  C   UNL     1       2.862   3.837  19.218  0.00  0.00    +0.000 A 
ATOM      6  C   UNL     1       3.265   4.949  18.425  0.00  0.00    +0.000 A 
ATOM      7  C   UNL     1       2.674   6.150  19.029  0.00  0.00    +0.000 A 
ATOM      8  C   UNL     1       2.756   7.492  18.697  0.00  0.00    +0.000 A 
ATOM      9  C   UNL     1       2.102   8.440  19.502  0.00  0.00    +0.000 A 
ATOM     10  C   UNL     1       1.361   8.063  20.640  0.00  0.00    +0.000 A 
ATOM     11  C   UNL     1       1.257   6.713  20.979  0.00  0.00    +0.000 A 
ATOM     12  C   UNL     1       1.912   5.779  20.170  0.00  0.00    +0.000 A 
ATOM     13  C   UNL     1       1.956   4.274  20.359  0.00  0.00    +0.000 C 
ATOM     14  C   UNL     1       0.576   3.629  20.289  0.00  0.00    +0.000 C 
ENDROOT
BRANCH   1  16
ATOM     15  C   UNL     1       5.814   6.504  16.841  0.00  0.00    +0.000 C 
ATOM     16  C   UNL     1       4.573   5.775  16.346  0.00  0.00    +0.000 C 
ENDBRANCH   1  16
BRANCH  10  17
ATOM     17  C   UNL     1       0.739   9.145  21.460  0.00  0.00    +0.000 C 
ATOM     18  O   UNL     1       1.277   9.448  22.526  0.00  0.00    +0.000 OA
BRANCH  17  19
ATOM     19  N   UNL     1      -0.395   9.742  20.957  0.00  0.00    +0.000 NA
ATOM     20  C   UNL     1      -0.324  11.001  20.653  0.00  0.00    +0.000 C 
ATOM     21  N   UNL     1       0.752  11.823  20.719  0.00  0.00    +0.000 N 
ATOM     22  N   UNL     1      -1.398  11.643  20.145  0.00  0.00    +0.000 N 
ATOM     23  H   UNL     1       1.504  11.429  21.289  0.00  0.00    +0.000 HD
ATOM     24  H   UNL     1       0.572  12.784  20.968  0.00  0.00    +0.000 HD
ATOM     25  H   UNL     1      -2.261  11.125  20.247  0.00  0.00    +0.000 HD
ATOM     26  H   UNL     1      -1.494  12.627  20.358  0.00  0.00    +0.000 HD
ENDBRANCH  17  19
ENDBRANCH  10  17
BRANCH  13  27
ATOM     27  O   UNL     1       2.565   3.977  21.608  0.00  0.00    +0.000 OA
ATOM     28  H   UNL     1       1.856   3.644  22.186  0.00  0.00    +0.000 HD
ENDBRANCH  13  27
TORSDOF 4
ENDMDL
MODEL 9
REMARK VINA RESULT:      -7.3      4.190      6.986
REMARK  Name = 
REMARK  6 active torsions:
REMARK  status: ('A' for Active; 'I' for Inactive)
REMARK    1  A    between atoms: C_1  and  C_2
REMARK    2  A    between atoms: C_2  and  C_3
REMARK    3  A    between atoms: C_12  and  C_13
REMARK    4  A    between atoms: C_13  and  N_15
REMARK    5  A    between atoms: C_21  and  C_22
REMARK    6  A    between atoms: C_21  and  O_23
REMARK                            x       y       z     vdW  Elec       q    Type
REMARK                         _______ _______ _______ _____ _____    ______ ____
ROOT
ATOM      1  C   UNL     1      -0.252  12.198  19.687  0.00  0.00    +0.000 A 
ATOM      2  C   UNL     1      -1.056  12.947  20.581  0.00  0.00    +0.000 A 
ATOM      3  C   UNL     1      -1.408  12.469  21.849  0.00  0.00    +0.000 A 
ATOM      4  C   UNL     1      -0.972  11.222  22.267  0.00  0.00    +0.000 A 
ATOM      5  C   UNL     1      -0.188  10.471  21.398  0.00  0.00    +0.000 A 
ATOM      6  C   UNL     1       0.176  10.929  20.100  0.00  0.00    +0.000 A 
ATOM      7  C   UNL     1       0.971   9.867  19.471  0.00  0.00    +0.000 A 
ATOM      8  C   UNL     1       1.553   9.761  18.219  0.00  0.00    +0.000 A 
ATOM      9  C   UNL     1       2.234   8.580  17.875  0.00  0.00    +0.000 A 
ATOM     10  C   UNL     1       2.344   7.499  18.772  0.00  0.00    +0.000 A 
ATOM     11  C   UNL     1       1.775   7.597  20.044  0.00  0.00    +0.000 A 
ATOM     12  C   UNL     1       1.100   8.777  20.373  0.00  0.00    +0.000 A 
ATOM     13  C   UNL     1       0.392   9.093  21.677  0.00  0.00    +0.000 C 
ATOM     14  C   UNL     1       1.331   9.088  22.878  0.00  0.00    +0.000 C 
ENDROOT
BRANCH   1  16
ATOM     15  C   UNL     1       1.457  13.480  18.335  0.00  0.00    +0.000 C 
ATOM     16  C   UNL     1       0.070  12.852  18.366  0.00  0.00    +0.000 C 
ENDBRANCH   1  16
BRANCH  10  17
ATOM     17  C   UNL     1       3.046   6.268  18.302  0.00  0.00    +0.000 C 
ATOM     18  O   UNL     1       2.377   5.391  17.756  0.00  0.00    +0.000 OA
BRANCH  17  19
ATOM     19  N   UNL     1       4.407   6.206  18.502  0.00  0.00    +0.000 NA
ATOM     20  C   UNL     1       4.878   5.155  19.097  0.00  0.00    +0.000 C 
ATOM     21  N   UNL     1       4.206   4.057  19.520  0.00  0.00    +0.000 N 
ATOM     22  N   UNL     1       6.205   5.028  19.314  0.00  0.00    +0.000 N 
ATOM     23  H   UNL     1       3.197   4.214  19.563  0.00  0.00    +0.000 HD
ATOM     24  H   UNL     1       4.542   3.618  20.365  0.00  0.00    +0.000 HD
ATOM     25  H   UNL     1       6.717   5.890  19.181  0.00  0.00    +0.000 HD
ATOM     26  H   UNL     1       6.494   4.513  20.134  0.00  0.00    +0.000 HD
ENDBRANCH  17  19
ENDBRANCH  10  17
BRANCH  13  27
ATOM     27  O   UNL     1      -0.656   8.154  21.879  0.00  0.00    +0.000 OA
ATOM     28  H   UNL     1      -1.470   8.579  21.557  0.00  0.00    +0.000 HD
ENDBRANCH  13  27
TORSDOF 4
ENDMDL
