MODEL 1
REMARK VINA RESULT:      -7.7      0.000      0.000
REMARK  Name = 
REMARK  7 active torsions:
REMARK  status: ('A' for Active; 'I' for Inactive)
REMARK    1  A    between atoms: N_1  and  S_2
REMARK    2  A    between atoms: S_2  and  C_5
REMARK    3  A    between atoms: C_8  and  N_9
REMARK    4  A    between atoms: N_9  and  N_10
REMARK    5  A    between atoms: C_11  and  C_12
REMARK    6  A    between atoms: C_15  and  N_16
REMARK    7  A    between atoms: N_19  and  C_20
REMARK                            x       y       z     vdW  Elec       q    Type
REMARK                         _______ _______ _______ _____ _____    ______ ____
ROOT
ATOM      1  C   UNL     1       0.762   8.937  21.244  0.00  0.00    +0.000 A 
ATOM      2  C   UNL     1       0.407   9.610  20.076  0.00  0.00    +0.000 A 
ATOM      3  C   UNL     1      -0.385  10.761  20.147  0.00  0.00    +0.000 A 
ATOM      4  C   UNL     1      -0.849  11.272  21.370  0.00  0.00    +0.000 A 
ATOM      5  C   UNL     1      -0.489  10.561  22.527  0.00  0.00    +0.000 A 
ATOM      6  C   UNL     1       0.310   9.409  22.473  0.00  0.00    +0.000 A 
ENDROOT
BRANCH   4   7
ATOM      7  N   UNL     1      -1.645  12.398  21.406  0.00  0.00    +0.000 N 
ATOM      8  C   UNL     1      -2.425  12.867  20.247  0.00  0.00    +0.000 C 
ATOM      9  C   UNL     1      -3.936  12.721  20.501  0.00  0.00    +0.000 C 
ATOM     10  N   UNL     1      -4.319  13.401  21.752  0.00  0.00    +0.000 N 
ATOM     11  C   UNL     1      -3.561  12.958  22.939  0.00  0.00    +0.000 C 
ATOM     12  C   UNL     1      -2.026  13.030  22.691  0.00  0.00    +0.000 C 
BRANCH  10  13
ATOM     13  C   UNL     1      -5.198  14.463  21.781  0.00  0.00    +0.000 A 
ATOM     14  C   UNL     1      -4.912  15.632  22.508  0.00  0.00    +0.000 A 
ATOM     15  C   UNL     1      -5.823  16.692  22.587  0.00  0.00    +0.000 A 
ATOM     16  C   UNL     1      -7.037  16.602  21.924  0.00  0.00    +0.000 A 
ATOM     17  F   UNL     1      -7.916  17.607  22.007  0.00  0.00    +0.000 F 
ATOM     18  C   UNL     1      -7.348  15.477  21.178  0.00  0.00    +0.000 A 
ATOM     19  C   UNL     1      -6.433  14.421  21.111  0.00  0.00    +0.000 A 
ENDBRANCH  10  13
ENDBRANCH   4   7
BRANCH   1  21
ATOM     20  N   UNL     1       1.674   7.003  20.117  0.00  0.00    +0.000 NA
ATOM     21  C   UNL     1       1.604   7.723  21.191  0.00  0.00    +0.000 C 
BRANCH  20  22
ATOM     22  N   UNL     1       2.453   5.897  20.197  0.00  0.00    +0.000 N 
ATOM     23  H   UNL     1       2.574   5.406  21.079  0.00  0.00    +0.000 HD
BRANCH  22  27
ATOM     24  C   UNL     1       5.602   5.331  17.442  0.00  0.00    +0.000 A 
ATOM     25  C   UNL     1       4.511   6.112  17.079  0.00  0.00    +0.000 A 
ATOM     26  C   UNL     1       3.469   6.317  17.988  0.00  0.00    +0.000 A 
ATOM     27  C   UNL     1       3.515   5.753  19.278  0.00  0.00    +0.000 A 
ATOM     28  C   UNL     1       4.608   4.942  19.609  0.00  0.00    +0.000 A 
ATOM     29  C   UNL     1       5.655   4.729  18.701  0.00  0.00    +0.000 A 
BRANCH  24  30
ATOM     30  S   UNL     1       6.929   5.179  16.294  0.00  0.00    +0.000 S 
ATOM     31  O   UNL     1       7.592   6.457  16.157  0.00  0.00    +0.000 OA
ATOM     32  O   UNL     1       6.532   4.399  15.150  0.00  0.00    +0.000 OA
BRANCH  30  33
ATOM     33  N   UNL     1       7.995   4.177  17.136  0.00  0.00    +0.000 NA
ATOM     34  H   UNL     1       8.949   4.479  16.936  0.00  0.00    +0.000 HD
ATOM     35  H   UNL     1       7.827   3.201  16.889  0.00  0.00    +0.000 HD
ENDBRANCH  30  33
ENDBRANCH  24  30
ENDBRANCH  22  27
ENDBRANCH  20  22
ENDBRANCH   1  21
TORSDOF 7
ENDMDL
MODEL 2
REMARK VINA RESULT:      -7.7      1.068      1.497
REMARK  Name = 
REMARK  7 active torsions:
REMARK  status: ('A' for Active; 'I' for Inactive)
REMARK    1  A    between atoms: N_1  and  S_2
REMARK    2  A    between atoms: S_2  and  C_5
REMARK    3  A    between atoms: C_8  and  N_9
REMARK    4  A    between atoms: N_9  and  N_10
REMARK    5  A    between atoms: C_11  and  C_12
REMARK    6  A    between atoms: C_15  and  N_16
REMARK    7  A    between atoms: N_19  and  C_20
REMARK                            x       y       z     vdW  Elec       q    Type
REMARK                         _______ _______ _______ _____ _____    ______ ____
ROOT
ATOM      1  C   UNL     1       0.354   8.706  21.263  0.00  0.00    +0.000 A 
ATOM      2  C   UNL     1      -0.066   9.097  22.532  0.00  0.00    +0.000 A 
ATOM      3  C   UNL     1      -0.664  10.349  22.715  0.00  0.00    +0.000 A 
ATOM      4  C   UNL     1      -0.857  11.245  21.651  0.00  0.00    +0.000 A 
ATOM      5  C   UNL     1      -0.406  10.828  20.387  0.00  0.00    +0.000 A 
ATOM      6  C   UNL     1       0.190   9.574  20.186  0.00  0.00    +0.000 A 
ENDROOT
BRANCH   4   7
ATOM      7  N   UNL     1      -1.431  12.481  21.866  0.00  0.00    +0.000 N 
ATOM      8  C   UNL     1      -2.314  13.137  20.884  0.00  0.00    +0.000 C 
ATOM      9  C   UNL     1      -3.758  13.223  21.410  0.00  0.00    +0.000 C 
ATOM     10  N   UNL     1      -3.790  13.882  22.728  0.00  0.00    +0.000 N 
ATOM     11  C   UNL     1      -2.919  13.254  23.742  0.00  0.00    +0.000 C 
ATOM     12  C   UNL     1      -1.464  13.091  23.216  0.00  0.00    +0.000 C 
BRANCH  10  13
ATOM     13  C   UNL     1      -4.457  15.069  22.949  0.00  0.00    +0.000 A 
ATOM     14  C   UNL     1      -5.706  15.100  23.591  0.00  0.00    +0.000 A 
ATOM     15  C   UNL     1      -6.414  16.296  23.770  0.00  0.00    +0.000 A 
ATOM     16  C   UNL     1      -5.870  17.487  23.314  0.00  0.00    +0.000 A 
ATOM     17  F   UNL     1      -6.548  18.630  23.471  0.00  0.00    +0.000 F 
ATOM     18  C   UNL     1      -4.631  17.503  22.696  0.00  0.00    +0.000 A 
ATOM     19  C   UNL     1      -3.936  16.302  22.518  0.00  0.00    +0.000 A 
ENDBRANCH  10  13
ENDBRANCH   4   7
BRANCH   1  21
ATOM     20  N   UNL     1       2.099   7.272  20.402  0.00  0.00    +0.000 NA
ATOM     21  C   UNL     1       0.981   7.385  21.047  0.00  0.00    +0.000 C 
BRANCH  20  22
ATOM     22  N   UNL     1       2.562   6.008  20.239  0.00  0.00    +0.000 N 
ATOM     23  H   UNL     1       2.540   5.342  21.007  0.00  0.00    +0.000 HD
BRANCH  22  27
ATOM     24  C   UNL     1       5.540   5.180  17.364  0.00  0.00    +0.000 A 
ATOM     25  C   UNL     1       4.323   5.709  16.951  0.00  0.00    +0.000 A 
ATOM     26  C   UNL     1       3.334   5.999  17.896  0.00  0.00    +0.000 A 
ATOM     27  C   UNL     1       3.559   5.777  19.268  0.00  0.00    +0.000 A 
ATOM     28  C   UNL     1       4.781   5.212  19.657  0.00  0.00    +0.000 A 
ATOM     29  C   UNL     1       5.776   4.914  18.714  0.00  0.00    +0.000 A 
BRANCH  24  30
ATOM     30  S   UNL     1       6.784   4.917  16.145  0.00  0.00    +0.000 S 
ATOM     31  O   UNL     1       7.313   6.194  15.718  0.00  0.00    +0.000 OA
ATOM     32  O   UNL     1       6.376   3.907  15.203  0.00  0.00    +0.000 OA
BRANCH  30  33
ATOM     33  N   UNL     1       8.001   4.179  17.053  0.00  0.00    +0.000 NA
ATOM     34  H   UNL     1       8.323   3.352  16.551  0.00  0.00    +0.000 HD
ATOM     35  H   UNL     1       7.657   3.967  17.991  0.00  0.00    +0.000 HD
ENDBRANCH  30  33
ENDBRANCH  24  30
ENDBRANCH  22  27
ENDBRANCH  20  22
ENDBRANCH   1  21
TORSDOF 7
ENDMDL
MODEL 3
REMARK VINA RESULT:      -7.6      1.215      1.688
REMARK  Name = 
REMARK  7 active torsions:
REMARK  status: ('A' for Active; 'I' for Inactive)
REMARK    1  A    between atoms: N_1  and  S_2
REMARK    2  A    between atoms: S_2  and  C_5
REMARK    3  A    between atoms: C_8  and  N_9
REMARK    4  A    between atoms: N_9  and  N_10
REMARK    5  A    between atoms: C_11  and  C_12
REMARK    6  A    between atoms: C_15  and  N_16
REMARK    7  A    between atoms: N_19  and  C_20
REMARK                            x       y       z     vdW  Elec       q    Type
REMARK                         _______ _______ _______ _____ _____    ______ ____
ROOT
ATOM      1  C   UNL     1       0.853   8.798  21.436  0.00  0.00    +0.000 A 
ATOM      2  C   UNL     1       0.799   9.635  20.323  0.00  0.00    +0.000 A 
ATOM      3  C   UNL     1       0.115  10.854  20.399  0.00  0.00    +0.000 A 
ATOM      4  C   UNL     1      -0.534  11.272  21.572  0.00  0.00    +0.000 A 
ATOM      5  C   UNL     1      -0.476  10.398  22.670  0.00  0.00    +0.000 A 
ATOM      6  C   UNL     1       0.211   9.176  22.612  0.00  0.00    +0.000 A 
ENDROOT
BRANCH   4   7
ATOM      7  N   UNL     1      -1.217  12.470  21.610  0.00  0.00    +0.000 N 
ATOM      8  C   UNL     1      -2.420  12.734  20.799  0.00  0.00    +0.000 C 
ATOM      9  C   UNL     1      -3.668  12.869  21.690  0.00  0.00    +0.000 C 
ATOM     10  N   UNL     1      -3.454  13.889  22.731  0.00  0.00    +0.000 N 
ATOM     11  C   UNL     1      -2.258  13.661  23.567  0.00  0.00    +0.000 C 
ATOM     12  C   UNL     1      -0.987  13.454  22.694  0.00  0.00    +0.000 C 
BRANCH  10  13
ATOM     13  C   UNL     1      -4.215  15.036  22.816  0.00  0.00    +0.000 A 
ATOM     14  C   UNL     1      -4.507  15.808  21.677  0.00  0.00    +0.000 A 
ATOM     15  C   UNL     1      -5.233  17.002  21.763  0.00  0.00    +0.000 A 
ATOM     16  C   UNL     1      -5.691  17.437  22.997  0.00  0.00    +0.000 A 
ATOM     17  F   UNL     1      -6.375  18.585  23.086  0.00  0.00    +0.000 F 
ATOM     18  C   UNL     1      -5.445  16.695  24.140  0.00  0.00    +0.000 A 
ATOM     19  C   UNL     1      -4.714  15.506  24.044  0.00  0.00    +0.000 A 
ENDBRANCH  10  13
ENDBRANCH   4   7
BRANCH   1  21
ATOM     20  N   UNL     1       1.779   6.905  20.251  0.00  0.00    +0.000 NA
ATOM     21  C   UNL     1       1.576   7.510  21.379  0.00  0.00    +0.000 C 
BRANCH  20  22
ATOM     22  N   UNL     1       2.426   5.717  20.327  0.00  0.00    +0.000 N 
ATOM     23  H   UNL     1       2.475   5.204  21.203  0.00  0.00    +0.000 HD
BRANCH  22  27
ATOM     24  C   UNL     1       5.641   5.082  17.665  0.00  0.00    +0.000 A 
ATOM     25  C   UNL     1       5.399   4.157  18.674  0.00  0.00    +0.000 A 
ATOM     26  C   UNL     1       4.329   4.351  19.553  0.00  0.00    +0.000 A 
ATOM     27  C   UNL     1       3.480   5.466  19.422  0.00  0.00    +0.000 A 
ATOM     28  C   UNL     1       3.764   6.402  18.419  0.00  0.00    +0.000 A 
ATOM     29  C   UNL     1       4.837   6.217  17.536  0.00  0.00    +0.000 A 
BRANCH  24  30
ATOM     30  S   UNL     1       6.945   4.746  16.529  0.00  0.00    +0.000 S 
ATOM     31  O   UNL     1       6.394   4.151  15.332  0.00  0.00    +0.000 OA
ATOM     32  O   UNL     1       8.084   4.182  17.207  0.00  0.00    +0.000 OA
BRANCH  30  33
ATOM     33  N   UNL     1       7.437   6.303  16.103  0.00  0.00    +0.000 NA
ATOM     34  H   UNL     1       6.640   6.795  15.699  0.00  0.00    +0.000 HD
ATOM     35  H   UNL     1       8.238   6.256  15.472  0.00  0.00    +0.000 HD
ENDBRANCH  30  33
ENDBRANCH  24  30
ENDBRANCH  22  27
ENDBRANCH  20  22
ENDBRANCH   1  21
TORSDOF 7
ENDMDL
MODEL 4
REMARK VINA RESULT:      -7.5      1.268      1.772
REMARK  Name = 
REMARK  7 active torsions:
REMARK  status: ('A' for Active; 'I' for Inactive)
REMARK    1  A    between atoms: N_1  and  S_2
REMARK    2  A    between atoms: S_2  and  C_5
REMARK    3  A    between atoms: C_8  and  N_9
REMARK    4  A    between atoms: N_9  and  N_10
REMARK    5  A    between atoms: C_11  and  C_12
REMARK    6  A    between atoms: C_15  and  N_16
REMARK    7  A    between atoms: N_19  and  C_20
REMARK                            x       y       z     vdW  Elec       q    Type
REMARK                         _______ _______ _______ _____ _____    ______ ____
ROOT
ATOM      1  C   UNL     1       1.455   8.173  20.501  0.00  0.00    +0.000 A 
ATOM      2  C   UNL     1       1.197   9.115  19.507  0.00  0.00    +0.000 A 
ATOM      3  C   UNL     1       0.525  10.301  19.828  0.00  0.00    +0.000 A 
ATOM      4  C   UNL     1       0.089  10.581  21.132  0.00  0.00    +0.000 A 
ATOM      5  C   UNL     1       0.349   9.603  22.107  0.00  0.00    +0.000 A 
ATOM      6  C   UNL     1       1.027   8.413  21.804  0.00  0.00    +0.000 A 
ENDROOT
BRANCH   4   7
ATOM      7  N   UNL     1      -0.588  11.750  21.413  0.00  0.00    +0.000 N 
ATOM      8  C   UNL     1      -1.223  12.579  20.373  0.00  0.00    +0.000 C 
ATOM      9  C   UNL     1      -2.756  12.555  20.506  0.00  0.00    +0.000 C 
ATOM     10  N   UNL     1      -3.164  12.946  21.867  0.00  0.00    +0.000 N 
ATOM     11  C   UNL     1      -2.551  12.138  22.940  0.00  0.00    +0.000 C 
ATOM     12  C   UNL     1      -1.002  12.087  22.795  0.00  0.00    +0.000 C 
BRANCH  10  13
ATOM     13  C   UNL     1      -3.929  14.066  22.120  0.00  0.00    +0.000 A 
ATOM     14  C   UNL     1      -4.472  14.834  21.076  0.00  0.00    +0.000 A 
ATOM     15  C   UNL     1      -5.203  16.003  21.324  0.00  0.00    +0.000 A 
ATOM     16  C   UNL     1      -5.414  16.413  22.631  0.00  0.00    +0.000 A 
ATOM     17  F   UNL     1      -6.102  17.536  22.873  0.00  0.00    +0.000 F 
ATOM     18  C   UNL     1      -4.916  15.672  23.689  0.00  0.00    +0.000 A 
ATOM     19  C   UNL     1      -4.182  14.510  23.430  0.00  0.00    +0.000 A 
ENDBRANCH  10  13
ENDBRANCH   4   7
BRANCH   1  21
ATOM     20  N   UNL     1       1.657   5.764  20.476  0.00  0.00    +0.000 NA
ATOM     21  C   UNL     1       2.170   6.918  20.186  0.00  0.00    +0.000 C 
BRANCH  20  22
ATOM     22  N   UNL     1       2.417   4.685  20.168  0.00  0.00    +0.000 N 
ATOM     23  H   UNL     1       2.529   3.920  20.828  0.00  0.00    +0.000 HD
BRANCH  22  27
ATOM     24  C   UNL     1       5.542   5.306  17.399  0.00  0.00    +0.000 A 
ATOM     25  C   UNL     1       5.853   5.015  18.723  0.00  0.00    +0.000 A 
ATOM     26  C   UNL     1       4.825   4.795  19.645  0.00  0.00    +0.000 A 
ATOM     27  C   UNL     1       3.475   4.849  19.249  0.00  0.00    +0.000 A 
ATOM     28  C   UNL     1       3.187   5.177  17.917  0.00  0.00    +0.000 A 
ATOM     29  C   UNL     1       4.212   5.403  16.988  0.00  0.00    +0.000 A 
BRANCH  24  30
ATOM     30  S   UNL     1       6.872   5.486  16.258  0.00  0.00    +0.000 S 
ATOM     31  O   UNL     1       6.338   5.705  14.931  0.00  0.00    +0.000 OA
ATOM     32  O   UNL     1       7.904   4.513  16.513  0.00  0.00    +0.000 OA
BRANCH  30  33
ATOM     33  N   UNL     1       7.546   6.953  16.747  0.00  0.00    +0.000 NA
ATOM     34  H   UNL     1       7.647   6.941  17.762  0.00  0.00    +0.000 HD
ATOM     35  H   UNL     1       6.973   7.730  16.413  0.00  0.00    +0.000 HD
ENDBRANCH  30  33
ENDBRANCH  24  30
ENDBRANCH  22  27
ENDBRANCH  20  22
ENDBRANCH   1  21
TORSDOF 7
ENDMDL
MODEL 5
REMARK VINA RESULT:      -7.5      1.087      1.114
REMARK  Name = 
REMARK  7 active torsions:
REMARK  status: ('A' for Active; 'I' for Inactive)
REMARK    1  A    between atoms: N_1  and  S_2
REMARK    2  A    between atoms: S_2  and  C_5
REMARK    3  A    between atoms: C_8  and  N_9
REMARK    4  A    between atoms: N_9  and  N_10
REMARK    5  A    between atoms: C_11  and  C_12
REMARK    6  A    between atoms: C_15  and  N_16
REMARK    7  A    between atoms: N_19  and  C_20
REMARK                            x       y       z     vdW  Elec       q    Type
REMARK                         _______ _______ _______ _____ _____    ______ ____
ROOT
ATOM      1  C   UNL     1       0.641   8.701  21.352  0.00  0.00    +0.000 A 
ATOM      2  C   UNL     1       0.314   9.468  20.235  0.00  0.00    +0.000 A 
ATOM      3  C   UNL     1      -0.390  10.667  20.394  0.00  0.00    +0.000 A 
ATOM      4  C   UNL     1      -0.791  11.134  21.655  0.00  0.00    +0.000 A 
ATOM      5  C   UNL     1      -0.462  10.330  22.759  0.00  0.00    +0.000 A 
ATOM      6  C   UNL     1       0.250   9.129  22.618  0.00  0.00    +0.000 A 
ENDROOT
BRANCH   4   7
ATOM      7  N   UNL     1      -1.502  12.310  21.778  0.00  0.00    +0.000 N 
ATOM      8  C   UNL     1      -2.469  12.773  20.765  0.00  0.00    +0.000 C 
ATOM      9  C   UNL     1      -3.906  12.738  21.315  0.00  0.00    +0.000 C 
ATOM     10  N   UNL     1      -3.997  13.500  22.574  0.00  0.00    +0.000 N 
ATOM     11  C   UNL     1      -3.045  13.067  23.616  0.00  0.00    +0.000 C 
ATOM     12  C   UNL     1      -1.588  13.027  23.071  0.00  0.00    +0.000 C 
BRANCH  10  13
ATOM     13  C   UNL     1      -4.794  14.618  22.708  0.00  0.00    +0.000 A 
ATOM     14  C   UNL     1      -4.516  15.805  22.008  0.00  0.00    +0.000 A 
ATOM     15  C   UNL     1      -5.288  16.961  22.181  0.00  0.00    +0.000 A 
ATOM     16  C   UNL     1      -6.363  16.940  23.056  0.00  0.00    +0.000 A 
ATOM     17  F   UNL     1      -7.097  18.046  23.234  0.00  0.00    +0.000 F 
ATOM     18  C   UNL     1      -6.684  15.785  23.748  0.00  0.00    +0.000 A 
ATOM     19  C   UNL     1      -5.903  14.638  23.572  0.00  0.00    +0.000 A 
ENDBRANCH  10  13
ENDBRANCH   4   7
BRANCH   1  21
ATOM     20  N   UNL     1       2.048   7.167  20.124  0.00  0.00    +0.000 NA
ATOM     21  C   UNL     1       1.391   7.436  21.207  0.00  0.00    +0.000 C 
BRANCH  20  22
ATOM     22  N   UNL     1       2.671   5.963  20.094  0.00  0.00    +0.000 N 
ATOM     23  H   UNL     1       2.871   5.457  20.953  0.00  0.00    +0.000 HD
BRANCH  22  27
ATOM     24  C   UNL     1       5.137   5.064  16.787  0.00  0.00    +0.000 A 
ATOM     25  C   UNL     1       5.006   6.386  17.200  0.00  0.00    +0.000 A 
ATOM     26  C   UNL     1       4.202   6.693  18.302  0.00  0.00    +0.000 A 
ATOM     27  C   UNL     1       3.532   5.678  19.013  0.00  0.00    +0.000 A 
ATOM     28  C   UNL     1       3.653   4.359  18.557  0.00  0.00    +0.000 A 
ATOM     29  C   UNL     1       4.454   4.043  17.450  0.00  0.00    +0.000 A 
BRANCH  24  30
ATOM     30  S   UNL     1       6.232   4.720  15.451  0.00  0.00    +0.000 S 
ATOM     31  O   UNL     1       6.288   5.867  14.571  0.00  0.00    +0.000 OA
ATOM     32  O   UNL     1       6.028   3.385  14.950  0.00  0.00    +0.000 OA
BRANCH  30  33
ATOM     33  N   UNL     1       7.722   4.651  16.239  0.00  0.00    +0.000 NA
ATOM     34  H   UNL     1       7.558   4.447  17.224  0.00  0.00    +0.000 HD
ATOM     35  H   UNL     1       8.235   5.522  16.093  0.00  0.00    +0.000 HD
ENDBRANCH  30  33
ENDBRANCH  24  30
ENDBRANCH  22  27
ENDBRANCH  20  22
ENDBRANCH   1  21
TORSDOF 7
ENDMDL
MODEL 6
REMARK VINA RESULT:      -7.4      1.285      1.677
REMARK  Name = 
REMARK  7 active torsions:
REMARK  status: ('A' for Active; 'I' for Inactive)
REMARK    1  A    between atoms: N_1  and  S_2
REMARK    2  A    between atoms: S_2  and  C_5
REMARK    3  A    between atoms: C_8  and  N_9
REMARK    4  A    between atoms: N_9  and  N_10
REMARK    5  A    between atoms: C_11  and  C_12
REMARK    6  A    between atoms: C_15  and  N_16
REMARK    7  A    between atoms: N_19  and  C_20
REMARK                            x       y       z     vdW  Elec       q    Type
REMARK                         _______ _______ _______ _____ _____    ______ ____
ROOT
ATOM      1  C   UNL     1       1.258   8.329  20.586  0.00  0.00    +0.000 A 
ATOM      2  C   UNL     1       0.729   8.487  21.865  0.00  0.00    +0.000 A 
ATOM      3  C   UNL     1       0.027   9.654  22.190  0.00  0.00    +0.000 A 
ATOM      4  C   UNL     1      -0.164  10.692  21.264  0.00  0.00    +0.000 A 
ATOM      5  C   UNL     1       0.398  10.509  19.989  0.00  0.00    +0.000 A 
ATOM      6  C   UNL     1       1.098   9.342  19.645  0.00  0.00    +0.000 A 
ENDROOT
BRANCH   4   7
ATOM      7  N   UNL     1      -0.842  11.839  21.620  0.00  0.00    +0.000 N 
ATOM      8  C   UNL     1      -1.504  12.717  20.639  0.00  0.00    +0.000 C 
ATOM      9  C   UNL     1      -3.033  12.676  20.803  0.00  0.00    +0.000 C 
ATOM     10  N   UNL     1      -3.415  12.992  22.191  0.00  0.00    +0.000 N 
ATOM     11  C   UNL     1      -2.773  12.133  23.207  0.00  0.00    +0.000 C 
ATOM     12  C   UNL     1      -1.228  12.100  23.027  0.00  0.00    +0.000 C 
BRANCH  10  13
ATOM     13  C   UNL     1      -4.181  14.091  22.519  0.00  0.00    +0.000 A 
ATOM     14  C   UNL     1      -3.643  15.389  22.507  0.00  0.00    +0.000 A 
ATOM     15  C   UNL     1      -4.399  16.504  22.891  0.00  0.00    +0.000 A 
ATOM     16  C   UNL     1      -5.717  16.333  23.285  0.00  0.00    +0.000 A 
ATOM     17  F   UNL     1      -6.441  17.393  23.665  0.00  0.00    +0.000 F 
ATOM     18  C   UNL     1      -6.292  15.073  23.289  0.00  0.00    +0.000 A 
ATOM     19  C   UNL     1      -5.526  13.966  22.908  0.00  0.00    +0.000 A 
ENDBRANCH  10  13
ENDBRANCH   4   7
BRANCH   1  21
ATOM     20  N   UNL     1       1.502   5.927  20.457  0.00  0.00    +0.000 NA
ATOM     21  C   UNL     1       1.996   7.101  20.220  0.00  0.00    +0.000 C 
BRANCH  20  22
ATOM     22  N   UNL     1       2.282   4.876  20.105  0.00  0.00    +0.000 N 
ATOM     23  H   UNL     1       2.362   4.061  20.708  0.00  0.00    +0.000 HD
BRANCH  22  27
ATOM     24  C   UNL     1       5.617   5.444  17.580  0.00  0.00    +0.000 A 
ATOM     25  C   UNL     1       4.342   5.714  17.096  0.00  0.00    +0.000 A 
ATOM     26  C   UNL     1       3.232   5.542  17.928  0.00  0.00    +0.000 A 
ATOM     27  C   UNL     1       3.387   5.112  19.260  0.00  0.00    +0.000 A 
ATOM     28  C   UNL     1       4.678   4.813  19.715  0.00  0.00    +0.000 A 
ATOM     29  C   UNL     1       5.796   4.980  18.885  0.00  0.00    +0.000 A 
BRANCH  24  30
ATOM     30  S   UNL     1       6.989   5.763  16.522  0.00  0.00    +0.000 S 
ATOM     31  O   UNL     1       7.804   4.572  16.424  0.00  0.00    +0.000 OA
ATOM     32  O   UNL     1       7.559   7.057  16.797  0.00  0.00    +0.000 OA
BRANCH  30  33
ATOM     33  N   UNL     1       6.231   5.945  15.026  0.00  0.00    +0.000 NA
ATOM     34  H   UNL     1       5.876   6.899  14.956  0.00  0.00    +0.000 HD
ATOM     35  H   UNL     1       5.501   5.240  14.916  0.00  0.00    +0.000 HD
ENDBRANCH  30  33
ENDBRANCH  24  30
ENDBRANCH  22  27
ENDBRANCH  20  22
ENDBRANCH   1  21
TORSDOF 7
ENDMDL
MODEL 7
REMARK VINA RESULT:      -7.4      0.810      1.170
REMARK  Name = 
REMARK  7 active torsions:
REMARK  status: ('A' for Active; 'I' for Inactive)
REMARK    1  A    between atoms: N_1  and  S_2
REMARK    2  A    between atoms: S_2  and  C_5
REMARK    3  A    between atoms: C_8  and  N_9
REMARK    4  A    between atoms: N_9  and  N_10
REMARK    5  A    between atoms: C_11  and  C_12
REMARK    6  A    between atoms: C_15  and  N_16
REMARK    7  A    between atoms: N_19  and  C_20
REMARK                            x       y       z     vdW  Elec       q    Type
REMARK                         _______ _______ _______ _____ _____    ______ ____
ROOT
ATOM      1  C   UNL     1       1.021   8.870  21.316  0.00  0.00    +0.000 A 
ATOM      2  C   UNL     1       0.457   9.217  22.542  0.00  0.00    +0.000 A 
ATOM      3  C   UNL     1      -0.377  10.338  22.635  0.00  0.00    +0.000 A 
ATOM      4  C   UNL     1      -0.669  11.143  21.523  0.00  0.00    +0.000 A 
ATOM      5  C   UNL     1      -0.071  10.777  20.305  0.00  0.00    +0.000 A 
ATOM      6  C   UNL     1       0.762   9.653  20.194  0.00  0.00    +0.000 A 
ENDROOT
BRANCH   4   7
ATOM      7  N   UNL     1      -1.478  12.254  21.650  0.00  0.00    +0.000 N 
ATOM      8  C   UNL     1      -2.294  12.782  20.542  0.00  0.00    +0.000 C 
ATOM      9  C   UNL     1      -3.796  12.600  20.825  0.00  0.00    +0.000 C 
ATOM     10  N   UNL     1      -4.154  13.196  22.125  0.00  0.00    +0.000 N 
ATOM     11  C   UNL     1      -3.359  12.691  23.262  0.00  0.00    +0.000 C 
ATOM     12  C   UNL     1      -1.833  12.800  22.980  0.00  0.00    +0.000 C 
BRANCH  10  13
ATOM     13  C   UNL     1      -5.045  14.242  22.242  0.00  0.00    +0.000 A 
ATOM     14  C   UNL     1      -5.361  14.799  23.493  0.00  0.00    +0.000 A 
ATOM     15  C   UNL     1      -6.305  15.825  23.625  0.00  0.00    +0.000 A 
ATOM     16  C   UNL     1      -6.942  16.318  22.498  0.00  0.00    +0.000 A 
ATOM     17  F   UNL     1      -7.854  17.290  22.620  0.00  0.00    +0.000 F 
ATOM     18  C   UNL     1      -6.643  15.813  21.244  0.00  0.00    +0.000 A 
ATOM     19  C   UNL     1      -5.702  14.784  21.123  0.00  0.00    +0.000 A 
ENDBRANCH  10  13
ENDBRANCH   4   7
BRANCH   1  21
ATOM     20  N   UNL     1       1.471   6.589  20.654  0.00  0.00    +0.000 NA
ATOM     21  C   UNL     1       1.898   7.687  21.195  0.00  0.00    +0.000 C 
BRANCH  20  22
ATOM     22  N   UNL     1       2.354   5.562  20.627  0.00  0.00    +0.000 N 
ATOM     23  H   UNL     1       2.645   5.101  21.485  0.00  0.00    +0.000 HD
BRANCH  22  27
ATOM     24  C   UNL     1       5.109   5.240  17.444  0.00  0.00    +0.000 A 
ATOM     25  C   UNL     1       3.935   5.960  17.258  0.00  0.00    +0.000 A 
ATOM     26  C   UNL     1       3.022   6.084  18.310  0.00  0.00    +0.000 A 
ATOM     27  C   UNL     1       3.281   5.500  19.565  0.00  0.00    +0.000 A 
ATOM     28  C   UNL     1       4.455   4.750  19.717  0.00  0.00    +0.000 A 
ATOM     29  C   UNL     1       5.374   4.618  18.666  0.00  0.00    +0.000 A 
BRANCH  24  30
ATOM     30  S   UNL     1       6.268   5.189  16.118  0.00  0.00    +0.000 S 
ATOM     31  O   UNL     1       7.604   5.367  16.644  0.00  0.00    +0.000 OA
ATOM     32  O   UNL     1       5.787   5.940  14.987  0.00  0.00    +0.000 OA
BRANCH  30  33
ATOM     33  N   UNL     1       6.159   3.578  15.631  0.00  0.00    +0.000 NA
ATOM     34  H   UNL     1       6.158   3.547  14.611  0.00  0.00    +0.000 HD
ATOM     35  H   UNL     1       5.332   3.143  16.043  0.00  0.00    +0.000 HD
ENDBRANCH  30  33
ENDBRANCH  24  30
ENDBRANCH  22  27
ENDBRANCH  20  22
ENDBRANCH   1  21
TORSDOF 7
ENDMDL
MODEL 8
REMARK VINA RESULT:      -7.4      0.947      1.253
REMARK  Name = 
REMARK  7 active torsions:
REMARK  status: ('A' for Active; 'I' for Inactive)
REMARK    1  A    between atoms: N_1  and  S_2
REMARK    2  A    between atoms: S_2  and  C_5
REMARK    3  A    between atoms: C_8  and  N_9
REMARK    4  A    between atoms: N_9  and  N_10
REMARK    5  A    between atoms: C_11  and  C_12
REMARK    6  A    between atoms: C_15  and  N_16
REMARK    7  A    between atoms: N_19  and  C_20
REMARK                            x       y       z     vdW  Elec       q    Type
REMARK                         _______ _______ _______ _____ _____    ______ ____
ROOT
ATOM      1  C   UNL     1       0.754   8.794  21.400  0.00  0.00    +0.000 A 
ATOM      2  C   UNL     1       0.329   9.367  20.203  0.00  0.00    +0.000 A 
ATOM      3  C   UNL     1      -0.460  10.523  20.224  0.00  0.00    +0.000 A 
ATOM      4  C   UNL     1      -0.852  11.136  21.425  0.00  0.00    +0.000 A 
ATOM      5  C   UNL     1      -0.422  10.523  22.614  0.00  0.00    +0.000 A 
ATOM      6  C   UNL     1       0.375   9.369  22.611  0.00  0.00    +0.000 A 
ENDROOT
BRANCH   4   7
ATOM      7  N   UNL     1      -1.647  12.263  21.414  0.00  0.00    +0.000 N 
ATOM      8  C   UNL     1      -2.186  12.853  20.175  0.00  0.00    +0.000 C 
ATOM      9  C   UNL     1      -3.716  12.702  20.111  0.00  0.00    +0.000 C 
ATOM     10  N   UNL     1      -4.343  13.261  21.322  0.00  0.00    +0.000 N 
ATOM     11  C   UNL     1      -3.832  12.696  22.586  0.00  0.00    +0.000 C 
ATOM     12  C   UNL     1      -2.279  12.772  22.654  0.00  0.00    +0.000 C 
BRANCH  10  13
ATOM     13  C   UNL     1      -5.217  14.327  21.281  0.00  0.00    +0.000 A 
ATOM     14  C   UNL     1      -6.520  14.227  21.799  0.00  0.00    +0.000 A 
ATOM     15  C   UNL     1      -7.432  15.287  21.711  0.00  0.00    +0.000 A 
ATOM     16  C   UNL     1      -7.044  16.475  21.111  0.00  0.00    +0.000 A 
ATOM     17  F   UNL     1      -7.915  17.486  21.014  0.00  0.00    +0.000 F 
ATOM     18  C   UNL     1      -5.762  16.622  20.608  0.00  0.00    +0.000 A 
ATOM     19  C   UNL     1      -4.862  15.556  20.696  0.00  0.00    +0.000 A 
ENDBRANCH  10  13
ENDBRANCH   4   7
BRANCH   1  21
ATOM     20  N   UNL     1       1.731   6.858  20.332  0.00  0.00    +0.000 NA
ATOM     21  C   UNL     1       1.594   7.578  21.400  0.00  0.00    +0.000 C 
BRANCH  20  22
ATOM     22  N   UNL     1       2.501   5.750  20.460  0.00  0.00    +0.000 N 
ATOM     23  H   UNL     1       2.703   5.359  21.377  0.00  0.00    +0.000 HD
BRANCH  22  27
ATOM     24  C   UNL     1       5.296   4.831  17.433  0.00  0.00    +0.000 A 
ATOM     25  C   UNL     1       4.624   6.048  17.393  0.00  0.00    +0.000 A 
ATOM     26  C   UNL     1       3.706   6.367  18.398  0.00  0.00    +0.000 A 
ATOM     27  C   UNL     1       3.461   5.479  19.463  0.00  0.00    +0.000 A 
ATOM     28  C   UNL     1       4.125   4.245  19.463  0.00  0.00    +0.000 A 
ATOM     29  C   UNL     1       5.045   3.916  18.457  0.00  0.00    +0.000 A 
BRANCH  24  30
ATOM     30  S   UNL     1       6.509   4.515  16.195  0.00  0.00    +0.000 S 
ATOM     31  O   UNL     1       6.033   3.469  15.316  0.00  0.00    +0.000 OA
ATOM     32  O   UNL     1       7.831   4.489  16.765  0.00  0.00    +0.000 OA
BRANCH  30  33
ATOM     33  N   UNL     1       6.464   5.945  15.300  0.00  0.00    +0.000 NA
ATOM     34  H   UNL     1       6.993   5.805  14.440  0.00  0.00    +0.000 HD
ATOM     35  H   UNL     1       6.817   6.720  15.863  0.00  0.00    +0.000 HD
ENDBRANCH  30  33
ENDBRANCH  24  30
ENDBRANCH  22  27
ENDBRANCH  20  22
ENDBRANCH   1  21
TORSDOF 7
ENDMDL
MODEL 9
REMARK VINA RESULT:      -7.4      1.254      1.731
REMARK  Name = 
REMARK  7 active torsions:
REMARK  status: ('A' for Active; 'I' for Inactive)
REMARK    1  A    between atoms: N_1  and  S_2
REMARK    2  A    between atoms: S_2  and  C_5
REMARK    3  A    between atoms: C_8  and  N_9
REMARK    4  A    between atoms: N_9  and  N_10
REMARK    5  A    between atoms: C_11  and  C_12
REMARK    6  A    between atoms: C_15  and  N_16
REMARK    7  A    between atoms: N_19  and  C_20
REMARK                            x       y       z     vdW  Elec       q    Type
REMARK                         _______ _______ _______ _____ _____    ______ ____
ROOT
ATOM      1  C   UNL     1       1.445   8.256  20.111  0.00  0.00    +0.000 A 
ATOM      2  C   UNL     1       1.442   9.136  19.030  0.00  0.00    +0.000 A 
ATOM      3  C   UNL     1       0.684  10.312  19.090  0.00  0.00    +0.000 A 
ATOM      4  C   UNL     1      -0.089  10.644  20.213  0.00  0.00    +0.000 A 
ATOM      5  C   UNL     1      -0.078   9.728  21.279  0.00  0.00    +0.000 A 
ATOM      6  C   UNL     1       0.681   8.548  21.238  0.00  0.00    +0.000 A 
ENDROOT
BRANCH   4   7
ATOM      7  N   UNL     1      -0.841  11.800  20.234  0.00  0.00    +0.000 N 
ATOM      8  C   UNL     1      -1.694  12.224  19.108  0.00  0.00    +0.000 C 
ATOM      9  C   UNL     1      -3.184  12.154  19.486  0.00  0.00    +0.000 C 
ATOM     10  N   UNL     1      -3.443  12.927  20.714  0.00  0.00    +0.000 N 
ATOM     11  C   UNL     1      -2.610  12.533  21.867  0.00  0.00    +0.000 C 
ATOM     12  C   UNL     1      -1.098  12.529  21.498  0.00  0.00    +0.000 C 
BRANCH  10  13
ATOM     13  C   UNL     1      -4.280  14.024  20.738  0.00  0.00    +0.000 A 
ATOM     14  C   UNL     1      -5.581  13.964  20.209  0.00  0.00    +0.000 A 
ATOM     15  C   UNL     1      -6.417  15.088  20.180  0.00  0.00    +0.000 A 
ATOM     16  C   UNL     1      -5.963  16.292  20.694  0.00  0.00    +0.000 A 
ATOM     17  F   UNL     1      -6.753  17.371  20.658  0.00  0.00    +0.000 F 
ATOM     18  C   UNL     1      -4.696  16.387  21.245  0.00  0.00    +0.000 A 
ATOM     19  C   UNL     1      -3.867  15.260  21.264  0.00  0.00    +0.000 A 
ENDBRANCH  10  13
ENDBRANCH   4   7
BRANCH   1  21
ATOM     20  N   UNL     1       1.737   5.880  20.442  0.00  0.00    +0.000 NA
ATOM     21  C   UNL     1       2.244   7.013  20.072  0.00  0.00    +0.000 C 
BRANCH  20  22
ATOM     22  N   UNL     1       2.573   4.814  20.392  0.00  0.00    +0.000 N 
ATOM     23  H   UNL     1       2.808   4.295  21.235  0.00  0.00    +0.000 HD
BRANCH  22  27
ATOM     24  C   UNL     1       5.381   4.750  17.241  0.00  0.00    +0.000 A 
ATOM     25  C   UNL     1       5.739   5.313  18.461  0.00  0.00    +0.000 A 
ATOM     26  C   UNL     1       4.821   5.328  19.515  0.00  0.00    +0.000 A 
ATOM     27  C   UNL     1       3.539   4.765  19.365  0.00  0.00    +0.000 A 
ATOM     28  C   UNL     1       3.190   4.234  18.116  0.00  0.00    +0.000 A 
ATOM     29  C   UNL     1       4.104   4.219  17.053  0.00  0.00    +0.000 A 
BRANCH  24  30
ATOM     30  S   UNL     1       6.603   4.675  15.974  0.00  0.00    +0.000 S 
ATOM     31  O   UNL     1       6.907   6.015  15.523  0.00  0.00    +0.000 OA
ATOM     32  O   UNL     1       6.323   3.605  15.052  0.00  0.00    +0.000 OA
BRANCH  30  33
ATOM     33  N   UNL     1       7.955   4.146  16.835  0.00  0.00    +0.000 NA
ATOM     34  H   UNL     1       7.646   3.797  17.742  0.00  0.00    +0.000 HD
ATOM     35  H   UNL     1       8.639   4.900  16.909  0.00  0.00    +0.000 HD
ENDBRANCH  30  33
ENDBRANCH  24  30
ENDBRANCH  22  27
ENDBRANCH  20  22
ENDBRANCH   1  21
TORSDOF 7
ENDMDL
