MODEL 1
REMARK VINA RESULT:      -8.3      0.000      0.000
REMARK  Name = 
REMARK  10 active torsions:
REMARK  status: ('A' for Active; 'I' for Inactive)
REMARK    1  A    between atoms: C_1  and  C_2
REMARK    2  A    between atoms: C_2  and  C_3
REMARK    3  A    between atoms: C_3  and  C_4
REMARK    4  A    between atoms: N_6  and  C_7
REMARK    5  A    between atoms: C_7  and  C_8
REMARK    6  A    between atoms: C_7  and  C_17
REMARK    7  A    between atoms: C_11  and  C_12
REMARK    8  A    between atoms: C_12  and  C_13
REMARK    9  A    between atoms: C_12  and  C_14
REMARK   10  A    between atoms: C_26  and  O_27
REMARK                            x       y       z     vdW  Elec       q    Type
REMARK                         _______ _______ _______ _____ _____    ______ ____
ROOT
ATOM      1  C   UNL     1       4.263   5.084  18.486  0.00  0.00    +0.000 C 
ENDROOT
BRANCH   1   2
ATOM      2  C   UNL     1       3.479   6.388  18.584  0.00  0.00    +0.000 A 
ATOM      3  C   UNL     1       3.528   7.285  17.504  0.00  0.00    +0.000 A 
ATOM      4  C   UNL     1       2.764   8.454  17.506  0.00  0.00    +0.000 A 
ATOM      5  C   UNL     1       1.930   8.755  18.594  0.00  0.00    +0.000 A 
ATOM      6  C   UNL     1       1.082   9.869  18.599  0.00  0.00    +0.000 A 
ATOM      7  C   UNL     1       0.278  10.121  19.704  0.00  0.00    +0.000 A 
ATOM      8  C   UNL     1       0.371   9.264  20.786  0.00  0.00    +0.000 A 
ATOM      9  N   UNL     1       1.159   8.165  20.812  0.00  0.00    +0.000 NA
ATOM     10  C   UNL     1       1.909   7.910  19.718  0.00  0.00    +0.000 A 
ATOM     11  C   UNL     1       2.671   6.741  19.678  0.00  0.00    +0.000 A 
BRANCH  11  12
ATOM     12  O   UNL     1       2.576   5.904  20.776  0.00  0.00    +0.000 OA
ATOM     13  H   UNL     1       1.624   5.958  21.020  0.00  0.00    +0.000 HD
ENDBRANCH  11  12
ENDBRANCH   1   2
BRANCH   1  14
ATOM     14  C   UNL     1       5.016   4.922  17.168  0.00  0.00    +0.000 A 
ATOM     15  C   UNL     1       4.453   4.261  16.064  0.00  0.00    +0.000 A 
ATOM     16  C   UNL     1       5.185   4.070  14.886  0.00  0.00    +0.000 A 
ATOM     17  C   UNL     1       6.501   4.536  14.771  0.00  0.00    +0.000 A 
ATOM     18  C   UNL     1       7.065   5.201  15.867  0.00  0.00    +0.000 A 
ATOM     19  C   UNL     1       6.335   5.389  17.046  0.00  0.00    +0.000 A 
BRANCH  17  20
ATOM     20  C   UNL     1       7.276   4.310  13.483  0.00  0.00    +0.000 C 
ATOM     21  C   UNL     1       6.398   3.675  12.401  0.00  0.00    +0.000 C 
ATOM     22  C   UNL     1       7.925   5.598  12.968  0.00  0.00    +0.000 C 
ENDBRANCH  17  20
ENDBRANCH   1  14
BRANCH   1  25
ATOM     23  C   UNL     1       3.805   2.826  19.412  0.00  0.00    +0.000 C 
ATOM     24  O   UNL     1       4.910   2.686  19.924  0.00  0.00    +0.000 OA
ATOM     25  N   UNL     1       3.421   3.929  18.697  0.00  0.00    +0.000 N 
ATOM     26  H   UNL     1       2.438   4.073  18.507  0.00  0.00    +0.000 HD
BRANCH  23  27
ATOM     27  C   UNL     1       2.731   1.761  19.504  0.00  0.00    +0.000 C 
BRANCH  27  29
ATOM     28  C   UNL     1       1.529   2.665  21.550  0.00  0.00    +0.000 C 
ATOM     29  C   UNL     1       1.416   2.290  20.078  0.00  0.00    +0.000 C 
ENDBRANCH  27  29
ENDBRANCH  23  27
ENDBRANCH   1  25
TORSDOF 7
ENDMDL
MODEL 2
REMARK VINA RESULT:      -8.3      3.056      5.788
REMARK  Name = 
REMARK  10 active torsions:
REMARK  status: ('A' for Active; 'I' for Inactive)
REMARK    1  A    between atoms: C_1  and  C_2
REMARK    2  A    between atoms: C_2  and  C_3
REMARK    3  A    between atoms: C_3  and  C_4
REMARK    4  A    between atoms: N_6  and  C_7
REMARK    5  A    between atoms: C_7  and  C_8
REMARK    6  A    between atoms: C_7  and  C_17
REMARK    7  A    between atoms: C_11  and  C_12
REMARK    8  A    between atoms: C_12  and  C_13
REMARK    9  A    between atoms: C_12  and  C_14
REMARK   10  A    between atoms: C_26  and  O_27
REMARK                            x       y       z     vdW  Elec       q    Type
REMARK                         _______ _______ _______ _____ _____    ______ ____
ROOT
ATOM      1  C   UNL     1       6.173   5.397  17.333  0.00  0.00    +0.000 C 
ENDROOT
BRANCH   1   2
ATOM      2  C   UNL     1       4.883   5.195  18.120  0.00  0.00    +0.000 A 
ATOM      3  C   UNL     1       3.849   6.134  17.969  0.00  0.00    +0.000 A 
ATOM      4  C   UNL     1       2.617   5.954  18.601  0.00  0.00    +0.000 A 
ATOM      5  C   UNL     1       2.389   4.824  19.402  0.00  0.00    +0.000 A 
ATOM      6  C   UNL     1       1.142   4.559  19.981  0.00  0.00    +0.000 A 
ATOM      7  C   UNL     1       0.972   3.426  20.768  0.00  0.00    +0.000 A 
ATOM      8  C   UNL     1       2.068   2.608  20.976  0.00  0.00    +0.000 A 
ATOM      9  N   UNL     1       3.281   2.815  20.417  0.00  0.00    +0.000 NA
ATOM     10  C   UNL     1       3.425   3.900  19.625  0.00  0.00    +0.000 A 
ATOM     11  C   UNL     1       4.639   4.100  18.966  0.00  0.00    +0.000 A 
BRANCH  11  12
ATOM     12  O   UNL     1       5.614   3.135  19.160  0.00  0.00    +0.000 OA
ATOM     13  H   UNL     1       5.101   2.355  19.471  0.00  0.00    +0.000 HD
ENDBRANCH  11  12
ENDBRANCH   1   2
BRANCH   1  14
ATOM     14  C   UNL     1       6.952   6.642  17.746  0.00  0.00    +0.000 A 
ATOM     15  C   UNL     1       6.785   7.876  17.094  0.00  0.00    +0.000 A 
ATOM     16  C   UNL     1       7.554   8.991  17.449  0.00  0.00    +0.000 A 
ATOM     17  C   UNL     1       8.512   8.911  18.468  0.00  0.00    +0.000 A 
ATOM     18  C   UNL     1       8.678   7.686  19.124  0.00  0.00    +0.000 A 
ATOM     19  C   UNL     1       7.912   6.569  18.768  0.00  0.00    +0.000 A 
BRANCH  17  20
ATOM     20  C   UNL     1       9.338  10.134  18.828  0.00  0.00    +0.000 C 
ATOM     21  C   UNL     1       8.985  11.334  17.946  0.00  0.00    +0.000 C 
ATOM     22  C   UNL     1       9.212  10.497  20.311  0.00  0.00    +0.000 C 
ENDBRANCH  17  20
ENDBRANCH   1  14
BRANCH   1  25
ATOM     23  C   UNL     1       5.853   4.317  15.120  0.00  0.00    +0.000 C 
ATOM     24  O   UNL     1       5.993   3.171  15.530  0.00  0.00    +0.000 OA
ATOM     25  N   UNL     1       5.938   5.433  15.908  0.00  0.00    +0.000 N 
ATOM     26  H   UNL     1       5.587   6.313  15.553  0.00  0.00    +0.000 HD
BRANCH  23  27
ATOM     27  C   UNL     1       5.580   4.625  13.662  0.00  0.00    +0.000 C 
BRANCH  27  29
ATOM     28  C   UNL     1       4.844   3.128  11.746  0.00  0.00    +0.000 C 
ATOM     29  C   UNL     1       5.955   3.471  12.729  0.00  0.00    +0.000 C 
ENDBRANCH  27  29
ENDBRANCH  23  27
ENDBRANCH   1  25
TORSDOF 7
ENDMDL
MODEL 3
REMARK VINA RESULT:      -8.3      1.427      2.240
REMARK  Name = 
REMARK  10 active torsions:
REMARK  status: ('A' for Active; 'I' for Inactive)
REMARK    1  A    between atoms: C_1  and  C_2
REMARK    2  A    between atoms: C_2  and  C_3
REMARK    3  A    between atoms: C_3  and  C_4
REMARK    4  A    between atoms: N_6  and  C_7
REMARK    5  A    between atoms: C_7  and  C_8
REMARK    6  A    between atoms: C_7  and  C_17
REMARK    7  A    between atoms: C_11  and  C_12
REMARK    8  A    between atoms: C_12  and  C_13
REMARK    9  A    between atoms: C_12  and  C_14
REMARK   10  A    between atoms: C_26  and  O_27
REMARK                            x       y       z     vdW  Elec       q    Type
REMARK                         _______ _______ _______ _____ _____    ______ ____
ROOT
ATOM      1  C   UNL     1       2.938   6.144  19.207  0.00  0.00    +0.000 C 
ENDROOT
BRANCH   1   2
ATOM      2  C   UNL     1       2.243   7.499  19.148  0.00  0.00    +0.000 A 
ATOM      3  C   UNL     1       2.104   8.130  17.900  0.00  0.00    +0.000 A 
ATOM      4  C   UNL     1       1.403   9.331  17.776  0.00  0.00    +0.000 A 
ATOM      5  C   UNL     1       0.821   9.933  18.902  0.00  0.00    +0.000 A 
ATOM      6  C   UNL     1       0.035  11.088  18.810  0.00  0.00    +0.000 A 
ATOM      7  C   UNL     1      -0.516  11.642  19.959  0.00  0.00    +0.000 A 
ATOM      8  C   UNL     1      -0.237  11.039  21.172  0.00  0.00    +0.000 A 
ATOM      9  N   UNL     1       0.496   9.910  21.302  0.00  0.00    +0.000 NA
ATOM     10  C   UNL     1       0.997   9.360  20.175  0.00  0.00    +0.000 A 
ATOM     11  C   UNL     1       1.689   8.150  20.263  0.00  0.00    +0.000 A 
BRANCH  11  12
ATOM     12  O   UNL     1       1.787   7.585  21.523  0.00  0.00    +0.000 OA
ATOM     13  H   UNL     1       2.675   7.875  21.832  0.00  0.00    +0.000 HD
ENDBRANCH  11  12
ENDBRANCH   1   2
BRANCH   1  14
ATOM     14  C   UNL     1       3.821   5.856  17.995  0.00  0.00    +0.000 A 
ATOM     15  C   UNL     1       4.674   6.829  17.446  0.00  0.00    +0.000 A 
ATOM     16  C   UNL     1       5.429   6.562  16.298  0.00  0.00    +0.000 A 
ATOM     17  C   UNL     1       5.361   5.315  15.663  0.00  0.00    +0.000 A 
ATOM     18  C   UNL     1       4.517   4.341  16.210  0.00  0.00    +0.000 A 
ATOM     19  C   UNL     1       3.758   4.608  17.356  0.00  0.00    +0.000 A 
BRANCH  17  20
ATOM     20  C   UNL     1       6.186   5.054  14.415  0.00  0.00    +0.000 C 
ATOM     21  C   UNL     1       7.681   4.972  14.733  0.00  0.00    +0.000 C 
ATOM     22  C   UNL     1       5.722   3.799  13.670  0.00  0.00    +0.000 C 
ENDBRANCH  17  20
ENDBRANCH   1  14
BRANCH   1  25
ATOM     23  C   UNL     1       1.839   4.367  20.548  0.00  0.00    +0.000 C 
ATOM     24  O   UNL     1       2.492   4.571  21.565  0.00  0.00    +0.000 OA
ATOM     25  N   UNL     1       1.999   5.060  19.379  0.00  0.00    +0.000 N 
ATOM     26  H   UNL     1       1.281   4.997  18.668  0.00  0.00    +0.000 HD
BRANCH  23  27
ATOM     27  C   UNL     1       0.775   3.291  20.474  0.00  0.00    +0.000 C 
BRANCH  27  29
ATOM     28  C   UNL     1       2.027   1.744  18.896  0.00  0.00    +0.000 C 
ATOM     29  C   UNL     1       0.761   2.559  19.131  0.00  0.00    +0.000 C 
ENDBRANCH  27  29
ENDBRANCH  23  27
ENDBRANCH   1  25
TORSDOF 7
ENDMDL
MODEL 4
REMARK VINA RESULT:      -7.9      0.872      1.032
REMARK  Name = 
REMARK  10 active torsions:
REMARK  status: ('A' for Active; 'I' for Inactive)
REMARK    1  A    between atoms: C_1  and  C_2
REMARK    2  A    between atoms: C_2  and  C_3
REMARK    3  A    between atoms: C_3  and  C_4
REMARK    4  A    between atoms: N_6  and  C_7
REMARK    5  A    between atoms: C_7  and  C_8
REMARK    6  A    between atoms: C_7  and  C_17
REMARK    7  A    between atoms: C_11  and  C_12
REMARK    8  A    between atoms: C_12  and  C_13
REMARK    9  A    between atoms: C_12  and  C_14
REMARK   10  A    between atoms: C_26  and  O_27
REMARK                            x       y       z     vdW  Elec       q    Type
REMARK                         _______ _______ _______ _____ _____    ______ ____
ROOT
ATOM      1  C   UNL     1       3.825   5.679  19.073  0.00  0.00    +0.000 C 
ENDROOT
BRANCH   1   2
ATOM      2  C   UNL     1       2.995   6.954  18.983  0.00  0.00    +0.000 A 
ATOM      3  C   UNL     1       3.070   7.723  17.809  0.00  0.00    +0.000 A 
ATOM      4  C   UNL     1       2.269   8.854  17.639  0.00  0.00    +0.000 A 
ATOM      5  C   UNL     1       1.371   9.246  18.645  0.00  0.00    +0.000 A 
ATOM      6  C   UNL     1       0.488  10.320  18.480  0.00  0.00    +0.000 A 
ATOM      7  C   UNL     1      -0.379  10.665  19.510  0.00  0.00    +0.000 A 
ATOM      8  C   UNL     1      -0.313   9.942  20.687  0.00  0.00    +0.000 A 
ATOM      9  N   UNL     1       0.508   8.884  20.878  0.00  0.00    +0.000 NA
ATOM     10  C   UNL     1       1.320   8.535  19.857  0.00  0.00    +0.000 A 
ATOM     11  C   UNL     1       2.121   7.399  19.989  0.00  0.00    +0.000 A 
BRANCH  11  12
ATOM     12  O   UNL     1       1.997   6.689  21.171  0.00  0.00    +0.000 OA
ATOM     13  H   UNL     1       2.773   6.989  21.697  0.00  0.00    +0.000 HD
ENDBRANCH  11  12
ENDBRANCH   1   2
BRANCH   1  14
ATOM     14  C   UNL     1       4.536   5.319  17.772  0.00  0.00    +0.000 A 
ATOM     15  C   UNL     1       4.026   4.357  16.883  0.00  0.00    +0.000 A 
ATOM     16  C   UNL     1       4.726   3.998  15.726  0.00  0.00    +0.000 A 
ATOM     17  C   UNL     1       5.957   4.591  15.414  0.00  0.00    +0.000 A 
ATOM     18  C   UNL     1       6.467   5.555  16.293  0.00  0.00    +0.000 A 
ATOM     19  C   UNL     1       5.769   5.911  17.453  0.00  0.00    +0.000 A 
BRANCH  17  20
ATOM     20  C   UNL     1       6.699   4.179  14.155  0.00  0.00    +0.000 C 
ATOM     21  C   UNL     1       5.742   3.661  13.079  0.00  0.00    +0.000 C 
ATOM     22  C   UNL     1       7.571   5.312  13.603  0.00  0.00    +0.000 C 
ENDBRANCH  17  20
ENDBRANCH   1  14
BRANCH   1  25
ATOM     23  C   UNL     1       3.572   3.392  20.010  0.00  0.00    +0.000 C 
ATOM     24  O   UNL     1       4.774   3.178  20.113  0.00  0.00    +0.000 OA
ATOM     25  N   UNL     1       3.036   4.549  19.511  0.00  0.00    +0.000 N 
ATOM     26  H   UNL     1       2.056   4.745  19.670  0.00  0.00    +0.000 HD
BRANCH  23  27
ATOM     27  C   UNL     1       2.531   2.370  20.418  0.00  0.00    +0.000 C 
BRANCH  27  29
ATOM     28  C   UNL     1       0.656   2.329  18.706  0.00  0.00    +0.000 C 
ATOM     29  C   UNL     1       1.104   2.807  20.081  0.00  0.00    +0.000 C 
ENDBRANCH  27  29
ENDBRANCH  23  27
ENDBRANCH   1  25
TORSDOF 7
ENDMDL
MODEL 5
REMARK VINA RESULT:      -7.7      0.609      1.312
REMARK  Name = 
REMARK  10 active torsions:
REMARK  status: ('A' for Active; 'I' for Inactive)
REMARK    1  A    between atoms: C_1  and  C_2
REMARK    2  A    between atoms: C_2  and  C_3
REMARK    3  A    between atoms: C_3  and  C_4
REMARK    4  A    between atoms: N_6  and  C_7
REMARK    5  A    between atoms: C_7  and  C_8
REMARK    6  A    between atoms: C_7  and  C_17
REMARK    7  A    between atoms: C_11  and  C_12
REMARK    8  A    between atoms: C_12  and  C_13
REMARK    9  A    between atoms: C_12  and  C_14
REMARK   10  A    between atoms: C_26  and  O_27
REMARK                            x       y       z     vdW  Elec       q    Type
REMARK                         _______ _______ _______ _____ _____    ______ ____
ROOT
ATOM      1  C   UNL     1       4.537   4.869  18.128  0.00  0.00    +0.000 C 
ENDROOT
BRANCH   1   2
ATOM      2  C   UNL     1       3.723   6.130  18.393  0.00  0.00    +0.000 A 
ATOM      3  C   UNL     1       3.671   7.119  17.395  0.00  0.00    +0.000 A 
ATOM      4  C   UNL     1       2.875   8.254  17.551  0.00  0.00    +0.000 A 
ATOM      5  C   UNL     1       2.107   8.430  18.713  0.00  0.00    +0.000 A 
ATOM      6  C   UNL     1       1.227   9.508  18.871  0.00  0.00    +0.000 A 
ATOM      7  C   UNL     1       0.493   9.633  20.045  0.00  0.00    +0.000 A 
ATOM      8  C   UNL     1       0.685   8.690  21.037  0.00  0.00    +0.000 A 
ATOM      9  N   UNL     1       1.506   7.622  20.915  0.00  0.00    +0.000 NA
ATOM     10  C   UNL     1       2.187   7.490  19.756  0.00  0.00    +0.000 A 
ATOM     11  C   UNL     1       2.980   6.358  19.563  0.00  0.00    +0.000 A 
BRANCH  11  12
ATOM     12  O   UNL     1       2.984   5.425  20.586  0.00  0.00    +0.000 OA
ATOM     13  H   UNL     1       2.986   4.564  20.108  0.00  0.00    +0.000 HD
ENDBRANCH  11  12
ENDBRANCH   1   2
BRANCH   1  14
ATOM     14  C   UNL     1       5.251   4.874  16.779  0.00  0.00    +0.000 A 
ATOM     15  C   UNL     1       6.469   5.548  16.582  0.00  0.00    +0.000 A 
ATOM     16  C   UNL     1       7.075   5.590  15.322  0.00  0.00    +0.000 A 
ATOM     17  C   UNL     1       6.490   4.958  14.218  0.00  0.00    +0.000 A 
ATOM     18  C   UNL     1       5.280   4.279  14.410  0.00  0.00    +0.000 A 
ATOM     19  C   UNL     1       4.670   4.240  15.670  0.00  0.00    +0.000 A 
BRANCH  17  20
ATOM     20  C   UNL     1       7.166   5.024  12.859  0.00  0.00    +0.000 C 
ATOM     21  C   UNL     1       8.588   5.580  12.963  0.00  0.00    +0.000 C 
ATOM     22  C   UNL     1       7.165   3.668  12.148  0.00  0.00    +0.000 C 
ENDBRANCH  17  20
ENDBRANCH   1  14
BRANCH   1  25
ATOM     23  C   UNL     1       3.940   2.696  19.173  0.00  0.00    +0.000 C 
ATOM     24  O   UNL     1       4.843   2.717  20.003  0.00  0.00    +0.000 OA
ATOM     25  N   UNL     1       3.734   3.673  18.236  0.00  0.00    +0.000 N 
ATOM     26  H   UNL     1       2.849   3.704  17.746  0.00  0.00    +0.000 HD
BRANCH  23  27
ATOM     27  C   UNL     1       2.948   1.555  19.088  0.00  0.00    +0.000 C 
BRANCH  27  29
ATOM     28  C   UNL     1       1.037   2.726  20.284  0.00  0.00    +0.000 C 
ATOM     29  C   UNL     1       1.497   2.033  19.007  0.00  0.00    +0.000 C 
ENDBRANCH  27  29
ENDBRANCH  23  27
ENDBRANCH   1  25
TORSDOF 7
ENDMDL
MODEL 6
REMARK VINA RESULT:      -7.4      1.262      1.405
REMARK  Name = 
REMARK  10 active torsions:
REMARK  status: ('A' for Active; 'I' for Inactive)
REMARK    1  A    between atoms: C_1  and  C_2
REMARK    2  A    between atoms: C_2  and  C_3
REMARK    3  A    between atoms: C_3  and  C_4
REMARK    4  A    between atoms: N_6  and  C_7
REMARK    5  A    between atoms: C_7  and  C_8
REMARK    6  A    between atoms: C_7  and  C_17
REMARK    7  A    between atoms: C_11  and  C_12
REMARK    8  A    between atoms: C_12  and  C_13
REMARK    9  A    between atoms: C_12  and  C_14
REMARK   10  A    between atoms: C_26  and  O_27
REMARK                            x       y       z     vdW  Elec       q    Type
REMARK                         _______ _______ _______ _____ _____    ______ ____
ROOT
ATOM      1  C   UNL     1       3.973   5.373  18.791  0.00  0.00    +0.000 C 
ENDROOT
BRANCH   1   2
ATOM      2  C   UNL     1       3.180   6.675  18.760  0.00  0.00    +0.000 A 
ATOM      3  C   UNL     1       3.243   7.473  17.606  0.00  0.00    +0.000 A 
ATOM      4  C   UNL     1       2.472   8.632  17.491  0.00  0.00    +0.000 A 
ATOM      5  C   UNL     1       1.616   9.022  18.533  0.00  0.00    +0.000 A 
ATOM      6  C   UNL     1       0.762  10.126  18.425  0.00  0.00    +0.000 A 
ATOM      7  C   UNL     1      -0.063  10.467  19.490  0.00  0.00    +0.000 A 
ATOM      8  C   UNL     1       0.015   9.710  20.645  0.00  0.00    +0.000 A 
ATOM      9  N   UNL     1       0.809   8.624  20.781  0.00  0.00    +0.000 NA
ATOM     10  C   UNL     1       1.580   8.279  19.727  0.00  0.00    +0.000 A 
ATOM     11  C   UNL     1       2.350   7.117  19.804  0.00  0.00    +0.000 A 
BRANCH  11  12
ATOM     12  O   UNL     1       2.240   6.379  20.970  0.00  0.00    +0.000 OA
ATOM     13  H   UNL     1       3.110   5.922  21.031  0.00  0.00    +0.000 HD
ENDBRANCH  11  12
ENDBRANCH   1   2
BRANCH   1  14
ATOM     14  C   UNL     1       4.648   5.037  17.464  0.00  0.00    +0.000 A 
ATOM     15  C   UNL     1       4.988   6.028  16.528  0.00  0.00    +0.000 A 
ATOM     16  C   UNL     1       5.551   5.691  15.291  0.00  0.00    +0.000 A 
ATOM     17  C   UNL     1       5.796   4.355  14.951  0.00  0.00    +0.000 A 
ATOM     18  C   UNL     1       5.465   3.364  15.883  0.00  0.00    +0.000 A 
ATOM     19  C   UNL     1       4.898   3.699  17.118  0.00  0.00    +0.000 A 
BRANCH  17  20
ATOM     20  C   UNL     1       6.402   4.016  13.599  0.00  0.00    +0.000 C 
ATOM     21  C   UNL     1       5.322   3.739  12.550  0.00  0.00    +0.000 C 
ATOM     22  C   UNL     1       7.365   5.103  13.111  0.00  0.00    +0.000 C 
ENDBRANCH  17  20
ENDBRANCH   1  14
BRANCH   1  25
ATOM     23  C   UNL     1       1.996   3.884  18.591  0.00  0.00    +0.000 C 
ATOM     24  O   UNL     1       1.502   4.476  17.638  0.00  0.00    +0.000 OA
ATOM     25  N   UNL     1       3.160   4.254  19.208  0.00  0.00    +0.000 N 
ATOM     26  H   UNL     1       3.620   3.596  19.825  0.00  0.00    +0.000 HD
BRANCH  23  27
ATOM     27  C   UNL     1       1.345   2.662  19.208  0.00  0.00    +0.000 C 
BRANCH  27  29
ATOM     28  C   UNL     1       1.650   2.604  21.729  0.00  0.00    +0.000 C 
ATOM     29  C   UNL     1       0.718   2.949  20.575  0.00  0.00    +0.000 C 
ENDBRANCH  27  29
ENDBRANCH  23  27
ENDBRANCH   1  25
TORSDOF 7
ENDMDL
MODEL 7
REMARK VINA RESULT:      -7.4      4.620      8.039
REMARK  Name = 
REMARK  10 active torsions:
REMARK  status: ('A' for Active; 'I' for Inactive)
REMARK    1  A    between atoms: C_1  and  C_2
REMARK    2  A    between atoms: C_2  and  C_3
REMARK    3  A    between atoms: C_3  and  C_4
REMARK    4  A    between atoms: N_6  and  C_7
REMARK    5  A    between atoms: C_7  and  C_8
REMARK    6  A    between atoms: C_7  and  C_17
REMARK    7  A    between atoms: C_11  and  C_12
REMARK    8  A    between atoms: C_12  and  C_13
REMARK    9  A    between atoms: C_12  and  C_14
REMARK   10  A    between atoms: C_26  and  O_27
REMARK                            x       y       z     vdW  Elec       q    Type
REMARK                         _______ _______ _______ _____ _____    ______ ____
ROOT
ATOM      1  C   UNL     1      -0.139  11.177  18.913  0.00  0.00    +0.000 C 
ENDROOT
BRANCH   1   2
ATOM      2  C   UNL     1       0.743  12.411  18.764  0.00  0.00    +0.000 A 
ATOM      3  C   UNL     1       2.105  12.232  18.472  0.00  0.00    +0.000 A 
ATOM      4  C   UNL     1       2.941  13.327  18.243  0.00  0.00    +0.000 A 
ATOM      5  C   UNL     1       2.431  14.633  18.301  0.00  0.00    +0.000 A 
ATOM      6  C   UNL     1       3.211  15.754  17.992  0.00  0.00    +0.000 A 
ATOM      7  C   UNL     1       2.654  17.025  18.068  0.00  0.00    +0.000 A 
ATOM      8  C   UNL     1       1.340  17.138  18.482  0.00  0.00    +0.000 A 
ATOM      9  N   UNL     1       0.546  16.080  18.767  0.00  0.00    +0.000 NA
ATOM     10  C   UNL     1       1.087  14.848  18.655  0.00  0.00    +0.000 A 
ATOM     11  C   UNL     1       0.274  13.732  18.862  0.00  0.00    +0.000 A 
BRANCH  11  12
ATOM     12  O   UNL     1      -1.058  13.981  19.146  0.00  0.00    +0.000 OA
ATOM     13  H   UNL     1      -1.014  14.648  19.869  0.00  0.00    +0.000 HD
ENDBRANCH  11  12
ENDBRANCH   1   2
BRANCH   1  14
ATOM     14  C   UNL     1       0.646   9.874  19.031  0.00  0.00    +0.000 A 
ATOM     15  C   UNL     1       0.878   9.252  20.269  0.00  0.00    +0.000 A 
ATOM     16  C   UNL     1       1.653   8.090  20.361  0.00  0.00    +0.000 A 
ATOM     17  C   UNL     1       2.218   7.508  19.219  0.00  0.00    +0.000 A 
ATOM     18  C   UNL     1       1.985   8.121  17.981  0.00  0.00    +0.000 A 
ATOM     19  C   UNL     1       1.213   9.285  17.889  0.00  0.00    +0.000 A 
BRANCH  17  20
ATOM     20  C   UNL     1       3.061   6.251  19.346  0.00  0.00    +0.000 C 
ATOM     21  C   UNL     1       2.191   4.993  19.415  0.00  0.00    +0.000 C 
ATOM     22  C   UNL     1       4.095   6.133  18.222  0.00  0.00    +0.000 C 
ENDBRANCH  17  20
ENDBRANCH   1  14
BRANCH   1  25
ATOM     23  C   UNL     1      -2.428  11.341  17.963  0.00  0.00    +0.000 C 
ATOM     24  O   UNL     1      -2.961  11.694  19.009  0.00  0.00    +0.000 OA
ATOM     25  N   UNL     1      -1.094  11.060  17.835  0.00  0.00    +0.000 N 
ATOM     26  H   UNL     1      -0.692  11.002  16.909  0.00  0.00    +0.000 HD
BRANCH  23  27
ATOM     27  C   UNL     1      -3.211  11.159  16.679  0.00  0.00    +0.000 C 
BRANCH  27  29
ATOM     28  C   UNL     1      -3.180  10.089  14.377  0.00  0.00    +0.000 C 
ATOM     29  C   UNL     1      -2.675  10.019  15.811  0.00  0.00    +0.000 C 
ENDBRANCH  27  29
ENDBRANCH  23  27
ENDBRANCH   1  25
TORSDOF 7
ENDMDL
MODEL 8
REMARK VINA RESULT:      -7.3      1.282      1.533
REMARK  Name = 
REMARK  10 active torsions:
REMARK  status: ('A' for Active; 'I' for Inactive)
REMARK    1  A    between atoms: C_1  and  C_2
REMARK    2  A    between atoms: C_2  and  C_3
REMARK    3  A    between atoms: C_3  and  C_4
REMARK    4  A    between atoms: N_6  and  C_7
REMARK    5  A    between atoms: C_7  and  C_8
REMARK    6  A    between atoms: C_7  and  C_17
REMARK    7  A    between atoms: C_11  and  C_12
REMARK    8  A    between atoms: C_12  and  C_13
REMARK    9  A    between atoms: C_12  and  C_14
REMARK   10  A    between atoms: C_26  and  O_27
REMARK                            x       y       z     vdW  Elec       q    Type
REMARK                         _______ _______ _______ _____ _____    ______ ____
ROOT
ATOM      1  C   UNL     1       3.767   5.439  18.660  0.00  0.00    +0.000 C 
ENDROOT
BRANCH   1   2
ATOM      2  C   UNL     1       2.971   6.731  18.807  0.00  0.00    +0.000 A 
ATOM      3  C   UNL     1       2.943   7.630  17.727  0.00  0.00    +0.000 A 
ATOM      4  C   UNL     1       2.163   8.787  17.777  0.00  0.00    +0.000 A 
ATOM      5  C   UNL     1       1.390   9.074  18.912  0.00  0.00    +0.000 A 
ATOM      6  C   UNL     1       0.527  10.175  18.969  0.00  0.00    +0.000 A 
ATOM      7  C   UNL     1      -0.215  10.413  20.121  0.00  0.00    +0.000 A 
ATOM      8  C   UNL     1      -0.045   9.556  21.193  0.00  0.00    +0.000 A 
ATOM      9  N   UNL     1       0.759   8.470  21.171  0.00  0.00    +0.000 NA
ATOM     10  C   UNL     1       1.447   8.228  20.034  0.00  0.00    +0.000 A 
ATOM     11  C   UNL     1       2.223   7.070  19.947  0.00  0.00    +0.000 A 
BRANCH  11  12
ATOM     12  O   UNL     1       2.205   6.230  21.047  0.00  0.00    +0.000 OA
ATOM     13  H   UNL     1       2.361   5.341  20.655  0.00  0.00    +0.000 HD
ENDBRANCH  11  12
ENDBRANCH   1   2
BRANCH   1  14
ATOM     14  C   UNL     1       4.388   5.257  17.278  0.00  0.00    +0.000 A 
ATOM     15  C   UNL     1       4.620   3.987  16.725  0.00  0.00    +0.000 A 
ATOM     16  C   UNL     1       5.246   3.842  15.482  0.00  0.00    +0.000 A 
ATOM     17  C   UNL     1       5.657   4.962  14.747  0.00  0.00    +0.000 A 
ATOM     18  C   UNL     1       5.422   6.231  15.290  0.00  0.00    +0.000 A 
ATOM     19  C   UNL     1       4.800   6.376  16.535  0.00  0.00    +0.000 A 
BRANCH  17  20
ATOM     20  C   UNL     1       6.340   4.777  13.403  0.00  0.00    +0.000 C 
ATOM     21  C   UNL     1       7.831   5.117  13.476  0.00  0.00    +0.000 C 
ATOM     22  C   UNL     1       6.133   3.367  12.840  0.00  0.00    +0.000 C 
ENDBRANCH  17  20
ENDBRANCH   1  14
BRANCH   1  25
ATOM     23  C   UNL     1       1.815   3.938  18.336  0.00  0.00    +0.000 C 
ATOM     24  O   UNL     1       1.309   4.601  17.437  0.00  0.00    +0.000 OA
ATOM     25  N   UNL     1       2.974   4.275  18.982  0.00  0.00    +0.000 N 
ATOM     26  H   UNL     1       3.446   3.575  19.540  0.00  0.00    +0.000 HD
BRANCH  23  27
ATOM     27  C   UNL     1       1.186   2.659  18.848  0.00  0.00    +0.000 C 
BRANCH  27  29
ATOM     28  C   UNL     1       1.263   2.771  21.384  0.00  0.00    +0.000 C 
ATOM     29  C   UNL     1       1.847   2.141  20.127  0.00  0.00    +0.000 C 
ENDBRANCH  27  29
ENDBRANCH  23  27
ENDBRANCH   1  25
TORSDOF 7
ENDMDL
MODEL 9
REMARK VINA RESULT:      -7.3      4.122      7.360
REMARK  Name = 
REMARK  10 active torsions:
REMARK  status: ('A' for Active; 'I' for Inactive)
REMARK    1  A    between atoms: C_1  and  C_2
REMARK    2  A    between atoms: C_2  and  C_3
REMARK    3  A    between atoms: C_3  and  C_4
REMARK    4  A    between atoms: N_6  and  C_7
REMARK    5  A    between atoms: C_7  and  C_8
REMARK    6  A    between atoms: C_7  and  C_17
REMARK    7  A    between atoms: C_11  and  C_12
REMARK    8  A    between atoms: C_12  and  C_13
REMARK    9  A    between atoms: C_12  and  C_14
REMARK   10  A    between atoms: C_26  and  O_27
REMARK                            x       y       z     vdW  Elec       q    Type
REMARK                         _______ _______ _______ _____ _____    ______ ____
ROOT
ATOM      1  C   UNL     1       0.437  10.698  19.212  0.00  0.00    +0.000 C 
ENDROOT
BRANCH   1   2
ATOM      2  C   UNL     1       1.305  11.931  19.434  0.00  0.00    +0.000 A 
ATOM      3  C   UNL     1       2.072  12.416  18.361  0.00  0.00    +0.000 A 
ATOM      4  C   UNL     1       2.819  13.588  18.484  0.00  0.00    +0.000 A 
ATOM      5  C   UNL     1       2.818  14.308  19.690  0.00  0.00    +0.000 A 
ATOM      6  C   UNL     1       3.481  15.533  19.829  0.00  0.00    +0.000 A 
ATOM      7  C   UNL     1       3.449  16.201  21.047  0.00  0.00    +0.000 A 
ATOM      8  C   UNL     1       2.777  15.606  22.099  0.00  0.00    +0.000 A 
ATOM      9  N   UNL     1       2.105  14.437  22.000  0.00  0.00    +0.000 NA
ATOM     10  C   UNL     1       2.113  13.814  20.802  0.00  0.00    +0.000 A 
ATOM     11  C   UNL     1       1.363  12.648  20.641  0.00  0.00    +0.000 A 
BRANCH  11  12
ATOM     12  O   UNL     1       0.632  12.227  21.740  0.00  0.00    +0.000 OA
ATOM     13  H   UNL     1       1.325  11.939  22.376  0.00  0.00    +0.000 HD
ENDBRANCH  11  12
ENDBRANCH   1   2
BRANCH   1  14
ATOM     14  C   UNL     1       1.236   9.405  19.068  0.00  0.00    +0.000 A 
ATOM     15  C   UNL     1       1.792   9.005  17.841  0.00  0.00    +0.000 A 
ATOM     16  C   UNL     1       2.468   7.786  17.718  0.00  0.00    +0.000 A 
ATOM     17  C   UNL     1       2.616   6.929  18.816  0.00  0.00    +0.000 A 
ATOM     18  C   UNL     1       2.069   7.326  20.042  0.00  0.00    +0.000 A 
ATOM     19  C   UNL     1       1.389   8.543  20.166  0.00  0.00    +0.000 A 
BRANCH  17  20
ATOM     20  C   UNL     1       3.349   5.608  18.653  0.00  0.00    +0.000 C 
ATOM     21  C   UNL     1       2.486   4.568  17.935  0.00  0.00    +0.000 C 
ATOM     22  C   UNL     1       4.695   5.780  17.941  0.00  0.00    +0.000 C 
ENDBRANCH  17  20
ENDBRANCH   1  14
BRANCH   1  25
ATOM     23  C   UNL     1      -1.727  11.295  18.149  0.00  0.00    +0.000 C 
ATOM     24  O   UNL     1      -2.291  11.589  19.196  0.00  0.00    +0.000 OA
ATOM     25  N   UNL     1      -0.435  10.848  18.070  0.00  0.00    +0.000 N 
ATOM     26  H   UNL     1       0.030  10.847  17.171  0.00  0.00    +0.000 HD
BRANCH  23  27
ATOM     27  C   UNL     1      -2.421  11.382  16.805  0.00  0.00    +0.000 C 
BRANCH  27  29
ATOM     28  C   UNL     1      -3.140  10.137  14.712  0.00  0.00    +0.000 C 
ATOM     29  C   UNL     1      -2.525  10.028  16.100  0.00  0.00    +0.000 C 
ENDBRANCH  27  29
ENDBRANCH  23  27
ENDBRANCH   1  25
TORSDOF 7
ENDMDL
