MODEL 1
REMARK VINA RESULT:      -7.4      0.000      0.000
REMARK  Name = 
REMARK  7 active torsions:
REMARK  status: ('A' for Active; 'I' for Inactive)
REMARK    1  A    between atoms: C_1  and  C_2
REMARK    2  A    between atoms: C_2  and  O_3
REMARK    3  A    between atoms: O_3  and  C_4
REMARK    4  A    between atoms: C_10  and  C_12
REMARK    5  A    between atoms: C_12  and  C_13
REMARK    6  A    between atoms: C_13  and  N_14
REMARK    7  A    between atoms: C_16  and  C_17
REMARK                            x       y       z     vdW  Elec       q    Type
REMARK                         _______ _______ _______ _____ _____    ______ ____
ROOT
ATOM      1  C   UNL     1       0.999  10.254  21.052  0.00  0.00    +0.000 C 
ENDROOT
BRANCH   1   2
ATOM      2  N   UNL     1      -0.246  10.949  20.724  0.00  0.00    +0.000 N 
ATOM      3  N   UNL     1      -0.796  10.658  19.496  0.00  0.00    +0.000 NA
ATOM      4  C   UNL     1      -1.882  11.280  19.151  0.00  0.00    +0.000 A 
ATOM      5  C   UNL     1      -2.567  12.280  20.001  0.00  0.00    +0.000 A 
ATOM      6  C   UNL     1      -2.058  12.484  21.216  0.00  0.00    +0.000 A 
ATOM      7  C   UNL     1      -0.849  11.768  21.668  0.00  0.00    +0.000 A 
ATOM      8  O   UNL     1      -0.452  11.935  22.817  0.00  0.00    +0.000 OA
BRANCH   4   9
ATOM      9  C   UNL     1      -2.510  10.958  17.837  0.00  0.00    +0.000 A 
ATOM     10  C   UNL     1      -1.852  10.049  16.994  0.00  0.00    +0.000 A 
ATOM     11  C   UNL     1      -2.393   9.720  15.749  0.00  0.00    +0.000 A 
ATOM     12  C   UNL     1      -3.590  10.304  15.342  0.00  0.00    +0.000 A 
ATOM     13 CL   UNL     1      -4.249   9.914  13.802  0.00  0.00    +0.000 Cl
ATOM     14  C   UNL     1      -4.252  11.211  16.169  0.00  0.00    +0.000 A 
ATOM     15  C   UNL     1      -3.711  11.543  17.416  0.00  0.00    +0.000 A 
ENDBRANCH   4   9
ENDBRANCH   1   2
BRANCH   1  16
ATOM     16  C   UNL     1       1.296   9.138  20.059  0.00  0.00    +0.000 C 
BRANCH  16  23
ATOM     17  C   UNL     1       3.108   3.457  17.932  0.00  0.00    +0.000 C 
ATOM     18  O   UNL     1       3.226   2.376  18.499  0.00  0.00    +0.000 OA
ATOM     19  N   UNL     1       2.322   4.487  18.391  0.00  0.00    +0.000 N 
ATOM     20  C   UNL     1       1.635   4.358  19.679  0.00  0.00    +0.000 C 
ATOM     21  C   UNL     1       2.111   5.434  20.666  0.00  0.00    +0.000 C 
ATOM     22  N   UNL     1       2.024   6.774  20.067  0.00  0.00    +0.000 N 
ATOM     23  C   UNL     1       1.360   7.788  20.745  0.00  0.00    +0.000 C 
ATOM     24  O   UNL     1       0.838   7.601  21.844  0.00  0.00    +0.000 OA
ATOM     25  C   UNL     1       2.720   6.908  18.777  0.00  0.00    +0.000 C 
ATOM     26  C   UNL     1       2.270   5.822  17.784  0.00  0.00    +0.000 C 
BRANCH  17  27
ATOM     27  O   UNL     1       3.815   3.804  16.823  0.00  0.00    +0.000 OA
BRANCH  27  29
ATOM     28  C   UNL     1       5.880   4.079  15.670  0.00  0.00    +0.000 C 
ATOM     29  C   UNL     1       5.216   4.026  17.035  0.00  0.00    +0.000 C 
ENDBRANCH  27  29
ENDBRANCH  17  27
ENDBRANCH  16  23
ENDBRANCH   1  16
TORSDOF 6
ENDMDL
MODEL 2
REMARK VINA RESULT:      -7.3      3.543      9.385
REMARK  Name = 
REMARK  7 active torsions:
REMARK  status: ('A' for Active; 'I' for Inactive)
REMARK    1  A    between atoms: C_1  and  C_2
REMARK    2  A    between atoms: C_2  and  O_3
REMARK    3  A    between atoms: O_3  and  C_4
REMARK    4  A    between atoms: C_10  and  C_12
REMARK    5  A    between atoms: C_12  and  C_13
REMARK    6  A    between atoms: C_13  and  N_14
REMARK    7  A    between atoms: C_16  and  C_17
REMARK                            x       y       z     vdW  Elec       q    Type
REMARK                         _______ _______ _______ _____ _____    ______ ____
ROOT
ATOM      1  C   UNL     1       1.446   5.426  20.514  0.00  0.00    +0.000 C 
ENDROOT
BRANCH   1   2
ATOM      2  N   UNL     1       2.479   4.442  20.193  0.00  0.00    +0.000 N 
ATOM      3  N   UNL     1       3.238   4.702  19.075  0.00  0.00    +0.000 NA
ATOM      4  C   UNL     1       4.142   3.835  18.734  0.00  0.00    +0.000 A 
ATOM      5  C   UNL     1       4.410   2.585  19.479  0.00  0.00    +0.000 A 
ATOM      6  C   UNL     1       3.716   2.395  20.601  0.00  0.00    +0.000 A 
ATOM      7  C   UNL     1       2.708   3.375  21.051  0.00  0.00    +0.000 A 
ATOM      8  O   UNL     1       2.139   3.196  22.124  0.00  0.00    +0.000 OA
BRANCH   4   9
ATOM      9  C   UNL     1       4.994   4.114  17.542  0.00  0.00    +0.000 A 
ATOM     10  C   UNL     1       6.345   4.430  17.753  0.00  0.00    +0.000 A 
ATOM     11  C   UNL     1       7.184   4.708  16.671  0.00  0.00    +0.000 A 
ATOM     12  C   UNL     1       6.672   4.679  15.377  0.00  0.00    +0.000 A 
ATOM     13 CL   UNL     1       7.698   5.040  14.044  0.00  0.00    +0.000 Cl
ATOM     14  C   UNL     1       5.330   4.371  15.154  0.00  0.00    +0.000 A 
ATOM     15  C   UNL     1       4.488   4.093  16.236  0.00  0.00    +0.000 A 
ENDBRANCH   4   9
ENDBRANCH   1   2
BRANCH   1  16
ATOM     16  C   UNL     1       2.052   6.738  20.995  0.00  0.00    +0.000 C 
BRANCH  16  23
ATOM     17  C   UNL     1      -1.213  12.139  21.501  0.00  0.00    +0.000 C 
ATOM     18  O   UNL     1      -1.356  13.078  20.726  0.00  0.00    +0.000 OA
ATOM     19  N   UNL     1      -0.838  10.873  21.117  0.00  0.00    +0.000 N 
ATOM     20  C   UNL     1      -0.495  10.609  19.718  0.00  0.00    +0.000 C 
ATOM     21  C   UNL     1       0.962  10.142  19.588  0.00  0.00    +0.000 C 
ATOM     22  N   UNL     1       1.238   9.021  20.498  0.00  0.00    +0.000 N 
ATOM     23  C   UNL     1       1.811   7.857  20.001  0.00  0.00    +0.000 C 
ATOM     24  O   UNL     1       2.102   7.733  18.812  0.00  0.00    +0.000 OA
ATOM     25  C   UNL     1       0.902   9.285  21.906  0.00  0.00    +0.000 C 
ATOM     26  C   UNL     1      -0.550   9.777  22.051  0.00  0.00    +0.000 C 
BRANCH  17  27
ATOM     27  O   UNL     1      -1.319  12.257  22.852  0.00  0.00    +0.000 OA
BRANCH  27  29
ATOM     28  C   UNL     1      -2.712  13.859  23.930  0.00  0.00    +0.000 C 
ATOM     29  C   UNL     1      -2.650  12.458  23.346  0.00  0.00    +0.000 C 
ENDBRANCH  27  29
ENDBRANCH  17  27
ENDBRANCH  16  23
ENDBRANCH   1  16
TORSDOF 6
ENDMDL
MODEL 3
REMARK VINA RESULT:      -7.2      3.131      8.863
REMARK  Name = 
REMARK  7 active torsions:
REMARK  status: ('A' for Active; 'I' for Inactive)
REMARK    1  A    between atoms: C_1  and  C_2
REMARK    2  A    between atoms: C_2  and  O_3
REMARK    3  A    between atoms: O_3  and  C_4
REMARK    4  A    between atoms: C_10  and  C_12
REMARK    5  A    between atoms: C_12  and  C_13
REMARK    6  A    between atoms: C_13  and  N_14
REMARK    7  A    between atoms: C_16  and  C_17
REMARK                            x       y       z     vdW  Elec       q    Type
REMARK                         _______ _______ _______ _____ _____    ______ ____
ROOT
ATOM      1  C   UNL     1       1.598   5.792  20.714  0.00  0.00    +0.000 C 
ENDROOT
BRANCH   1   2
ATOM      2  N   UNL     1       2.516   4.726  20.315  0.00  0.00    +0.000 N 
ATOM      3  N   UNL     1       3.309   4.987  19.221  0.00  0.00    +0.000 NA
ATOM      4  C   UNL     1       4.113   4.054  18.812  0.00  0.00    +0.000 A 
ATOM      5  C   UNL     1       4.232   2.726  19.455  0.00  0.00    +0.000 A 
ATOM      6  C   UNL     1       3.511   2.527  20.558  0.00  0.00    +0.000 A 
ATOM      7  C   UNL     1       2.616   3.576  21.085  0.00  0.00    +0.000 A 
ATOM      8  O   UNL     1       2.022   3.377  22.141  0.00  0.00    +0.000 OA
BRANCH   4   9
ATOM      9  C   UNL     1       5.001   4.329  17.646  0.00  0.00    +0.000 A 
ATOM     10  C   UNL     1       4.460   4.206  16.357  0.00  0.00    +0.000 A 
ATOM     11  C   UNL     1       5.252   4.444  15.231  0.00  0.00    +0.000 A 
ATOM     12  C   UNL     1       6.590   4.797  15.392  0.00  0.00    +0.000 A 
ATOM     13 CL   UNL     1       7.572   5.072  14.007  0.00  0.00    +0.000 Cl
ATOM     14  C   UNL     1       7.141   4.918  16.667  0.00  0.00    +0.000 A 
ATOM     15  C   UNL     1       6.349   4.680  17.796  0.00  0.00    +0.000 A 
ENDBRANCH   4   9
ENDBRANCH   1   2
BRANCH   1  16
ATOM     16  C   UNL     1       2.046   7.146  20.180  0.00  0.00    +0.000 C 
BRANCH  16  23
ATOM     17  C   UNL     1      -0.948  12.539  18.753  0.00  0.00    +0.000 C 
ATOM     18  O   UNL     1      -1.408  13.427  19.463  0.00  0.00    +0.000 OA
ATOM     19  N   UNL     1       0.025  11.656  19.156  0.00  0.00    +0.000 N 
ATOM     20  C   UNL     1       0.506  11.686  20.539  0.00  0.00    +0.000 C 
ATOM     21  C   UNL     1       0.223  10.354  21.249  0.00  0.00    +0.000 C 
ATOM     22  N   UNL     1       0.725   9.220  20.460  0.00  0.00    +0.000 N 
ATOM     23  C   UNL     1       1.553   8.279  21.059  0.00  0.00    +0.000 C 
ATOM     24  O   UNL     1       1.881   8.363  22.242  0.00  0.00    +0.000 OA
ATOM     25  C   UNL     1       0.237   9.182  19.072  0.00  0.00    +0.000 C 
ATOM     26  C   UNL     1       0.493  10.519  18.354  0.00  0.00    +0.000 C 
BRANCH  17  27
ATOM     27  O   UNL     1      -1.410  12.261  17.504  0.00  0.00    +0.000 OA
BRANCH  27  29
ATOM     28  C   UNL     1      -2.593  10.635  16.230  0.00  0.00    +0.000 C 
ATOM     29  C   UNL     1      -2.642  11.527  17.457  0.00  0.00    +0.000 C 
ENDBRANCH  27  29
ENDBRANCH  17  27
ENDBRANCH  16  23
ENDBRANCH   1  16
TORSDOF 6
ENDMDL
MODEL 4
REMARK VINA RESULT:      -7.1      3.646      9.291
REMARK  Name = 
REMARK  7 active torsions:
REMARK  status: ('A' for Active; 'I' for Inactive)
REMARK    1  A    between atoms: C_1  and  C_2
REMARK    2  A    between atoms: C_2  and  O_3
REMARK    3  A    between atoms: O_3  and  C_4
REMARK    4  A    between atoms: C_10  and  C_12
REMARK    5  A    between atoms: C_12  and  C_13
REMARK    6  A    between atoms: C_13  and  N_14
REMARK    7  A    between atoms: C_16  and  C_17
REMARK                            x       y       z     vdW  Elec       q    Type
REMARK                         _______ _______ _______ _____ _____    ______ ____
ROOT
ATOM      1  C   UNL     1       3.054   4.877  20.557  0.00  0.00    +0.000 C 
ENDROOT
BRANCH   1   2
ATOM      2  N   UNL     1       3.120   4.044  19.358  0.00  0.00    +0.000 N 
ATOM      3  N   UNL     1       4.027   4.433  18.399  0.00  0.00    +0.000 NA
ATOM      4  C   UNL     1       4.092   3.742  17.302  0.00  0.00    +0.000 A 
ATOM      5  C   UNL     1       3.253   2.556  17.022  0.00  0.00    +0.000 A 
ATOM      6  C   UNL     1       2.439   2.153  17.999  0.00  0.00    +0.000 A 
ATOM      7  C   UNL     1       2.363   2.883  19.279  0.00  0.00    +0.000 A 
ATOM      8  O   UNL     1       1.651   2.441  20.176  0.00  0.00    +0.000 OA
BRANCH   4   9
ATOM      9  C   UNL     1       5.090   4.131  16.264  0.00  0.00    +0.000 A 
ATOM     10  C   UNL     1       6.062   5.085  16.603  0.00  0.00    +0.000 A 
ATOM     11  C   UNL     1       7.013   5.490  15.664  0.00  0.00    +0.000 A 
ATOM     12  C   UNL     1       6.990   4.948  14.381  0.00  0.00    +0.000 A 
ATOM     13 CL   UNL     1       8.149   5.459  13.218  0.00  0.00    +0.000 Cl
ATOM     14  C   UNL     1       6.028   4.003  14.031  0.00  0.00    +0.000 A 
ATOM     15  C   UNL     1       5.073   3.596  14.969  0.00  0.00    +0.000 A 
ENDBRANCH   4   9
ENDBRANCH   1   2
BRANCH   1  16
ATOM     16  C   UNL     1       1.793   5.732  20.578  0.00  0.00    +0.000 C 
BRANCH  16  23
ATOM     17  C   UNL     1      -0.182  11.692  21.389  0.00  0.00    +0.000 C 
ATOM     18  O   UNL     1      -0.007  12.705  20.720  0.00  0.00    +0.000 OA
ATOM     19  N   UNL     1      -0.063  10.414  20.897  0.00  0.00    +0.000 N 
ATOM     20  C   UNL     1       0.386  10.205  19.519  0.00  0.00    +0.000 C 
ATOM     21  C   UNL     1       1.701   9.412  19.483  0.00  0.00    +0.000 C 
ATOM     22  N   UNL     1       1.595   8.179  20.276  0.00  0.00    +0.000 N 
ATOM     23  C   UNL     1       1.944   6.962  19.705  0.00  0.00    +0.000 C 
ATOM     24  O   UNL     1       2.347   6.881  18.545  0.00  0.00    +0.000 OA
ATOM     25  C   UNL     1       1.152   8.387  21.664  0.00  0.00    +0.000 C 
ATOM     26  C   UNL     1      -0.154   9.200  21.718  0.00  0.00    +0.000 C 
BRANCH  17  27
ATOM     27  O   UNL     1      -0.429  11.708  22.726  0.00  0.00    +0.000 OA
BRANCH  27  29
ATOM     28  C   UNL     1      -2.743  12.183  23.024  0.00  0.00    +0.000 C 
ATOM     29  C   UNL     1      -1.334  12.729  23.169  0.00  0.00    +0.000 C 
ENDBRANCH  27  29
ENDBRANCH  17  27
ENDBRANCH  16  23
ENDBRANCH   1  16
TORSDOF 6
ENDMDL
MODEL 5
REMARK VINA RESULT:      -7.0      5.040      8.357
REMARK  Name = 
REMARK  7 active torsions:
REMARK  status: ('A' for Active; 'I' for Inactive)
REMARK    1  A    between atoms: C_1  and  C_2
REMARK    2  A    between atoms: C_2  and  O_3
REMARK    3  A    between atoms: O_3  and  C_4
REMARK    4  A    between atoms: C_10  and  C_12
REMARK    5  A    between atoms: C_12  and  C_13
REMARK    6  A    between atoms: C_13  and  N_14
REMARK    7  A    between atoms: C_16  and  C_17
REMARK                            x       y       z     vdW  Elec       q    Type
REMARK                         _______ _______ _______ _____ _____    ______ ____
ROOT
ATOM      1  C   UNL     1      -0.104  12.662  20.692  0.00  0.00    +0.000 C 
ENDROOT
BRANCH   1   2
ATOM      2  N   UNL     1       0.051  11.270  21.112  0.00  0.00    +0.000 N 
ATOM      3  N   UNL     1       0.766  10.456  20.261  0.00  0.00    +0.000 NA
ATOM      4  C   UNL     1       0.896   9.204  20.579  0.00  0.00    +0.000 A 
ATOM      5  C   UNL     1       0.327   8.599  21.804  0.00  0.00    +0.000 A 
ATOM      6  C   UNL     1      -0.292   9.425  22.649  0.00  0.00    +0.000 A 
ATOM      7  C   UNL     1      -0.427  10.864  22.350  0.00  0.00    +0.000 A 
ATOM      8  O   UNL     1      -0.944  11.600  23.184  0.00  0.00    +0.000 OA
BRANCH   4   9
ATOM      9  C   UNL     1       1.691   8.314  19.685  0.00  0.00    +0.000 A 
ATOM     10  C   UNL     1       2.042   7.041  20.160  0.00  0.00    +0.000 A 
ATOM     11  C   UNL     1       2.794   6.172  19.366  0.00  0.00    +0.000 A 
ATOM     12  C   UNL     1       3.203   6.577  18.098  0.00  0.00    +0.000 A 
ATOM     13 CL   UNL     1       4.145   5.516  17.126  0.00  0.00    +0.000 Cl
ATOM     14  C   UNL     1       2.864   7.840  17.616  0.00  0.00    +0.000 A 
ATOM     15  C   UNL     1       2.112   8.713  18.410  0.00  0.00    +0.000 A 
ENDBRANCH   4   9
ENDBRANCH   1   2
BRANCH   1  16
ATOM     16  C   UNL     1       0.367  12.870  19.258  0.00  0.00    +0.000 C 
BRANCH  16  23
ATOM     17  C   UNL     1       5.489  16.589  19.399  0.00  0.00    +0.000 C 
ATOM     18  O   UNL     1       5.651  17.762  19.080  0.00  0.00    +0.000 OA
ATOM     19  N   UNL     1       4.269  16.037  19.713  0.00  0.00    +0.000 N 
ATOM     20  C   UNL     1       3.053  16.843  19.586  0.00  0.00    +0.000 C 
ATOM     21  C   UNL     1       2.092  16.230  18.557  0.00  0.00    +0.000 C 
ATOM     22  N   UNL     1       1.847  14.809  18.847  0.00  0.00    +0.000 N 
ATOM     23  C   UNL     1       0.542  14.342  18.941  0.00  0.00    +0.000 C 
ATOM     24  O   UNL     1      -0.426  15.086  18.785  0.00  0.00    +0.000 OA
ATOM     25  C   UNL     1       3.067  13.996  18.967  0.00  0.00    +0.000 C 
ATOM     26  C   UNL     1       4.051  14.611  19.978  0.00  0.00    +0.000 C 
BRANCH  17  27
ATOM     27  O   UNL     1       6.486  15.664  19.393  0.00  0.00    +0.000 OA
BRANCH  27  29
ATOM     28  C   UNL     1       6.905  14.094  17.652  0.00  0.00    +0.000 C 
ATOM     29  C   UNL     1       7.168  15.508  18.141  0.00  0.00    +0.000 C 
ENDBRANCH  27  29
ENDBRANCH  17  27
ENDBRANCH  16  23
ENDBRANCH   1  16
TORSDOF 6
ENDMDL
MODEL 6
REMARK VINA RESULT:      -7.0      3.364      9.272
REMARK  Name = 
REMARK  7 active torsions:
REMARK  status: ('A' for Active; 'I' for Inactive)
REMARK    1  A    between atoms: C_1  and  C_2
REMARK    2  A    between atoms: C_2  and  O_3
REMARK    3  A    between atoms: O_3  and  C_4
REMARK    4  A    between atoms: C_10  and  C_12
REMARK    5  A    between atoms: C_12  and  C_13
REMARK    6  A    between atoms: C_13  and  N_14
REMARK    7  A    between atoms: C_16  and  C_17
REMARK                            x       y       z     vdW  Elec       q    Type
REMARK                         _______ _______ _______ _____ _____    ______ ____
ROOT
ATOM      1  C   UNL     1       1.733   5.964  20.284  0.00  0.00    +0.000 C 
ENDROOT
BRANCH   1   2
ATOM      2  N   UNL     1       2.641   4.875  19.927  0.00  0.00    +0.000 N 
ATOM      3  N   UNL     1       3.455   5.097  18.838  0.00  0.00    +0.000 NA
ATOM      4  C   UNL     1       4.250   4.141  18.465  0.00  0.00    +0.000 A 
ATOM      5  C   UNL     1       4.340   2.829  19.143  0.00  0.00    +0.000 A 
ATOM      6  C   UNL     1       3.600   2.669  20.241  0.00  0.00    +0.000 A 
ATOM      7  C   UNL     1       2.712   3.743  20.727  0.00  0.00    +0.000 A 
ATOM      8  O   UNL     1       2.099   3.580  21.778  0.00  0.00    +0.000 OA
BRANCH   4   9
ATOM      9  C   UNL     1       5.160   4.374  17.307  0.00  0.00    +0.000 A 
ATOM     10  C   UNL     1       4.642   4.204  16.013  0.00  0.00    +0.000 A 
ATOM     11  C   UNL     1       5.455   4.400  14.895  0.00  0.00    +0.000 A 
ATOM     12  C   UNL     1       6.790   4.759  15.067  0.00  0.00    +0.000 A 
ATOM     13 CL   UNL     1       7.797   4.984  13.691  0.00  0.00    +0.000 Cl
ATOM     14  C   UNL     1       7.317   4.928  16.346  0.00  0.00    +0.000 A 
ATOM     15  C   UNL     1       6.505   4.731  17.468  0.00  0.00    +0.000 A 
ENDBRANCH   4   9
ENDBRANCH   1   2
BRANCH   1  16
ATOM     16  C   UNL     1       2.432   7.316  20.237  0.00  0.00    +0.000 C 
BRANCH  16  23
ATOM     17  C   UNL     1      -1.553  12.219  20.634  0.00  0.00    +0.000 C 
ATOM     18  O   UNL     1      -1.984  12.988  19.781  0.00  0.00    +0.000 OA
ATOM     19  N   UNL     1      -1.044  10.971  20.361  0.00  0.00    +0.000 N 
ATOM     20  C   UNL     1      -0.910  10.530  18.971  0.00  0.00    +0.000 C 
ATOM     21  C   UNL     1       0.560  10.254  18.621  0.00  0.00    +0.000 C 
ATOM     22  N   UNL     1       1.174   9.349  19.603  0.00  0.00    +0.000 N 
ATOM     23  C   UNL     1       1.839   8.210  19.167  0.00  0.00    +0.000 C 
ATOM     24  O   UNL     1       1.935   7.932  17.972  0.00  0.00    +0.000 OA
ATOM     25  C   UNL     1       1.048   9.794  21.000  0.00  0.00    +0.000 C 
ATOM     26  C   UNL     1      -0.419  10.097  21.359  0.00  0.00    +0.000 C 
BRANCH  17  27
ATOM     27  O   UNL     1      -1.441  12.543  21.950  0.00  0.00    +0.000 OA
BRANCH  27  29
ATOM     28  C   UNL     1      -0.330  14.559  22.562  0.00  0.00    +0.000 C 
ATOM     29  C   UNL     1      -1.676  13.924  22.262  0.00  0.00    +0.000 C 
ENDBRANCH  27  29
ENDBRANCH  17  27
ENDBRANCH  16  23
ENDBRANCH   1  16
TORSDOF 6
ENDMDL
MODEL 7
REMARK VINA RESULT:      -6.9      3.750      8.881
REMARK  Name = 
REMARK  7 active torsions:
REMARK  status: ('A' for Active; 'I' for Inactive)
REMARK    1  A    between atoms: C_1  and  C_2
REMARK    2  A    between atoms: C_2  and  O_3
REMARK    3  A    between atoms: O_3  and  C_4
REMARK    4  A    between atoms: C_10  and  C_12
REMARK    5  A    between atoms: C_12  and  C_13
REMARK    6  A    between atoms: C_13  and  N_14
REMARK    7  A    between atoms: C_16  and  C_17
REMARK                            x       y       z     vdW  Elec       q    Type
REMARK                         _______ _______ _______ _____ _____    ______ ____
ROOT
ATOM      1  C   UNL     1       2.099   6.481  20.618  0.00  0.00    +0.000 C 
ENDROOT
BRANCH   1   2
ATOM      2  N   UNL     1       2.212   5.437  19.600  0.00  0.00    +0.000 N 
ATOM      3  N   UNL     1       3.200   5.615  18.658  0.00  0.00    +0.000 NA
ATOM      4  C   UNL     1       3.311   4.731  17.714  0.00  0.00    +0.000 A 
ATOM      5  C   UNL     1       2.443   3.539  17.593  0.00  0.00    +0.000 A 
ATOM      6  C   UNL     1       1.547   3.349  18.562  0.00  0.00    +0.000 A 
ATOM      7  C   UNL     1       1.413   4.306  19.678  0.00  0.00    +0.000 A 
ATOM      8  O   UNL     1       0.622   4.059  20.583  0.00  0.00    +0.000 OA
BRANCH   4   9
ATOM      9  C   UNL     1       4.395   4.891  16.702  0.00  0.00    +0.000 A 
ATOM     10  C   UNL     1       4.957   3.732  16.144  0.00  0.00    +0.000 A 
ATOM     11  C   UNL     1       5.980   3.826  15.199  0.00  0.00    +0.000 A 
ATOM     12  C   UNL     1       6.449   5.080  14.814  0.00  0.00    +0.000 A 
ATOM     13 CL   UNL     1       7.722   5.198  13.663  0.00  0.00    +0.000 Cl
ATOM     14  C   UNL     1       5.902   6.239  15.363  0.00  0.00    +0.000 A 
ATOM     15  C   UNL     1       4.877   6.146  16.311  0.00  0.00    +0.000 A 
ENDBRANCH   4   9
ENDBRANCH   1   2
BRANCH   1  16
ATOM     16  C   UNL     1       1.836   7.846  19.996  0.00  0.00    +0.000 C 
BRANCH  16  23
ATOM     17  C   UNL     1       0.120  13.938  19.842  0.00  0.00    +0.000 C 
ATOM     18  O   UNL     1      -0.794  14.540  20.395  0.00  0.00    +0.000 OA
ATOM     19  N   UNL     1       0.629  12.737  20.278  0.00  0.00    +0.000 N 
ATOM     20  C   UNL     1       0.010  12.058  21.419  0.00  0.00    +0.000 C 
ATOM     21  C   UNL     1      -0.543  10.686  21.008  0.00  0.00    +0.000 C 
ATOM     22  N   UNL     1       0.482   9.891  20.316  0.00  0.00    +0.000 N 
ATOM     23  C   UNL     1       0.756   8.599  20.747  0.00  0.00    +0.000 C 
ATOM     24  O   UNL     1       0.161   8.091  21.697  0.00  0.00    +0.000 OA
ATOM     25  C   UNL     1       1.099  10.567  19.164  0.00  0.00    +0.000 C 
ATOM     26  C   UNL     1       1.638  11.955  19.555  0.00  0.00    +0.000 C 
BRANCH  17  27
ATOM     27  O   UNL     1       0.685  14.341  18.672  0.00  0.00    +0.000 OA
BRANCH  27  29
ATOM     28  C   UNL     1       2.660  15.634  18.989  0.00  0.00    +0.000 C 
ATOM     29  C   UNL     1       1.178  15.688  18.662  0.00  0.00    +0.000 C 
ENDBRANCH  27  29
ENDBRANCH  17  27
ENDBRANCH  16  23
ENDBRANCH   1  16
TORSDOF 6
ENDMDL
MODEL 8
REMARK VINA RESULT:      -6.9      3.477      4.706
REMARK  Name = 
REMARK  7 active torsions:
REMARK  status: ('A' for Active; 'I' for Inactive)
REMARK    1  A    between atoms: C_1  and  C_2
REMARK    2  A    between atoms: C_2  and  O_3
REMARK    3  A    between atoms: O_3  and  C_4
REMARK    4  A    between atoms: C_10  and  C_12
REMARK    5  A    between atoms: C_12  and  C_13
REMARK    6  A    between atoms: C_13  and  N_14
REMARK    7  A    between atoms: C_16  and  C_17
REMARK                            x       y       z     vdW  Elec       q    Type
REMARK                         _______ _______ _______ _____ _____    ______ ____
ROOT
ATOM      1  C   UNL     1      -1.394  10.108  17.811  0.00  0.00    +0.000 C 
ENDROOT
BRANCH   1   2
ATOM      2  N   UNL     1      -2.697  10.756  17.672  0.00  0.00    +0.000 N 
ATOM      3  N   UNL     1      -3.295  11.171  18.841  0.00  0.00    +0.000 NA
ATOM      4  C   UNL     1      -4.470  11.718  18.765  0.00  0.00    +0.000 A 
ATOM      5  C   UNL     1      -5.203  11.929  17.497  0.00  0.00    +0.000 A 
ATOM      6  C   UNL     1      -4.569  11.591  16.374  0.00  0.00    +0.000 A 
ATOM      7  C   UNL     1      -3.215  11.004  16.409  0.00  0.00    +0.000 A 
ATOM      8  O   UNL     1      -2.640  10.769  15.350  0.00  0.00    +0.000 OA
BRANCH   4   9
ATOM      9  C   UNL     1      -5.121  12.201  20.017  0.00  0.00    +0.000 A 
ATOM     10  C   UNL     1      -6.435  11.786  20.283  0.00  0.00    +0.000 A 
ATOM     11  C   UNL     1      -7.094  12.216  21.437  0.00  0.00    +0.000 A 
ATOM     12  C   UNL     1      -6.442  13.069  22.325  0.00  0.00    +0.000 A 
ATOM     13 CL   UNL     1      -7.257  13.616  23.737  0.00  0.00    +0.000 Cl
ATOM     14  C   UNL     1      -5.138  13.492  22.070  0.00  0.00    +0.000 A 
ATOM     15  C   UNL     1      -4.477  13.063  20.914  0.00  0.00    +0.000 A 
ENDBRANCH   4   9
ENDBRANCH   1   2
BRANCH   1  16
ATOM     16  C   UNL     1      -0.517  10.825  18.829  0.00  0.00    +0.000 C 
BRANCH  16  23
ATOM     17  C   UNL     1       3.950   6.345  18.586  0.00  0.00    +0.000 C 
ATOM     18  O   UNL     1       4.418   5.616  19.453  0.00  0.00    +0.000 OA
ATOM     19  N   UNL     1       2.723   6.960  18.675  0.00  0.00    +0.000 N 
ATOM     20  C   UNL     1       1.934   6.832  19.902  0.00  0.00    +0.000 C 
ATOM     21  C   UNL     1       1.701   8.205  20.551  0.00  0.00    +0.000 C 
ATOM     22  N   UNL     1       1.152   9.160  19.578  0.00  0.00    +0.000 N 
ATOM     23  C   UNL     1      -0.001   9.870  19.887  0.00  0.00    +0.000 C 
ATOM     24  O   UNL     1      -0.583   9.726  20.962  0.00  0.00    +0.000 OA
ATOM     25  C   UNL     1       1.947   9.297  18.347  0.00  0.00    +0.000 C 
ATOM     26  C   UNL     1       2.210   7.926  17.697  0.00  0.00    +0.000 C 
BRANCH  17  27
ATOM     27  O   UNL     1       4.628   6.710  17.464  0.00  0.00    +0.000 OA
BRANCH  27  29
ATOM     28  C   UNL     1       7.002   6.739  17.290  0.00  0.00    +0.000 C 
ATOM     29  C   UNL     1       5.756   5.886  17.136  0.00  0.00    +0.000 C 
ENDBRANCH  27  29
ENDBRANCH  17  27
ENDBRANCH  16  23
ENDBRANCH   1  16
TORSDOF 6
ENDMDL
MODEL 9
REMARK VINA RESULT:      -6.8      3.910      9.193
REMARK  Name = 
REMARK  7 active torsions:
REMARK  status: ('A' for Active; 'I' for Inactive)
REMARK    1  A    between atoms: C_1  and  C_2
REMARK    2  A    between atoms: C_2  and  O_3
REMARK    3  A    between atoms: O_3  and  C_4
REMARK    4  A    between atoms: C_10  and  C_12
REMARK    5  A    between atoms: C_12  and  C_13
REMARK    6  A    between atoms: C_13  and  N_14
REMARK    7  A    between atoms: C_16  and  C_17
REMARK                            x       y       z     vdW  Elec       q    Type
REMARK                         _______ _______ _______ _____ _____    ______ ____
ROOT
ATOM      1  C   UNL     1       1.394  10.014  19.384  0.00  0.00    +0.000 C 
ENDROOT
BRANCH   1   2
ATOM      2  N   UNL     1       1.710   8.603  19.598  0.00  0.00    +0.000 N 
ATOM      3  N   UNL     1       2.467   7.997  18.620  0.00  0.00    +0.000 NA
ATOM      4  C   UNL     1       2.739   6.734  18.753  0.00  0.00    +0.000 A 
ATOM      5  C   UNL     1       2.290   5.908  19.895  0.00  0.00    +0.000 A 
ATOM      6  C   UNL     1       1.626   6.537  20.866  0.00  0.00    +0.000 A 
ATOM      7  C   UNL     1       1.331   7.980  20.779  0.00  0.00    +0.000 A 
ATOM      8  O   UNL     1       0.778   8.534  21.724  0.00  0.00    +0.000 OA
BRANCH   4   9
ATOM      9  C   UNL     1       3.582   6.067  17.719  0.00  0.00    +0.000 A 
ATOM     10  C   UNL     1       3.502   4.671  17.599  0.00  0.00    +0.000 A 
ATOM     11  C   UNL     1       4.277   3.997  16.653  0.00  0.00    +0.000 A 
ATOM     12  C   UNL     1       5.140   4.716  15.829  0.00  0.00    +0.000 A 
ATOM     13 CL   UNL     1       6.109   3.887  14.676  0.00  0.00    +0.000 Cl
ATOM     14  C   UNL     1       5.231   6.103  15.941  0.00  0.00    +0.000 A 
ATOM     15  C   UNL     1       4.456   6.780  16.889  0.00  0.00    +0.000 A 
ENDBRANCH   4   9
ENDBRANCH   1   2
BRANCH   1  16
ATOM     16  C   UNL     1      -0.071  10.212  19.017  0.00  0.00    +0.000 C 
BRANCH  16  23
ATOM     17  C   UNL     1      -0.872  16.492  19.081  0.00  0.00    +0.000 C 
ATOM     18  O   UNL     1      -1.495  17.225  19.842  0.00  0.00    +0.000 OA
ATOM     19  N   UNL     1      -0.437  15.230  19.410  0.00  0.00    +0.000 N 
ATOM     20  C   UNL     1      -0.795  14.653  20.708  0.00  0.00    +0.000 C 
ATOM     21  C   UNL     1      -1.632  13.378  20.531  0.00  0.00    +0.000 C 
ATOM     22  N   UNL     1      -0.971  12.437  19.615  0.00  0.00    +0.000 N 
ATOM     23  C   UNL     1      -0.773  11.120  20.008  0.00  0.00    +0.000 C 
ATOM     24  O   UNL     1      -1.138  10.709  21.109  0.00  0.00    +0.000 OA
ATOM     25  C   UNL     1      -0.618  13.011  18.307  0.00  0.00    +0.000 C 
ATOM     26  C   UNL     1       0.202  14.304  18.467  0.00  0.00    +0.000 C 
BRANCH  17  27
ATOM     27  O   UNL     1      -0.613  16.804  17.783  0.00  0.00    +0.000 OA
BRANCH  27  29
ATOM     28  C   UNL     1       1.492  17.877  17.487  0.00  0.00    +0.000 C 
ATOM     29  C   UNL     1      -0.010  18.088  17.571  0.00  0.00    +0.000 C 
ENDBRANCH  27  29
ENDBRANCH  17  27
ENDBRANCH  16  23
ENDBRANCH   1  16
TORSDOF 6
ENDMDL
