MODEL 1
REMARK VINA RESULT:      -8.6      0.000      0.000
REMARK  Name = 
REMARK  4 active torsions:
REMARK  status: ('A' for Active; 'I' for Inactive)
REMARK    1  A    between atoms: C_3  and  C_4
REMARK    2  A    between atoms: N_6  and  C_7
REMARK    3  A    between atoms: C_10  and  C_11
REMARK    4  A    between atoms: C_22  and  C_23
REMARK                            x       y       z     vdW  Elec       q    Type
REMARK                         _______ _______ _______ _____ _____    ______ ____
ROOT
ATOM      1  C   UNL     1       1.441   7.826  20.480  0.00  0.00    +0.000 A 
ATOM      2  C   UNL     1       2.132   7.926  19.296  0.00  0.00    +0.000 A 
ATOM      3  N   UNL     1       2.669   6.678  19.102  0.00  0.00    +0.000 N 
ATOM      4  N   UNL     1       2.297   5.857  20.113  0.00  0.00    +0.000 NA
ATOM      5  N   UNL     1       1.544   6.550  20.957  0.00  0.00    +0.000 NA
ENDROOT
BRANCH   1   8
ATOM      6  C   UNL     1      -0.524  10.973  20.971  0.00  0.00    +0.000 A 
ATOM      7  C   UNL     1       0.218   9.957  20.366  0.00  0.00    +0.000 A 
ATOM      8  C   UNL     1       0.698   8.882  21.128  0.00  0.00    +0.000 A 
ATOM      9  C   UNL     1       0.438   8.849  22.507  0.00  0.00    +0.000 A 
ATOM     10  C   UNL     1      -0.298   9.866  23.115  0.00  0.00    +0.000 A 
ATOM     11  C   UNL     1      -0.792  10.921  22.342  0.00  0.00    +0.000 A 
BRANCH  11  12
ATOM     12  C   UNL     1      -1.609  11.976  22.976  0.00  0.00    +0.000 C 
ATOM     13  N   UNL     1      -2.835  11.753  23.369  0.00  0.00    +0.000 NA
ATOM     14  C   UNL     1      -3.307  13.057  23.906  0.00  0.00    +0.000 C 
ATOM     15  C   UNL     1      -2.183  14.072  23.684  0.00  0.00    +0.000 C 
ATOM     16  N   UNL     1      -1.122  13.247  23.158  0.00  0.00    +0.000 N 
ATOM     17  H   UNL     1      -0.602  13.628  22.374  0.00  0.00    +0.000 HD
ENDBRANCH  11  12
ENDBRANCH   1   8
BRANCH   3  18
ATOM     18  C   UNL     1       3.497   6.236  18.039  0.00  0.00    +0.000 A 
ATOM     19  C   UNL     1       4.238   7.152  17.281  0.00  0.00    +0.000 A 
ATOM     20  C   UNL     1       5.045   6.698  16.236  0.00  0.00    +0.000 A 
ATOM     21  C   UNL     1       5.115   5.333  15.936  0.00  0.00    +0.000 A 
ATOM     22  C   UNL     1       4.369   4.419  16.689  0.00  0.00    +0.000 A 
ATOM     23  C   UNL     1       3.571   4.868  17.744  0.00  0.00    +0.000 A 
BRANCH  21  24
ATOM     24  C   UNL     1       5.987   4.885  14.821  0.00  0.00    +0.000 C 
ATOM     25  N   UNL     1       5.549   4.041  13.915  0.00  0.00    +0.000 NA
ATOM     26  C   UNL     1       6.696   3.858  12.985  0.00  0.00    +0.000 C 
ATOM     27  C   UNL     1       7.684   4.980  13.308  0.00  0.00    +0.000 C 
ATOM     28  N   UNL     1       7.273   5.336  14.643  0.00  0.00    +0.000 N 
ATOM     29  H   UNL     1       7.498   6.274  14.947  0.00  0.00    +0.000 HD
ENDBRANCH  21  24
ENDBRANCH   3  18
TORSDOF 4
ENDMDL
MODEL 2
REMARK VINA RESULT:      -8.5      0.242      1.214
REMARK  Name = 
REMARK  4 active torsions:
REMARK  status: ('A' for Active; 'I' for Inactive)
REMARK    1  A    between atoms: C_3  and  C_4
REMARK    2  A    between atoms: N_6  and  C_7
REMARK    3  A    between atoms: C_10  and  C_11
REMARK    4  A    between atoms: C_22  and  C_23
REMARK                            x       y       z     vdW  Elec       q    Type
REMARK                         _______ _______ _______ _____ _____    ______ ____
ROOT
ATOM      1  C   UNL     1       1.573   7.845  20.340  0.00  0.00    +0.000 A 
ATOM      2  C   UNL     1       2.227   7.919  19.134  0.00  0.00    +0.000 A 
ATOM      3  N   UNL     1       2.794   6.680  18.971  0.00  0.00    +0.000 N 
ATOM      4  N   UNL     1       2.473   5.888  20.022  0.00  0.00    +0.000 NA
ATOM      5  N   UNL     1       1.725   6.592  20.861  0.00  0.00    +0.000 NA
ENDROOT
BRANCH   1   8
ATOM      6  C   UNL     1      -0.164   9.860  22.972  0.00  0.00    +0.000 A 
ATOM      7  C   UNL     1       0.541   8.833  22.343  0.00  0.00    +0.000 A 
ATOM      8  C   UNL     1       0.818   8.904  20.970  0.00  0.00    +0.000 A 
ATOM      9  C   UNL     1       0.365  10.011  20.235  0.00  0.00    +0.000 A 
ATOM     10  C   UNL     1      -0.345  11.035  20.861  0.00  0.00    +0.000 A 
ATOM     11  C   UNL     1      -0.596  10.966  22.235  0.00  0.00    +0.000 A 
BRANCH  11  12
ATOM     12  C   UNL     1      -1.310  12.071  22.908  0.00  0.00    +0.000 C 
ATOM     13  N   UNL     1      -0.697  13.169  23.263  0.00  0.00    +0.000 NA
ATOM     14  C   UNL     1      -1.741  13.991  23.930  0.00  0.00    +0.000 C 
ATOM     15  C   UNL     1      -3.022  13.154  23.966  0.00  0.00    +0.000 C 
ATOM     16  N   UNL     1      -2.645  11.982  23.211  0.00  0.00    +0.000 N 
ATOM     17  H   UNL     1      -2.945  11.089  23.589  0.00  0.00    +0.000 HD
ENDBRANCH  11  12
ENDBRANCH   1   8
BRANCH   3  18
ATOM     18  C   UNL     1       3.604   6.221  17.902  0.00  0.00    +0.000 A 
ATOM     19  C   UNL     1       4.369   7.120  17.147  0.00  0.00    +0.000 A 
ATOM     20  C   UNL     1       5.158   6.649  16.095  0.00  0.00    +0.000 A 
ATOM     21  C   UNL     1       5.186   5.285  15.785  0.00  0.00    +0.000 A 
ATOM     22  C   UNL     1       4.417   4.389  16.536  0.00  0.00    +0.000 A 
ATOM     23  C   UNL     1       3.636   4.854  17.597  0.00  0.00    +0.000 A 
BRANCH  21  24
ATOM     24  C   UNL     1       6.040   4.819  14.664  0.00  0.00    +0.000 C 
ATOM     25  N   UNL     1       5.587   3.962  13.778  0.00  0.00    +0.000 NA
ATOM     26  C   UNL     1       6.719   3.764  12.833  0.00  0.00    +0.000 C 
ATOM     27  C   UNL     1       7.713   4.889  13.123  0.00  0.00    +0.000 C 
ATOM     28  N   UNL     1       7.324   5.265  14.459  0.00  0.00    +0.000 N 
ATOM     29  H   UNL     1       7.555   6.208  14.746  0.00  0.00    +0.000 HD
ENDBRANCH  21  24
ENDBRANCH   3  18
TORSDOF 4
ENDMDL
MODEL 3
REMARK VINA RESULT:      -8.5      0.398     10.902
REMARK  Name = 
REMARK  4 active torsions:
REMARK  status: ('A' for Active; 'I' for Inactive)
REMARK    1  A    between atoms: C_3  and  C_4
REMARK    2  A    between atoms: N_6  and  C_7
REMARK    3  A    between atoms: C_10  and  C_11
REMARK    4  A    between atoms: C_22  and  C_23
REMARK                            x       y       z     vdW  Elec       q    Type
REMARK                         _______ _______ _______ _____ _____    ______ ____
ROOT
ATOM      1  C   UNL     1       2.634   6.716  19.166  0.00  0.00    +0.000 A 
ATOM      2  C   UNL     1       2.150   7.988  19.356  0.00  0.00    +0.000 A 
ATOM      3  N   UNL     1       1.378   7.900  20.487  0.00  0.00    +0.000 N 
ATOM      4  N   UNL     1       1.417   6.635  20.970  0.00  0.00    +0.000 NA
ATOM      5  N   UNL     1       2.184   5.907  20.170  0.00  0.00    +0.000 NA
ENDROOT
BRANCH   1   8
ATOM      6  C   UNL     1       4.454   4.476  16.783  0.00  0.00    +0.000 A 
ATOM      7  C   UNL     1       3.642   4.912  17.832  0.00  0.00    +0.000 A 
ATOM      8  C   UNL     1       3.500   6.282  18.094  0.00  0.00    +0.000 A 
ATOM      9  C   UNL     1       4.195   7.207  17.300  0.00  0.00    +0.000 A 
ATOM     10  C   UNL     1       5.012   6.773  16.256  0.00  0.00    +0.000 A 
ATOM     11  C   UNL     1       5.129   5.406  15.988  0.00  0.00    +0.000 A 
BRANCH  11  12
ATOM     12  C   UNL     1       5.958   4.947  14.855  0.00  0.00    +0.000 C 
ATOM     13  N   UNL     1       7.153   5.430  14.638  0.00  0.00    +0.000 NA
ATOM     14  C   UNL     1       7.622   4.746  13.403  0.00  0.00    +0.000 C 
ATOM     15  C   UNL     1       6.475   3.859  12.913  0.00  0.00    +0.000 C 
ATOM     16  N   UNL     1       5.498   4.009  13.965  0.00  0.00    +0.000 N 
ATOM     17  H   UNL     1       4.534   4.127  13.670  0.00  0.00    +0.000 HD
ENDBRANCH  11  12
ENDBRANCH   1   8
BRANCH   3  18
ATOM     18  C   UNL     1       0.624   8.923  21.115  0.00  0.00    +0.000 A 
ATOM     19  C   UNL     1       0.331   8.858  22.484  0.00  0.00    +0.000 A 
ATOM     20  C   UNL     1      -0.416   9.874  23.084  0.00  0.00    +0.000 A 
ATOM     21  C   UNL     1      -0.881  10.954  22.326  0.00  0.00    +0.000 A 
ATOM     22  C   UNL     1      -0.594  11.014  20.957  0.00  0.00    +0.000 A 
ATOM     23  C   UNL     1       0.165  10.007  20.356  0.00  0.00    +0.000 A 
BRANCH  21  24
ATOM     24  C   UNL     1      -1.669  12.019  22.997  0.00  0.00    +0.000 C 
ATOM     25  N   UNL     1      -1.188  13.232  23.137  0.00  0.00    +0.000 NA
ATOM     26  C   UNL     1      -2.264  13.986  23.834  0.00  0.00    +0.000 C 
ATOM     27  C   UNL     1      -3.520  13.119  23.734  0.00  0.00    +0.000 C 
ATOM     28  N   UNL     1      -2.942  11.823  23.478  0.00  0.00    +0.000 N 
ATOM     29  H   UNL     1      -3.534  11.152  23.007  0.00  0.00    +0.000 HD
ENDBRANCH  21  24
ENDBRANCH   3  18
TORSDOF 4
ENDMDL
MODEL 4
REMARK VINA RESULT:      -8.5      0.130      1.324
REMARK  Name = 
REMARK  4 active torsions:
REMARK  status: ('A' for Active; 'I' for Inactive)
REMARK    1  A    between atoms: C_3  and  C_4
REMARK    2  A    between atoms: N_6  and  C_7
REMARK    3  A    between atoms: C_10  and  C_11
REMARK    4  A    between atoms: C_22  and  C_23
REMARK                            x       y       z     vdW  Elec       q    Type
REMARK                         _______ _______ _______ _____ _____    ______ ____
ROOT
ATOM      1  C   UNL     1       1.460   7.813  20.369  0.00  0.00    +0.000 A 
ATOM      2  C   UNL     1       2.111   7.895  19.161  0.00  0.00    +0.000 A 
ATOM      3  N   UNL     1       2.717   6.673  19.010  0.00  0.00    +0.000 N 
ATOM      4  N   UNL     1       2.421   5.882  20.070  0.00  0.00    +0.000 NA
ATOM      5  N   UNL     1       1.652   6.570  20.902  0.00  0.00    +0.000 NA
ENDROOT
BRANCH   1   8
ATOM      6  C   UNL     1      -0.361   9.785  22.977  0.00  0.00    +0.000 A 
ATOM      7  C   UNL     1       0.376   8.775  22.357  0.00  0.00    +0.000 A 
ATOM      8  C   UNL     1       0.673   8.854  20.989  0.00  0.00    +0.000 A 
ATOM      9  C   UNL     1       0.208   9.953  20.249  0.00  0.00    +0.000 A 
ATOM     10  C   UNL     1      -0.534  10.960  20.865  0.00  0.00    +0.000 A 
ATOM     11  C   UNL     1      -0.805  10.883  22.234  0.00  0.00    +0.000 A 
BRANCH  11  12
ATOM     12  C   UNL     1      -1.553  11.971  22.898  0.00  0.00    +0.000 C 
ATOM     13  N   UNL     1      -2.757  11.788  23.371  0.00  0.00    +0.000 NA
ATOM     14  C   UNL     1      -3.160  13.114  23.912  0.00  0.00    +0.000 C 
ATOM     15  C   UNL     1      -2.026  14.093  23.601  0.00  0.00    +0.000 C 
ATOM     16  N   UNL     1      -1.022  13.230  23.025  0.00  0.00    +0.000 N 
ATOM     17  H   UNL     1      -0.543  13.584  22.203  0.00  0.00    +0.000 HD
ENDBRANCH  11  12
ENDBRANCH   1   8
BRANCH   3  18
ATOM     18  C   UNL     1       3.540   6.229  17.945  0.00  0.00    +0.000 A 
ATOM     19  C   UNL     1       3.674   4.863  17.666  0.00  0.00    +0.000 A 
ATOM     20  C   UNL     1       4.493   4.445  16.615  0.00  0.00    +0.000 A 
ATOM     21  C   UNL     1       5.188   5.381  15.842  0.00  0.00    +0.000 A 
ATOM     22  C   UNL     1       5.059   6.746  16.126  0.00  0.00    +0.000 A 
ATOM     23  C   UNL     1       4.230   7.169  17.168  0.00  0.00    +0.000 A 
BRANCH  21  24
ATOM     24  C   UNL     1       6.046   4.902  14.729  0.00  0.00    +0.000 C 
ATOM     25  N   UNL     1       5.602   4.025  13.859  0.00  0.00    +0.000 NA
ATOM     26  C   UNL     1       6.735   3.821  12.918  0.00  0.00    +0.000 C 
ATOM     27  C   UNL     1       7.720   4.959  13.188  0.00  0.00    +0.000 C 
ATOM     28  N   UNL     1       7.326   5.356  14.517  0.00  0.00    +0.000 N 
ATOM     29  H   UNL     1       7.548   6.306  14.786  0.00  0.00    +0.000 HD
ENDBRANCH  21  24
ENDBRANCH   3  18
TORSDOF 4
ENDMDL
MODEL 5
REMARK VINA RESULT:      -8.4      0.398     10.852
REMARK  Name = 
REMARK  4 active torsions:
REMARK  status: ('A' for Active; 'I' for Inactive)
REMARK    1  A    between atoms: C_3  and  C_4
REMARK    2  A    between atoms: N_6  and  C_7
REMARK    3  A    between atoms: C_10  and  C_11
REMARK    4  A    between atoms: C_22  and  C_23
REMARK                            x       y       z     vdW  Elec       q    Type
REMARK                         _______ _______ _______ _____ _____    ______ ____
ROOT
ATOM      1  C   UNL     1       2.626   6.690  19.098  0.00  0.00    +0.000 A 
ATOM      2  C   UNL     1       2.112   7.954  19.267  0.00  0.00    +0.000 A 
ATOM      3  N   UNL     1       1.399   7.884  20.439  0.00  0.00    +0.000 N 
ATOM      4  N   UNL     1       1.502   6.638  20.963  0.00  0.00    +0.000 NA
ATOM      5  N   UNL     1       2.252   5.905  20.151  0.00  0.00    +0.000 NA
ENDROOT
BRANCH   1   8
ATOM      6  C   UNL     1       4.913   6.777  16.137  0.00  0.00    +0.000 A 
ATOM      7  C   UNL     1       4.091   7.190  17.187  0.00  0.00    +0.000 A 
ATOM      8  C   UNL     1       3.452   6.244  17.999  0.00  0.00    +0.000 A 
ATOM      9  C   UNL     1       3.635   4.877  17.735  0.00  0.00    +0.000 A 
ATOM     10  C   UNL     1       4.450   4.462  16.683  0.00  0.00    +0.000 A 
ATOM     11  C   UNL     1       5.102   5.413  15.893  0.00  0.00    +0.000 A 
BRANCH  11  12
ATOM     12  C   UNL     1       6.002   4.974  14.806  0.00  0.00    +0.000 C 
ATOM     13  N   UNL     1       7.184   5.506  14.636  0.00  0.00    +0.000 NA
ATOM     14  C   UNL     1       7.739   4.825  13.435  0.00  0.00    +0.000 C 
ATOM     15  C   UNL     1       6.655   3.882  12.908  0.00  0.00    +0.000 C 
ATOM     16  N   UNL     1       5.625   4.004  13.912  0.00  0.00    +0.000 N 
ATOM     17  H   UNL     1       4.671   4.076  13.571  0.00  0.00    +0.000 HD
ENDBRANCH  11  12
ENDBRANCH   1   8
BRANCH   3  18
ATOM     18  C   UNL     1       0.645   8.906  21.068  0.00  0.00    +0.000 A 
ATOM     19  C   UNL     1       0.235  10.036  20.350  0.00  0.00    +0.000 A 
ATOM     20  C   UNL     1      -0.505  11.035  20.988  0.00  0.00    +0.000 A 
ATOM     21  C   UNL     1      -0.834  10.917  22.343  0.00  0.00    +0.000 A 
ATOM     22  C   UNL     1      -0.417   9.790  23.061  0.00  0.00    +0.000 A 
ATOM     23  C   UNL     1       0.311   8.783  22.423  0.00  0.00    +0.000 A 
BRANCH  21  24
ATOM     24  C   UNL     1      -1.626  11.994  22.988  0.00  0.00    +0.000 C 
ATOM     25  N   UNL     1      -1.150  13.213  23.096  0.00  0.00    +0.000 NA
ATOM     26  C   UNL     1      -2.229  13.979  23.776  0.00  0.00    +0.000 C 
ATOM     27  C   UNL     1      -3.480  13.103  23.703  0.00  0.00    +0.000 C 
ATOM     28  N   UNL     1      -2.896  11.804  23.479  0.00  0.00    +0.000 N 
ATOM     29  H   UNL     1      -3.486  11.118  23.027  0.00  0.00    +0.000 HD
ENDBRANCH  21  24
ENDBRANCH   3  18
TORSDOF 4
ENDMDL
MODEL 6
REMARK VINA RESULT:      -8.4      0.415     10.860
REMARK  Name = 
REMARK  4 active torsions:
REMARK  status: ('A' for Active; 'I' for Inactive)
REMARK    1  A    between atoms: C_3  and  C_4
REMARK    2  A    between atoms: N_6  and  C_7
REMARK    3  A    between atoms: C_10  and  C_11
REMARK    4  A    between atoms: C_22  and  C_23
REMARK                            x       y       z     vdW  Elec       q    Type
REMARK                         _______ _______ _______ _____ _____    ______ ____
ROOT
ATOM      1  C   UNL     1       2.714   6.685  19.037  0.00  0.00    +0.000 A 
ATOM      2  C   UNL     1       2.230   7.958  19.223  0.00  0.00    +0.000 A 
ATOM      3  N   UNL     1       1.453   7.872  20.351  0.00  0.00    +0.000 N 
ATOM      4  N   UNL     1       1.489   6.608  20.836  0.00  0.00    +0.000 NA
ATOM      5  N   UNL     1       2.259   5.878  20.040  0.00  0.00    +0.000 NA
ENDROOT
BRANCH   1   8
ATOM      6  C   UNL     1       4.382   4.473  16.521  0.00  0.00    +0.000 A 
ATOM      7  C   UNL     1       3.567   4.906  17.568  0.00  0.00    +0.000 A 
ATOM      8  C   UNL     1       3.585   6.249  17.970  0.00  0.00    +0.000 A 
ATOM      9  C   UNL     1       4.444   7.148  17.318  0.00  0.00    +0.000 A 
ATOM     10  C   UNL     1       5.265   6.715  16.276  0.00  0.00    +0.000 A 
ATOM     11  C   UNL     1       5.221   5.379  15.868  0.00  0.00    +0.000 A 
BRANCH  11  12
ATOM     12  C   UNL     1       6.057   4.929  14.735  0.00  0.00    +0.000 C 
ATOM     13  N   UNL     1       7.213   5.479  14.473  0.00  0.00    +0.000 NA
ATOM     14  C   UNL     1       7.702   4.778  13.256  0.00  0.00    +0.000 C 
ATOM     15  C   UNL     1       6.606   3.800  12.826  0.00  0.00    +0.000 C 
ATOM     16  N   UNL     1       5.642   3.928  13.893  0.00  0.00    +0.000 N 
ATOM     17  H   UNL     1       4.667   3.972  13.615  0.00  0.00    +0.000 HD
ENDBRANCH  11  12
ENDBRANCH   1   8
BRANCH   3  18
ATOM     18  C   UNL     1       0.696   8.897  20.973  0.00  0.00    +0.000 A 
ATOM     19  C   UNL     1       0.157   9.947  20.219  0.00  0.00    +0.000 A 
ATOM     20  C   UNL     1      -0.582  10.949  20.851  0.00  0.00    +0.000 A 
ATOM     21  C   UNL     1      -0.783  10.916  22.235  0.00  0.00    +0.000 A 
ATOM     22  C   UNL     1      -0.238   9.870  22.989  0.00  0.00    +0.000 A 
ATOM     23  C   UNL     1       0.491   8.858  22.359  0.00  0.00    +0.000 A 
BRANCH  21  24
ATOM     24  C   UNL     1      -1.578  11.995  22.874  0.00  0.00    +0.000 C 
ATOM     25  N   UNL     1      -2.759  11.750  23.394  0.00  0.00    +0.000 NA
ATOM     26  C   UNL     1      -3.211  13.060  23.933  0.00  0.00    +0.000 C 
ATOM     27  C   UNL     1      -1.975  13.960  23.950  0.00  0.00    +0.000 C 
ATOM     28  N   UNL     1      -1.131  13.289  22.994  0.00  0.00    +0.000 N 
ATOM     29  H   UNL     1      -0.135  13.445  23.085  0.00  0.00    +0.000 HD
ENDBRANCH  21  24
ENDBRANCH   3  18
TORSDOF 4
ENDMDL
MODEL 7
REMARK VINA RESULT:      -8.3      0.547     10.887
REMARK  Name = 
REMARK  4 active torsions:
REMARK  status: ('A' for Active; 'I' for Inactive)
REMARK    1  A    between atoms: C_3  and  C_4
REMARK    2  A    between atoms: N_6  and  C_7
REMARK    3  A    between atoms: C_10  and  C_11
REMARK    4  A    between atoms: C_22  and  C_23
REMARK                            x       y       z     vdW  Elec       q    Type
REMARK                         _______ _______ _______ _____ _____    ______ ____
ROOT
ATOM      1  C   UNL     1       2.847   6.519  18.865  0.00  0.00    +0.000 A 
ATOM      2  C   UNL     1       2.393   7.796  19.090  0.00  0.00    +0.000 A 
ATOM      3  N   UNL     1       1.665   7.706  20.250  0.00  0.00    +0.000 N 
ATOM      4  N   UNL     1       1.701   6.434  20.715  0.00  0.00    +0.000 NA
ATOM      5  N   UNL     1       2.423   5.704  19.876  0.00  0.00    +0.000 NA
ENDROOT
BRANCH   1   8
ATOM      6  C   UNL     1       5.209   6.626  15.964  0.00  0.00    +0.000 A 
ATOM      7  C   UNL     1       4.396   7.030  17.024  0.00  0.00    +0.000 A 
ATOM      8  C   UNL     1       3.662   6.085  17.754  0.00  0.00    +0.000 A 
ATOM      9  C   UNL     1       3.742   4.730  17.395  0.00  0.00    +0.000 A 
ATOM     10  C   UNL     1       4.548   4.324  16.332  0.00  0.00    +0.000 A 
ATOM     11  C   UNL     1       5.294   5.272  15.626  0.00  0.00    +0.000 A 
BRANCH  11  12
ATOM     12  C   UNL     1       6.184   4.838  14.528  0.00  0.00    +0.000 C 
ATOM     13  N   UNL     1       7.332   5.420  14.305  0.00  0.00    +0.000 NA
ATOM     14  C   UNL     1       7.886   4.724  13.112  0.00  0.00    +0.000 C 
ATOM     15  C   UNL     1       6.835   3.712  12.650  0.00  0.00    +0.000 C 
ATOM     16  N   UNL     1       5.829   3.820  13.680  0.00  0.00    +0.000 N 
ATOM     17  H   UNL     1       4.864   3.833  13.365  0.00  0.00    +0.000 HD
ENDBRANCH  11  12
ENDBRANCH   1   8
BRANCH   3  18
ATOM     18  C   UNL     1       0.954   8.733  20.921  0.00  0.00    +0.000 A 
ATOM     19  C   UNL     1       0.248   8.462  22.100  0.00  0.00    +0.000 A 
ATOM     20  C   UNL     1      -0.449   9.487  22.744  0.00  0.00    +0.000 A 
ATOM     21  C   UNL     1      -0.453  10.782  22.216  0.00  0.00    +0.000 A 
ATOM     22  C   UNL     1       0.247  11.051  21.034  0.00  0.00    +0.000 A 
ATOM     23  C   UNL     1       0.957  10.032  20.394  0.00  0.00    +0.000 A 
BRANCH  21  24
ATOM     24  C   UNL     1      -1.201  11.848  22.929  0.00  0.00    +0.000 C 
ATOM     25  N   UNL     1      -0.647  13.012  23.183  0.00  0.00    +0.000 NA
ATOM     26  C   UNL     1      -1.705  13.787  23.884  0.00  0.00    +0.000 C 
ATOM     27  C   UNL     1      -3.009  13.020  23.663  0.00  0.00    +0.000 C 
ATOM     28  N   UNL     1      -2.507  11.708  23.336  0.00  0.00    +0.000 N 
ATOM     29  H   UNL     1      -3.118  11.116  22.789  0.00  0.00    +0.000 HD
ENDBRANCH  21  24
ENDBRANCH   3  18
TORSDOF 4
ENDMDL
MODEL 8
REMARK VINA RESULT:      -8.3      0.404     10.857
REMARK  Name = 
REMARK  4 active torsions:
REMARK  status: ('A' for Active; 'I' for Inactive)
REMARK    1  A    between atoms: C_3  and  C_4
REMARK    2  A    between atoms: N_6  and  C_7
REMARK    3  A    between atoms: C_10  and  C_11
REMARK    4  A    between atoms: C_22  and  C_23
REMARK                            x       y       z     vdW  Elec       q    Type
REMARK                         _______ _______ _______ _____ _____    ______ ____
ROOT
ATOM      1  C   UNL     1       2.650   6.719  19.114  0.00  0.00    +0.000 A 
ATOM      2  C   UNL     1       2.147   7.986  19.294  0.00  0.00    +0.000 A 
ATOM      3  N   UNL     1       1.403   7.903  20.444  0.00  0.00    +0.000 N 
ATOM      4  N   UNL     1       1.475   6.646  20.946  0.00  0.00    +0.000 NA
ATOM      5  N   UNL     1       2.237   5.919  20.141  0.00  0.00    +0.000 NA
ENDROOT
BRANCH   1   8
ATOM      6  C   UNL     1       4.404   4.477  16.684  0.00  0.00    +0.000 A 
ATOM      7  C   UNL     1       3.608   4.914  17.745  0.00  0.00    +0.000 A 
ATOM      8  C   UNL     1       3.499   6.283  18.030  0.00  0.00    +0.000 A 
ATOM      9  C   UNL     1       4.212   7.205  17.247  0.00  0.00    +0.000 A 
ATOM     10  C   UNL     1       5.013   6.769  16.192  0.00  0.00    +0.000 A 
ATOM     11  C   UNL     1       5.096   5.405  15.901  0.00  0.00    +0.000 A 
BRANCH  11  12
ATOM     12  C   UNL     1       5.908   4.945  14.755  0.00  0.00    +0.000 C 
ATOM     13  N   UNL     1       5.472   4.036  13.925  0.00  0.00    +0.000 NA
ATOM     14  C   UNL     1       6.586   3.835  12.959  0.00  0.00    +0.000 C 
ATOM     15  C   UNL     1       7.749   4.716  13.420  0.00  0.00    +0.000 C 
ATOM     16  N   UNL     1       7.169   5.438  14.528  0.00  0.00    +0.000 N 
ATOM     17  H   UNL     1       7.751   5.537  15.354  0.00  0.00    +0.000 HD
ENDBRANCH  11  12
ENDBRANCH   1   8
BRANCH   3  18
ATOM     18  C   UNL     1       0.645   8.923  21.072  0.00  0.00    +0.000 A 
ATOM     19  C   UNL     1       0.314  10.096  20.382  0.00  0.00    +0.000 A 
ATOM     20  C   UNL     1      -0.431  11.091  21.020  0.00  0.00    +0.000 A 
ATOM     21  C   UNL     1      -0.844  10.927  22.346  0.00  0.00    +0.000 A 
ATOM     22  C   UNL     1      -0.507   9.757  23.037  0.00  0.00    +0.000 A 
ATOM     23  C   UNL     1       0.226   8.754  22.399  0.00  0.00    +0.000 A 
BRANCH  21  24
ATOM     24  C   UNL     1      -1.638  12.003  22.991  0.00  0.00    +0.000 C 
ATOM     25  N   UNL     1      -1.172  13.227  23.085  0.00  0.00    +0.000 NA
ATOM     26  C   UNL     1      -2.251  13.989  23.769  0.00  0.00    +0.000 C 
ATOM     27  C   UNL     1      -3.495  13.102  23.716  0.00  0.00    +0.000 C 
ATOM     28  N   UNL     1      -2.902  11.806  23.496  0.00  0.00    +0.000 N 
ATOM     29  H   UNL     1      -3.490  11.111  23.055  0.00  0.00    +0.000 HD
ENDBRANCH  21  24
ENDBRANCH   3  18
TORSDOF 4
ENDMDL
MODEL 9
REMARK VINA RESULT:      -8.2      0.220      1.213
REMARK  Name = 
REMARK  4 active torsions:
REMARK  status: ('A' for Active; 'I' for Inactive)
REMARK    1  A    between atoms: C_3  and  C_4
REMARK    2  A    between atoms: N_6  and  C_7
REMARK    3  A    between atoms: C_10  and  C_11
REMARK    4  A    between atoms: C_22  and  C_23
REMARK                            x       y       z     vdW  Elec       q    Type
REMARK                         _______ _______ _______ _____ _____    ______ ____
ROOT
ATOM      1  C   UNL     1       1.325   7.947  20.573  0.00  0.00    +0.000 A 
ATOM      2  C   UNL     1       2.002   8.051  19.381  0.00  0.00    +0.000 A 
ATOM      3  N   UNL     1       2.553   6.810  19.185  0.00  0.00    +0.000 N 
ATOM      4  N   UNL     1       2.202   5.988  20.204  0.00  0.00    +0.000 NA
ATOM      5  N   UNL     1       1.450   6.675  21.053  0.00  0.00    +0.000 NA
ENDROOT
BRANCH   1   8
ATOM      6  C   UNL     1      -0.577  11.128  21.094  0.00  0.00    +0.000 A 
ATOM      7  C   UNL     1       0.170  10.117  20.487  0.00  0.00    +0.000 A 
ATOM      8  C   UNL     1       0.576   8.997  21.225  0.00  0.00    +0.000 A 
ATOM      9  C   UNL     1       0.238   8.912  22.585  0.00  0.00    +0.000 A 
ATOM     10  C   UNL     1      -0.502   9.924  23.196  0.00  0.00    +0.000 A 
ATOM     11  C   UNL     1      -0.923  11.026  22.445  0.00  0.00    +0.000 A 
BRANCH  11  12
ATOM     12  C   UNL     1      -1.745  12.077  23.079  0.00  0.00    +0.000 C 
ATOM     13  N   UNL     1      -2.985  11.860  23.431  0.00  0.00    +0.000 NA
ATOM     14  C   UNL     1      -3.457  13.158  23.984  0.00  0.00    +0.000 C 
ATOM     15  C   UNL     1      -2.315  14.163  23.817  0.00  0.00    +0.000 C 
ATOM     16  N   UNL     1      -1.249  13.336  23.304  0.00  0.00    +0.000 N 
ATOM     17  H   UNL     1      -0.702  13.729  22.544  0.00  0.00    +0.000 HD
ENDBRANCH  11  12
ENDBRANCH   1   8
BRANCH   3  18
ATOM     18  C   UNL     1       3.374   6.374  18.115  0.00  0.00    +0.000 A 
ATOM     19  C   UNL     1       3.467   5.015  17.792  0.00  0.00    +0.000 A 
ATOM     20  C   UNL     1       4.284   4.604  16.736  0.00  0.00    +0.000 A 
ATOM     21  C   UNL     1       5.018   5.543  16.003  0.00  0.00    +0.000 A 
ATOM     22  C   UNL     1       4.930   6.901  16.331  0.00  0.00    +0.000 A 
ATOM     23  C   UNL     1       4.103   7.316  17.377  0.00  0.00    +0.000 A 
BRANCH  21  24
ATOM     24  C   UNL     1       5.874   5.073  14.884  0.00  0.00    +0.000 C 
ATOM     25  N   UNL     1       7.134   5.430  14.798  0.00  0.00    +0.000 NA
ATOM     26  C   UNL     1       7.634   4.754  13.571  0.00  0.00    +0.000 C 
ATOM     27  C   UNL     1       6.580   3.710  13.204  0.00  0.00    +0.000 C 
ATOM     28  N   UNL     1       5.426   4.224  13.899  0.00  0.00    +0.000 N 
ATOM     29  H   UNL     1       4.708   3.553  14.136  0.00  0.00    +0.000 HD
ENDBRANCH  21  24
ENDBRANCH   3  18
TORSDOF 4
ENDMDL
