MODEL 1
REMARK VINA RESULT:      -7.8      0.000      0.000
REMARK  Name = 
REMARK  5 active torsions:
REMARK  status: ('A' for Active; 'I' for Inactive)
REMARK    1  A    between atoms: C_1  and  S_2
REMARK    2  A    between atoms: S_2  and  N_5
REMARK    3  A    between atoms: N_11  and  C_12
REMARK    4  A    between atoms: C_15  and  C_16
REMARK    5  A    between atoms: C_25  and  N_26
REMARK                            x       y       z     vdW  Elec       q    Type
REMARK                         _______ _______ _______ _____ _____    ______ ____
ROOT
ATOM      1  C   UNL     1       1.654   9.468  19.672  0.00  0.00    +0.000 C 
ATOM      2  C   UNL     1       1.301  10.644  18.712  0.00  0.00    +0.000 C 
ATOM      3  O   UNL     1       0.780  11.815  19.324  0.00  0.00    +0.000 OA
ATOM      4  C   UNL     1      -0.361  11.606  20.152  0.00  0.00    +0.000 C 
ATOM      5  C   UNL     1       0.002  10.606  21.288  0.00  0.00    +0.000 C 
ATOM      6  C   UNL     1       0.600   9.285  20.783  0.00  0.00    +0.000 C 
ENDROOT
BRANCH   4   7
ATOM      7  C   UNL     1      -1.642  11.409  19.350  0.00  0.00    +0.000 A 
ATOM      8  C   UNL     1      -1.802  10.437  18.351  0.00  0.00    +0.000 A 
ATOM      9  C   UNL     1      -3.035  10.260  17.719  0.00  0.00    +0.000 A 
ATOM     10  F   UNL     1      -3.157   9.315  16.777  0.00  0.00    +0.000 F 
ATOM     11  C   UNL     1      -4.128  11.043  18.067  0.00  0.00    +0.000 A 
ATOM     12  F   UNL     1      -5.319  10.836  17.489  0.00  0.00    +0.000 F 
ATOM     13  C   UNL     1      -3.991  12.045  19.013  0.00  0.00    +0.000 A 
ATOM     14  C   UNL     1      -2.751  12.233  19.624  0.00  0.00    +0.000 A 
ATOM     15  F   UNL     1      -2.637  13.229  20.514  0.00  0.00    +0.000 F 
ENDBRANCH   4   7
BRANCH   1  22
ATOM     16  N   UNL     1       5.060   5.766  17.518  0.00  0.00    +0.000 N 
ATOM     17  C   UNL     1       4.546   6.821  16.787  0.00  0.00    +0.000 A 
ATOM     18  C   UNL     1       3.544   7.324  17.559  0.00  0.00    +0.000 A 
ATOM     19  C   UNL     1       3.486   6.535  18.690  0.00  0.00    +0.000 A 
ATOM     20  N   UNL     1       4.414   5.577  18.727  0.00  0.00    +0.000 NA
ATOM     21  C   UNL     1       2.492   7.064  19.656  0.00  0.00    +0.000 C 
ATOM     22  N   UNL     1       1.877   8.219  18.899  0.00  0.00    +0.000 NA
ATOM     23  C   UNL     1       2.642   8.466  17.630  0.00  0.00    +0.000 C 
BRANCH  16  25
ATOM     24  C   UNL     1       6.196   3.849  15.742  0.00  0.00    +0.000 C 
ATOM     25  S   UNL     1       6.538   5.031  17.005  0.00  0.00    +0.000 S 
ATOM     26  O   UNL     1       7.010   4.319  18.185  0.00  0.00    +0.000 OA
ATOM     27  O   UNL     1       7.299   6.119  16.431  0.00  0.00    +0.000 OA
ENDBRANCH  16  25
ENDBRANCH   1  22
BRANCH   5  28
ATOM     28  N   UNL     1      -1.079  10.339  22.249  0.00  0.00    +0.000 NA
ATOM     29  H   UNL     1      -0.697   9.970  23.120  0.00  0.00    +0.000 HD
ATOM     30  H   UNL     1      -1.691   9.608  21.882  0.00  0.00    +0.000 HD
ENDBRANCH   5  28
TORSDOF 4
ENDMDL
MODEL 2
REMARK VINA RESULT:      -7.7      3.473      4.664
REMARK  Name = 
REMARK  5 active torsions:
REMARK  status: ('A' for Active; 'I' for Inactive)
REMARK    1  A    between atoms: C_1  and  S_2
REMARK    2  A    between atoms: S_2  and  N_5
REMARK    3  A    between atoms: N_11  and  C_12
REMARK    4  A    between atoms: C_15  and  C_16
REMARK    5  A    between atoms: C_25  and  N_26
REMARK                            x       y       z     vdW  Elec       q    Type
REMARK                         _______ _______ _______ _____ _____    ______ ____
ROOT
ATOM      1  C   UNL     1       0.195  10.116  19.950  0.00  0.00    +0.000 C 
ATOM      2  C   UNL     1       0.403  11.312  20.927  0.00  0.00    +0.000 C 
ATOM      3  O   UNL     1      -0.566  12.349  20.860  0.00  0.00    +0.000 OA
ATOM      4  C   UNL     1      -0.761  12.908  19.563  0.00  0.00    +0.000 C 
ATOM      5  C   UNL     1      -1.206  11.788  18.580  0.00  0.00    +0.000 C 
ATOM      6  C   UNL     1      -0.262  10.577  18.551  0.00  0.00    +0.000 C 
ENDROOT
BRANCH   4   7
ATOM      7  C   UNL     1       0.353  13.870  19.164  0.00  0.00    +0.000 A 
ATOM      8  C   UNL     1       1.644  13.466  18.793  0.00  0.00    +0.000 A 
ATOM      9  C   UNL     1       2.585  14.401  18.356  0.00  0.00    +0.000 A 
ATOM     10  F   UNL     1       3.806  13.981  17.999  0.00  0.00    +0.000 F 
ATOM     11  C   UNL     1       2.261  15.748  18.279  0.00  0.00    +0.000 A 
ATOM     12  F   UNL     1       3.155  16.633  17.814  0.00  0.00    +0.000 F 
ATOM     13  C   UNL     1       1.012  16.187  18.685  0.00  0.00    +0.000 A 
ATOM     14  C   UNL     1       0.083  15.252  19.143  0.00  0.00    +0.000 A 
ATOM     15  F   UNL     1      -1.108  15.706  19.558  0.00  0.00    +0.000 F 
ENDBRANCH   4   7
BRANCH   1  22
ATOM     16  N   UNL     1       2.627   5.342  18.839  0.00  0.00    +0.000 N 
ATOM     17  C   UNL     1       2.219   5.692  20.113  0.00  0.00    +0.000 A 
ATOM     18  C   UNL     1       1.945   7.023  20.036  0.00  0.00    +0.000 A 
ATOM     19  C   UNL     1       2.228   7.409  18.741  0.00  0.00    +0.000 A 
ATOM     20  N   UNL     1       2.627   6.407  17.956  0.00  0.00    +0.000 NA
ATOM     21  C   UNL     1       1.860   8.829  18.517  0.00  0.00    +0.000 C 
ATOM     22  N   UNL     1       1.420   9.277  19.892  0.00  0.00    +0.000 NA
ATOM     23  C   UNL     1       1.342   8.096  20.817  0.00  0.00    +0.000 C 
BRANCH  16  25
ATOM     24  C   UNL     1       2.281   2.688  19.816  0.00  0.00    +0.000 C 
ATOM     25  S   UNL     1       2.803   3.668  18.446  0.00  0.00    +0.000 S 
ATOM     26  O   UNL     1       4.239   3.492  18.276  0.00  0.00    +0.000 OA
ATOM     27  O   UNL     1       1.887   3.458  17.347  0.00  0.00    +0.000 OA
ENDBRANCH  16  25
ENDBRANCH   1  22
BRANCH   5  28
ATOM     28  N   UNL     1      -1.491  12.242  17.209  0.00  0.00    +0.000 NA
ATOM     29  H   UNL     1      -1.443  11.458  16.559  0.00  0.00    +0.000 HD
ATOM     30  H   UNL     1      -0.768  12.897  16.908  0.00  0.00    +0.000 HD
ENDBRANCH   5  28
TORSDOF 4
ENDMDL
MODEL 3
REMARK VINA RESULT:      -7.7      0.920      1.042
REMARK  Name = 
REMARK  5 active torsions:
REMARK  status: ('A' for Active; 'I' for Inactive)
REMARK    1  A    between atoms: C_1  and  S_2
REMARK    2  A    between atoms: S_2  and  N_5
REMARK    3  A    between atoms: N_11  and  C_12
REMARK    4  A    between atoms: C_15  and  C_16
REMARK    5  A    between atoms: C_25  and  N_26
REMARK                            x       y       z     vdW  Elec       q    Type
REMARK                         _______ _______ _______ _____ _____    ______ ____
ROOT
ATOM      1  C   UNL     1       1.328   9.762  19.792  0.00  0.00    +0.000 C 
ATOM      2  C   UNL     1       0.953  10.833  18.725  0.00  0.00    +0.000 C 
ATOM      3  O   UNL     1       0.476  12.074  19.226  0.00  0.00    +0.000 OA
ATOM      4  C   UNL     1      -0.632  11.978  20.118  0.00  0.00    +0.000 C 
ATOM      5  C   UNL     1      -0.236  11.100  21.340  0.00  0.00    +0.000 C 
ATOM      6  C   UNL     1       0.320   9.721  20.958  0.00  0.00    +0.000 C 
ENDROOT
BRANCH   4   7
ATOM      7  C   UNL     1      -1.949  11.720  19.395  0.00  0.00    +0.000 A 
ATOM      8  C   UNL     1      -2.112  10.771  18.374  0.00  0.00    +0.000 A 
ATOM      9  C   UNL     1      -3.371  10.532  17.819  0.00  0.00    +0.000 A 
ATOM     10  F   UNL     1      -3.495   9.611  16.854  0.00  0.00    +0.000 F 
ATOM     11  C   UNL     1      -4.486  11.228  18.265  0.00  0.00    +0.000 A 
ATOM     12  F   UNL     1      -5.698  10.959  17.759  0.00  0.00    +0.000 F 
ATOM     13  C   UNL     1      -4.351  12.207  19.235  0.00  0.00    +0.000 A 
ATOM     14  C   UNL     1      -3.088  12.460  19.770  0.00  0.00    +0.000 A 
ATOM     15  F   UNL     1      -2.980  13.432  20.685  0.00  0.00    +0.000 F 
ENDBRANCH   4   7
BRANCH   1  22
ATOM     16  N   UNL     1       4.569   5.674  18.140  0.00  0.00    +0.000 N 
ATOM     17  C   UNL     1       4.147   6.681  17.291  0.00  0.00    +0.000 A 
ATOM     18  C   UNL     1       3.152   7.314  17.971  0.00  0.00    +0.000 A 
ATOM     19  C   UNL     1       3.007   6.644  19.170  0.00  0.00    +0.000 A 
ATOM     20  N   UNL     1       3.872   5.642  19.334  0.00  0.00    +0.000 NA
ATOM     21  C   UNL     1       2.015   7.322  20.040  0.00  0.00    +0.000 C 
ATOM     22  N   UNL     1       1.499   8.432  19.152  0.00  0.00    +0.000 NA
ATOM     23  C   UNL     1       2.321   8.509  17.897  0.00  0.00    +0.000 C 
BRANCH  16  25
ATOM     24  C   UNL     1       7.224   5.932  17.140  0.00  0.00    +0.000 C 
ATOM     25  S   UNL     1       6.015   4.807  17.759  0.00  0.00    +0.000 S 
ATOM     26  O   UNL     1       5.621   3.915  16.677  0.00  0.00    +0.000 OA
ATOM     27  O   UNL     1       6.469   4.289  19.030  0.00  0.00    +0.000 OA
ENDBRANCH  16  25
ENDBRANCH   1  22
BRANCH   5  28
ATOM     28  N   UNL     1      -1.280  10.960  22.368  0.00  0.00    +0.000 NA
ATOM     29  H   UNL     1      -1.104  10.136  22.942  0.00  0.00    +0.000 HD
ATOM     30  H   UNL     1      -2.183  10.798  21.919  0.00  0.00    +0.000 HD
ENDBRANCH   5  28
TORSDOF 4
ENDMDL
MODEL 4
REMARK VINA RESULT:      -7.6      5.175      9.373
REMARK  Name = 
REMARK  5 active torsions:
REMARK  status: ('A' for Active; 'I' for Inactive)
REMARK    1  A    between atoms: C_1  and  S_2
REMARK    2  A    between atoms: S_2  and  N_5
REMARK    3  A    between atoms: N_11  and  C_12
REMARK    4  A    between atoms: C_15  and  C_16
REMARK    5  A    between atoms: C_25  and  N_26
REMARK                            x       y       z     vdW  Elec       q    Type
REMARK                         _______ _______ _______ _____ _____    ______ ____
ROOT
ATOM      1  C   UNL     1       1.463   6.833  19.780  0.00  0.00    +0.000 C 
ATOM      2  C   UNL     1       1.975   6.776  18.310  0.00  0.00    +0.000 C 
ATOM      3  O   UNL     1       2.007   5.489  17.709  0.00  0.00    +0.000 OA
ATOM      4  C   UNL     1       2.737   4.503  18.435  0.00  0.00    +0.000 C 
ATOM      5  C   UNL     1       2.117   4.343  19.854  0.00  0.00    +0.000 C 
ATOM      6  C   UNL     1       1.997   5.662  20.630  0.00  0.00    +0.000 C 
ENDROOT
BRANCH   4   7
ATOM      7  C   UNL     1       4.246   4.656  18.281  0.00  0.00    +0.000 A 
ATOM      8  C   UNL     1       5.088   5.183  19.271  0.00  0.00    +0.000 A 
ATOM      9  C   UNL     1       6.472   5.211  19.088  0.00  0.00    +0.000 A 
ATOM     10  F   UNL     1       7.250   5.710  20.058  0.00  0.00    +0.000 F 
ATOM     11  C   UNL     1       7.043   4.717  17.923  0.00  0.00    +0.000 A 
ATOM     12  F   UNL     1       8.375   4.705  17.775  0.00  0.00    +0.000 F 
ATOM     13  C   UNL     1       6.237   4.237  16.904  0.00  0.00    +0.000 A 
ATOM     14  C   UNL     1       4.853   4.233  17.082  0.00  0.00    +0.000 A 
ATOM     15  F   UNL     1       4.095   3.790  16.070  0.00  0.00    +0.000 F 
ENDBRANCH   4   7
BRANCH   1  22
ATOM     16  N   UNL     1      -0.201  11.548  22.005  0.00  0.00    +0.000 N 
ATOM     17  C   UNL     1       0.121  11.428  20.665  0.00  0.00    +0.000 A 
ATOM     18  C   UNL     1       0.754  10.227  20.566  0.00  0.00    +0.000 A 
ATOM     19  C   UNL     1       0.806   9.704  21.843  0.00  0.00    +0.000 A 
ATOM     20  N   UNL     1       0.210  10.466  22.762  0.00  0.00    +0.000 NA
ATOM     21  C   UNL     1       1.384   8.337  21.834  0.00  0.00    +0.000 C 
ATOM     22  N   UNL     1       1.777   8.154  20.385  0.00  0.00    +0.000 NA
ATOM     23  C   UNL     1       1.249   9.294  19.562  0.00  0.00    +0.000 C 
BRANCH  16  25
ATOM     24  C   UNL     1      -2.706  12.119  23.235  0.00  0.00    +0.000 C 
ATOM     25  S   UNL     1      -1.263  12.818  22.501  0.00  0.00    +0.000 S 
ATOM     26  O   UNL     1      -1.651  13.465  21.254  0.00  0.00    +0.000 OA
ATOM     27  O   UNL     1      -0.522  13.530  23.517  0.00  0.00    +0.000 OA
ENDBRANCH  16  25
ENDBRANCH   1  22
BRANCH   5  28
ATOM     28  N   UNL     1       2.749   3.315  20.696  0.00  0.00    +0.000 NA
ATOM     29  H   UNL     1       2.478   2.383  20.382  0.00  0.00    +0.000 HD
ATOM     30  H   UNL     1       2.405   3.397  21.653  0.00  0.00    +0.000 HD
ENDBRANCH   5  28
TORSDOF 4
ENDMDL
MODEL 5
REMARK VINA RESULT:      -7.6      0.867      1.040
REMARK  Name = 
REMARK  5 active torsions:
REMARK  status: ('A' for Active; 'I' for Inactive)
REMARK    1  A    between atoms: C_1  and  S_2
REMARK    2  A    between atoms: S_2  and  N_5
REMARK    3  A    between atoms: N_11  and  C_12
REMARK    4  A    between atoms: C_15  and  C_16
REMARK    5  A    between atoms: C_25  and  N_26
REMARK                            x       y       z     vdW  Elec       q    Type
REMARK                         _______ _______ _______ _____ _____    ______ ____
ROOT
ATOM      1  C   UNL     1       1.933   9.023  19.573  0.00  0.00    +0.000 C 
ATOM      2  C   UNL     1       1.657  10.281  18.697  0.00  0.00    +0.000 C 
ATOM      3  O   UNL     1       1.159  11.422  19.381  0.00  0.00    +0.000 OA
ATOM      4  C   UNL     1      -0.017  11.195  20.155  0.00  0.00    +0.000 C 
ATOM      5  C   UNL     1       0.270  10.098  21.221  0.00  0.00    +0.000 C 
ATOM      6  C   UNL     1       0.836   8.797  20.633  0.00  0.00    +0.000 C 
ENDROOT
BRANCH   4   7
ATOM      7  C   UNL     1      -1.276  11.110  19.300  0.00  0.00    +0.000 A 
ATOM      8  C   UNL     1      -1.446  10.210  18.237  0.00  0.00    +0.000 A 
ATOM      9  C   UNL     1      -2.662  10.134  17.555  0.00  0.00    +0.000 A 
ATOM     10  F   UNL     1      -2.794   9.255  16.552  0.00  0.00    +0.000 F 
ATOM     11  C   UNL     1      -3.728  10.946  17.915  0.00  0.00    +0.000 A 
ATOM     12  F   UNL     1      -4.907  10.833  17.287  0.00  0.00    +0.000 F 
ATOM     13  C   UNL     1      -3.579  11.881  18.927  0.00  0.00    +0.000 A 
ATOM     14  C   UNL     1      -2.354  11.970  19.589  0.00  0.00    +0.000 A 
ATOM     15  F   UNL     1      -2.226  12.903  20.543  0.00  0.00    +0.000 F 
ENDBRANCH   4   7
BRANCH   1  22
ATOM     16  N   UNL     1       5.282   5.487  17.078  0.00  0.00    +0.000 N 
ATOM     17  C   UNL     1       4.744   6.586  16.434  0.00  0.00    +0.000 A 
ATOM     18  C   UNL     1       3.764   7.031  17.267  0.00  0.00    +0.000 A 
ATOM     19  C   UNL     1       3.742   6.169  18.346  0.00  0.00    +0.000 A 
ATOM     20  N   UNL     1       4.674   5.215  18.291  0.00  0.00    +0.000 NA
ATOM     21  C   UNL     1       2.777   6.628  19.374  0.00  0.00    +0.000 C 
ATOM     22  N   UNL     1       2.136   7.828  18.713  0.00  0.00    +0.000 NA
ATOM     23  C   UNL     1       2.861   8.162  17.441  0.00  0.00    +0.000 C 
BRANCH  16  25
ATOM     24  C   UNL     1       7.802   4.386  17.826  0.00  0.00    +0.000 C 
ATOM     25  S   UNL     1       6.746   4.795  16.473  0.00  0.00    +0.000 S 
ATOM     26  O   UNL     1       7.365   5.876  15.718  0.00  0.00    +0.000 OA
ATOM     27  O   UNL     1       6.325   3.573  15.826  0.00  0.00    +0.000 OA
ENDBRANCH  16  25
ENDBRANCH   1  22
BRANCH   5  28
ATOM     28  N   UNL     1      -0.853   9.801  22.124  0.00  0.00    +0.000 NA
ATOM     29  H   UNL     1      -1.371  10.653  22.338  0.00  0.00    +0.000 HD
ATOM     30  H   UNL     1      -0.493   9.463  23.018  0.00  0.00    +0.000 HD
ENDBRANCH   5  28
TORSDOF 4
ENDMDL
MODEL 6
REMARK VINA RESULT:      -7.6      3.310      4.491
REMARK  Name = 
REMARK  5 active torsions:
REMARK  status: ('A' for Active; 'I' for Inactive)
REMARK    1  A    between atoms: C_1  and  S_2
REMARK    2  A    between atoms: S_2  and  N_5
REMARK    3  A    between atoms: N_11  and  C_12
REMARK    4  A    between atoms: C_15  and  C_16
REMARK    5  A    between atoms: C_25  and  N_26
REMARK                            x       y       z     vdW  Elec       q    Type
REMARK                         _______ _______ _______ _____ _____    ______ ____
ROOT
ATOM      1  C   UNL     1      -0.110  10.039  19.964  0.00  0.00    +0.000 C 
ATOM      2  C   UNL     1      -0.102  11.225  20.973  0.00  0.00    +0.000 C 
ATOM      3  O   UNL     1      -1.136  12.186  20.818  0.00  0.00    +0.000 OA
ATOM      4  C   UNL     1      -1.238  12.757  19.515  0.00  0.00    +0.000 C 
ATOM      5  C   UNL     1      -1.486  11.627  18.474  0.00  0.00    +0.000 C 
ATOM      6  C   UNL     1      -0.451  10.495  18.530  0.00  0.00    +0.000 C 
ENDROOT
BRANCH   4   7
ATOM      7  C   UNL     1      -0.167  13.810  19.250  0.00  0.00    +0.000 A 
ATOM      8  C   UNL     1       1.115  13.521  18.760  0.00  0.00    +0.000 A 
ATOM      9  C   UNL     1       2.011  14.550  18.461  0.00  0.00    +0.000 A 
ATOM     10  F   UNL     1       3.224  14.240  17.983  0.00  0.00    +0.000 F 
ATOM     11  C   UNL     1       1.652  15.878  18.642  0.00  0.00    +0.000 A 
ATOM     12  F   UNL     1       2.501  16.860  18.308  0.00  0.00    +0.000 F 
ATOM     13  C   UNL     1       0.413  16.196  19.172  0.00  0.00    +0.000 A 
ATOM     14  C   UNL     1      -0.471  15.164  19.492  0.00  0.00    +0.000 A 
ATOM     15  F   UNL     1      -1.652  15.498  20.031  0.00  0.00    +0.000 F 
ENDBRANCH   4   7
BRANCH   1  22
ATOM     16  N   UNL     1       2.752   5.431  19.240  0.00  0.00    +0.000 N 
ATOM     17  C   UNL     1       2.231   5.801  20.467  0.00  0.00    +0.000 A 
ATOM     18  C   UNL     1       1.862   7.102  20.310  0.00  0.00    +0.000 A 
ATOM     19  C   UNL     1       2.203   7.454  19.019  0.00  0.00    +0.000 A 
ATOM     20  N   UNL     1       2.731   6.455  18.310  0.00  0.00    +0.000 NA
ATOM     21  C   UNL     1       1.744   8.829  18.704  0.00  0.00    +0.000 C 
ATOM     22  N   UNL     1       1.177   9.299  20.026  0.00  0.00    +0.000 NA
ATOM     23  C   UNL     1       1.127   8.155  20.998  0.00  0.00    +0.000 C 
BRANCH  16  25
ATOM     24  C   UNL     1       2.633   3.366  17.281  0.00  0.00    +0.000 C 
ATOM     25  S   UNL     1       3.083   3.762  18.940  0.00  0.00    +0.000 S 
ATOM     26  O   UNL     1       2.184   3.053  19.840  0.00  0.00    +0.000 OA
ATOM     27  O   UNL     1       4.518   3.651  19.072  0.00  0.00    +0.000 OA
ENDBRANCH  16  25
ENDBRANCH   1  22
BRANCH   5  28
ATOM     28  N   UNL     1      -1.659  12.088  17.087  0.00  0.00    +0.000 NA
ATOM     29  H   UNL     1      -1.184  11.458  16.442  0.00  0.00    +0.000 HD
ATOM     30  H   UNL     1      -1.209  12.997  16.970  0.00  0.00    +0.000 HD
ENDBRANCH   5  28
TORSDOF 4
ENDMDL
MODEL 7
REMARK VINA RESULT:      -7.5      5.687      9.049
REMARK  Name = 
REMARK  5 active torsions:
REMARK  status: ('A' for Active; 'I' for Inactive)
REMARK    1  A    between atoms: C_1  and  S_2
REMARK    2  A    between atoms: S_2  and  N_5
REMARK    3  A    between atoms: N_11  and  C_12
REMARK    4  A    between atoms: C_15  and  C_16
REMARK    5  A    between atoms: C_25  and  N_26
REMARK                            x       y       z     vdW  Elec       q    Type
REMARK                         _______ _______ _______ _____ _____    ______ ____
ROOT
ATOM      1  C   UNL     1       0.009  11.844  21.762  0.00  0.00    +0.000 C 
ATOM      2  C   UNL     1      -0.513  10.452  21.298  0.00  0.00    +0.000 C 
ATOM      3  O   UNL     1       0.037   9.951  20.087  0.00  0.00    +0.000 OA
ATOM      4  C   UNL     1      -0.076  10.825  18.967  0.00  0.00    +0.000 C 
ATOM      5  C   UNL     1       0.641  12.168  19.286  0.00  0.00    +0.000 C 
ATOM      6  C   UNL     1       0.165  12.831  20.587  0.00  0.00    +0.000 C 
ENDROOT
BRANCH   4   7
ATOM      7  C   UNL     1      -1.479  10.838  18.370  0.00  0.00    +0.000 A 
ATOM      8  C   UNL     1      -2.528  11.639  18.846  0.00  0.00    +0.000 A 
ATOM      9  C   UNL     1      -3.762  11.660  18.191  0.00  0.00    +0.000 A 
ATOM     10  F   UNL     1      -4.739  12.445  18.665  0.00  0.00    +0.000 F 
ATOM     11  C   UNL     1      -3.975  10.888  17.058  0.00  0.00    +0.000 A 
ATOM     12  F   UNL     1      -5.147  10.949  16.409  0.00  0.00    +0.000 F 
ATOM     13  C   UNL     1      -2.978  10.048  16.591  0.00  0.00    +0.000 A 
ATOM     14  C   UNL     1      -1.755  10.013  17.262  0.00  0.00    +0.000 A 
ATOM     15  F   UNL     1      -0.817   9.170  16.809  0.00  0.00    +0.000 F 
ENDBRANCH   4   7
BRANCH   1  22
ATOM     16  N   UNL     1      -4.936  13.330  23.575  0.00  0.00    +0.000 N 
ATOM     17  C   UNL     1      -4.036  14.232  23.038  0.00  0.00    +0.000 A 
ATOM     18  C   UNL     1      -2.856  13.557  22.986  0.00  0.00    +0.000 A 
ATOM     19  C   UNL     1      -3.096  12.305  23.516  0.00  0.00    +0.000 A 
ATOM     20  N   UNL     1      -4.366  12.105  23.871  0.00  0.00    +0.000 NA
ATOM     21  C   UNL     1      -1.893  11.443  23.408  0.00  0.00    +0.000 C 
ATOM     22  N   UNL     1      -0.859  12.388  22.839  0.00  0.00    +0.000 NA
ATOM     23  C   UNL     1      -1.509  13.683  22.444  0.00  0.00    +0.000 C 
BRANCH  16  25
ATOM     24  C   UNL     1      -7.193  13.728  21.882  0.00  0.00    +0.000 C 
ATOM     25  S   UNL     1      -6.622  13.712  23.551  0.00  0.00    +0.000 S 
ATOM     26  O   UNL     1      -6.686  15.071  24.071  0.00  0.00    +0.000 OA
ATOM     27  O   UNL     1      -7.249  12.611  24.247  0.00  0.00    +0.000 OA
ENDBRANCH  16  25
ENDBRANCH   1  22
BRANCH   5  28
ATOM     28  N   UNL     1       0.642  13.148  18.189  0.00  0.00    +0.000 NA
ATOM     29  H   UNL     1       1.424  12.974  17.558  0.00  0.00    +0.000 HD
ATOM     30  H   UNL     1       0.793  14.085  18.566  0.00  0.00    +0.000 HD
ENDBRANCH   5  28
TORSDOF 4
ENDMDL
MODEL 8
REMARK VINA RESULT:      -7.5      2.884      4.110
REMARK  Name = 
REMARK  5 active torsions:
REMARK  status: ('A' for Active; 'I' for Inactive)
REMARK    1  A    between atoms: C_1  and  S_2
REMARK    2  A    between atoms: S_2  and  N_5
REMARK    3  A    between atoms: N_11  and  C_12
REMARK    4  A    between atoms: C_15  and  C_16
REMARK    5  A    between atoms: C_25  and  N_26
REMARK                            x       y       z     vdW  Elec       q    Type
REMARK                         _______ _______ _______ _____ _____    ______ ____
ROOT
ATOM      1  C   UNL     1       0.473  10.743  18.171  0.00  0.00    +0.000 C 
ATOM      2  C   UNL     1      -0.928  10.138  18.486  0.00  0.00    +0.000 C 
ATOM      3  O   UNL     1      -2.045  10.965  18.195  0.00  0.00    +0.000 OA
ATOM      4  C   UNL     1      -2.012  12.256  18.798  0.00  0.00    +0.000 C 
ATOM      5  C   UNL     1      -0.736  13.012  18.329  0.00  0.00    +0.000 C 
ATOM      6  C   UNL     1       0.567  12.232  18.561  0.00  0.00    +0.000 C 
ENDROOT
BRANCH   4   7
ATOM      7  C   UNL     1      -2.373  12.223  20.280  0.00  0.00    +0.000 A 
ATOM      8  C   UNL     1      -1.504  11.784  21.290  0.00  0.00    +0.000 A 
ATOM      9  C   UNL     1      -1.876  11.865  22.634  0.00  0.00    +0.000 A 
ATOM     10  F   UNL     1      -1.018  11.448  23.575  0.00  0.00    +0.000 F 
ATOM     11  C   UNL     1      -3.112  12.382  22.997  0.00  0.00    +0.000 A 
ATOM     12  F   UNL     1      -3.442  12.499  24.291  0.00  0.00    +0.000 F 
ATOM     13  C   UNL     1      -4.013  12.777  22.022  0.00  0.00    +0.000 A 
ATOM     14  C   UNL     1      -3.646  12.671  20.680  0.00  0.00    +0.000 A 
ATOM     15  F   UNL     1      -4.547  13.033  19.756  0.00  0.00    +0.000 F 
ENDBRANCH   4   7
BRANCH   1  22
ATOM     16  N   UNL     1       2.412   5.887  19.785  0.00  0.00    +0.000 N 
ATOM     17  C   UNL     1       1.747   6.746  20.641  0.00  0.00    +0.000 A 
ATOM     18  C   UNL     1       1.691   7.929  19.970  0.00  0.00    +0.000 A 
ATOM     19  C   UNL     1       2.345   7.733  18.770  0.00  0.00    +0.000 A 
ATOM     20  N   UNL     1       2.786   6.485  18.596  0.00  0.00    +0.000 NA
ATOM     21  C   UNL     1       2.250   8.937  17.909  0.00  0.00    +0.000 C 
ATOM     22  N   UNL     1       1.542   9.929  18.806  0.00  0.00    +0.000 NA
ATOM     23  C   UNL     1       1.067   9.243  20.055  0.00  0.00    +0.000 C 
BRANCH  16  25
ATOM     24  C   UNL     1       1.119   3.391  19.316  0.00  0.00    +0.000 C 
ATOM     25  S   UNL     1       2.445   4.198  20.153  0.00  0.00    +0.000 S 
ATOM     26  O   UNL     1       2.187   4.141  21.585  0.00  0.00    +0.000 OA
ATOM     27  O   UNL     1       3.697   3.734  19.597  0.00  0.00    +0.000 OA
ENDBRANCH  16  25
ENDBRANCH   1  22
BRANCH   5  28
ATOM     28  N   UNL     1      -0.603  14.385  18.843  0.00  0.00    +0.000 NA
ATOM     29  H   UNL     1       0.325  14.526  19.242  0.00  0.00    +0.000 HD
ATOM     30  H   UNL     1      -1.261  14.528  19.611  0.00  0.00    +0.000 HD
ENDBRANCH   5  28
TORSDOF 4
ENDMDL
MODEL 9
REMARK VINA RESULT:      -7.4      4.840      9.067
REMARK  Name = 
REMARK  5 active torsions:
REMARK  status: ('A' for Active; 'I' for Inactive)
REMARK    1  A    between atoms: C_1  and  S_2
REMARK    2  A    between atoms: S_2  and  N_5
REMARK    3  A    between atoms: N_11  and  C_12
REMARK    4  A    between atoms: C_15  and  C_16
REMARK    5  A    between atoms: C_25  and  N_26
REMARK                            x       y       z     vdW  Elec       q    Type
REMARK                         _______ _______ _______ _____ _____    ______ ____
ROOT
ATOM      1  C   UNL     1       2.500   5.567  19.336  0.00  0.00    +0.000 C 
ATOM      2  C   UNL     1       2.272   5.308  17.817  0.00  0.00    +0.000 C 
ATOM      3  O   UNL     1       2.470   3.973  17.373  0.00  0.00    +0.000 OA
ATOM      4  C   UNL     1       3.739   3.412  17.698  0.00  0.00    +0.000 C 
ATOM      5  C   UNL     1       3.930   3.426  19.242  0.00  0.00    +0.000 C 
ATOM      6  C   UNL     1       3.728   4.809  19.879  0.00  0.00    +0.000 C 
ENDROOT
BRANCH   4   7
ATOM      7  C   UNL     1       4.856   3.920  16.792  0.00  0.00    +0.000 A 
ATOM      8  C   UNL     1       5.180   3.353  15.550  0.00  0.00    +0.000 A 
ATOM      9  C   UNL     1       6.160   3.928  14.739  0.00  0.00    +0.000 A 
ATOM     10  F   UNL     1       6.438   3.368  13.554  0.00  0.00    +0.000 F 
ATOM     11  C   UNL     1       6.832   5.073  15.143  0.00  0.00    +0.000 A 
ATOM     12  F   UNL     1       7.738   5.645  14.337  0.00  0.00    +0.000 F 
ATOM     13  C   UNL     1       6.572   5.629  16.384  0.00  0.00    +0.000 A 
ATOM     14  C   UNL     1       5.610   5.037  17.202  0.00  0.00    +0.000 A 
ATOM     15  F   UNL     1       5.398   5.577  18.410  0.00  0.00    +0.000 F 
ENDBRANCH   4   7
BRANCH   1  22
ATOM     16  N   UNL     1       0.203  10.533  19.255  0.00  0.00    +0.000 N 
ATOM     17  C   UNL     1       1.037  10.081  18.249  0.00  0.00    +0.000 A 
ATOM     18  C   UNL     1       1.623   8.964  18.760  0.00  0.00    +0.000 A 
ATOM     19  C   UNL     1       1.139   8.818  20.045  0.00  0.00    +0.000 A 
ATOM     20  N   UNL     1       0.242   9.744  20.390  0.00  0.00    +0.000 NA
ATOM     21  C   UNL     1       1.634   7.562  20.660  0.00  0.00    +0.000 C 
ATOM     22  N   UNL     1       2.576   7.026  19.606  0.00  0.00    +0.000 NA
ATOM     23  C   UNL     1       2.458   7.842  18.350  0.00  0.00    +0.000 C 
BRANCH  16  25
ATOM     24  C   UNL     1      -0.068  13.264  18.491  0.00  0.00    +0.000 C 
ATOM     25  S   UNL     1      -0.935  11.785  18.900  0.00  0.00    +0.000 S 
ATOM     26  O   UNL     1      -1.635  11.997  20.160  0.00  0.00    +0.000 OA
ATOM     27  O   UNL     1      -1.632  11.313  17.724  0.00  0.00    +0.000 OA
ENDBRANCH  16  25
ENDBRANCH   1  22
BRANCH   5  28
ATOM     28  N   UNL     1       5.187   2.827  19.719  0.00  0.00    +0.000 NA
ATOM     29  H   UNL     1       5.730   3.512  20.242  0.00  0.00    +0.000 HD
ATOM     30  H   UNL     1       5.765   2.565  18.919  0.00  0.00    +0.000 HD
ENDBRANCH   5  28
TORSDOF 4
ENDMDL
