MODEL 1
REMARK VINA RESULT:      -6.5      0.000      0.000
REMARK  Name = 
REMARK  8 active torsions:
REMARK  status: ('A' for Active; 'I' for Inactive)
REMARK    1  A    between atoms: C_3  and  N_4
REMARK    2  A    between atoms: N_4  and  C_5
REMARK    3  A    between atoms: N_4  and  C_9
REMARK    4  A    between atoms: C_5  and  C_6
REMARK    5  A    between atoms: C_9  and  C_10
REMARK    6  A    between atoms: C_15  and  O_16
REMARK    7  A    between atoms: O_16  and  C_17
REMARK    8  A    between atoms: C_17  and  C_18
REMARK                            x       y       z     vdW  Elec       q    Type
REMARK                         _______ _______ _______ _____ _____    ______ ____
ROOT
ATOM      1  C   UNL     1       2.644   5.448  18.039  0.00  0.00    +0.000 A 
ATOM      2  C   UNL     1       3.861   5.655  17.367  0.00  0.00    +0.000 A 
ATOM      3  C   UNL     1       4.667   4.600  16.905  0.00  0.00    +0.000 A 
ATOM      4  C   UNL     1       4.155   3.311  17.129  0.00  0.00    +0.000 A 
ATOM      5  C   UNL     1       2.936   3.093  17.800  0.00  0.00    +0.000 A 
ATOM      6  C   UNL     1       2.169   4.163  18.246  0.00  0.00    +0.000 A 
ENDROOT
BRANCH   3   7
ATOM      7  N   UNL     1       5.888   4.831  16.281  0.00  0.00    +0.000 N 
BRANCH   7   8
ATOM      8  C   UNL     1       7.163   4.593  16.980  0.00  0.00    +0.000 C 
BRANCH   8   9
ATOM      9  C   UNL     1       7.422   5.622  18.042  0.00  0.00    +0.000 C 
ATOM     10  C   UNL     1       6.873   5.512  19.443  0.00  0.00    +0.000 C 
ATOM     11  O   UNL     1       8.227   5.156  19.138  0.00  0.00    +0.000 OA
ENDBRANCH   8   9
ENDBRANCH   7   8
BRANCH   7  12
ATOM     12  C   UNL     1       6.010   5.130  14.847  0.00  0.00    +0.000 C 
BRANCH  12  13
ATOM     13  C   UNL     1       6.320   3.897  14.052  0.00  0.00    +0.000 C 
ATOM     14  C   UNL     1       5.662   3.582  12.729  0.00  0.00    +0.000 C 
ATOM     15  O   UNL     1       6.971   4.161  12.795  0.00  0.00    +0.000 OA
ENDBRANCH  12  13
ENDBRANCH   7  12
ENDBRANCH   3   7
BRANCH   6  16
ATOM     16  O   UNL     1       0.989   3.835  18.853  0.00  0.00    +0.000 OA
BRANCH  16  17
ATOM     17  C   UNL     1       0.942   4.004  20.272  0.00  0.00    +0.000 C 
BRANCH  17  18
ATOM     18  C   UNL     1       1.338   2.718  20.920  0.00  0.00    +0.000 C 
ATOM     19  C   UNL     1       2.698   2.513  21.530  0.00  0.00    +0.000 C 
ATOM     20  O   UNL     1       1.545   2.805  22.336  0.00  0.00    +0.000 OA
ENDBRANCH  17  18
ENDBRANCH  16  17
ENDBRANCH   6  16
TORSDOF 8
ENDMDL
MODEL 2
REMARK VINA RESULT:      -6.3      0.962      3.399
REMARK  Name = 
REMARK  8 active torsions:
REMARK  status: ('A' for Active; 'I' for Inactive)
REMARK    1  A    between atoms: C_3  and  N_4
REMARK    2  A    between atoms: N_4  and  C_5
REMARK    3  A    between atoms: N_4  and  C_9
REMARK    4  A    between atoms: C_5  and  C_6
REMARK    5  A    between atoms: C_9  and  C_10
REMARK    6  A    between atoms: C_15  and  O_16
REMARK    7  A    between atoms: O_16  and  C_17
REMARK    8  A    between atoms: C_17  and  C_18
REMARK                            x       y       z     vdW  Elec       q    Type
REMARK                         _______ _______ _______ _____ _____    ______ ____
ROOT
ATOM      1  C   UNL     1       3.191   2.675  17.643  0.00  0.00    +0.000 A 
ATOM      2  C   UNL     1       4.255   3.467  17.180  0.00  0.00    +0.000 A 
ATOM      3  C   UNL     1       4.192   4.871  17.118  0.00  0.00    +0.000 A 
ATOM      4  C   UNL     1       2.996   5.438  17.587  0.00  0.00    +0.000 A 
ATOM      5  C   UNL     1       1.924   4.653  18.055  0.00  0.00    +0.000 A 
ATOM      6  C   UNL     1       2.024   3.267  18.097  0.00  0.00    +0.000 A 
ENDROOT
BRANCH   3   7
ATOM      7  N   UNL     1       5.243   5.628  16.613  0.00  0.00    +0.000 N 
BRANCH   7   8
ATOM      8  C   UNL     1       5.521   5.687  15.168  0.00  0.00    +0.000 C 
BRANCH   8   9
ATOM      9  C   UNL     1       6.673   4.805  14.782  0.00  0.00    +0.000 C 
ATOM     10  C   UNL     1       6.736   4.064  13.469  0.00  0.00    +0.000 C 
ATOM     11  O   UNL     1       7.448   5.290  13.673  0.00  0.00    +0.000 OA
ENDBRANCH   8   9
ENDBRANCH   7   8
BRANCH   7  12
ATOM     12  C   UNL     1       6.017   6.570  17.436  0.00  0.00    +0.000 C 
BRANCH  12  13
ATOM     13  C   UNL     1       6.673   5.879  18.594  0.00  0.00    +0.000 C 
ATOM     14  C   UNL     1       7.832   4.924  18.435  0.00  0.00    +0.000 C 
ATOM     15  O   UNL     1       8.034   6.288  18.822  0.00  0.00    +0.000 OA
ENDBRANCH  12  13
ENDBRANCH   7  12
ENDBRANCH   3   7
BRANCH   6  16
ATOM     16  O   UNL     1       0.937   2.610  18.602  0.00  0.00    +0.000 OA
BRANCH  16  17
ATOM     17  C   UNL     1       0.550   2.962  19.933  0.00  0.00    +0.000 C 
BRANCH  17  18
ATOM     18  C   UNL     1       1.603   2.488  20.878  0.00  0.00    +0.000 C 
ATOM     19  C   UNL     1       2.357   3.430  21.777  0.00  0.00    +0.000 C 
ATOM     20  O   UNL     1       1.267   2.632  22.265  0.00  0.00    +0.000 OA
ENDBRANCH  17  18
ENDBRANCH  16  17
ENDBRANCH   6  16
TORSDOF 8
ENDMDL
MODEL 3
REMARK VINA RESULT:      -6.3      3.902      5.220
REMARK  Name = 
REMARK  8 active torsions:
REMARK  status: ('A' for Active; 'I' for Inactive)
REMARK    1  A    between atoms: C_3  and  N_4
REMARK    2  A    between atoms: N_4  and  C_5
REMARK    3  A    between atoms: N_4  and  C_9
REMARK    4  A    between atoms: C_5  and  C_6
REMARK    5  A    between atoms: C_9  and  C_10
REMARK    6  A    between atoms: C_15  and  O_16
REMARK    7  A    between atoms: O_16  and  C_17
REMARK    8  A    between atoms: C_17  and  C_18
REMARK                            x       y       z     vdW  Elec       q    Type
REMARK                         _______ _______ _______ _____ _____    ______ ____
ROOT
ATOM      1  C   UNL     1       1.793   7.564  20.195  0.00  0.00    +0.000 A 
ATOM      2  C   UNL     1       2.660   6.594  19.668  0.00  0.00    +0.000 A 
ATOM      3  C   UNL     1       3.228   6.691  18.385  0.00  0.00    +0.000 A 
ATOM      4  C   UNL     1       2.895   7.854  17.670  0.00  0.00    +0.000 A 
ATOM      5  C   UNL     1       2.027   8.834  18.190  0.00  0.00    +0.000 A 
ATOM      6  C   UNL     1       1.483   8.698  19.462  0.00  0.00    +0.000 A 
ENDROOT
BRANCH   3   7
ATOM      7  N   UNL     1       4.049   5.695  17.870  0.00  0.00    +0.000 N 
BRANCH   7   8
ATOM      8  C   UNL     1       3.983   4.311  18.373  0.00  0.00    +0.000 C 
BRANCH   8   9
ATOM      9  C   UNL     1       3.376   3.377  17.366  0.00  0.00    +0.000 C 
ATOM     10  C   UNL     1       2.398   2.291  17.740  0.00  0.00    +0.000 C 
ATOM     11  O   UNL     1       1.959   3.537  17.186  0.00  0.00    +0.000 OA
ENDBRANCH   8   9
ENDBRANCH   7   8
BRANCH   7  12
ATOM     12  C   UNL     1       4.884   5.884  16.674  0.00  0.00    +0.000 C 
BRANCH  12  13
ATOM     13  C   UNL     1       6.344   5.845  17.011  0.00  0.00    +0.000 C 
ATOM     14  C   UNL     1       7.238   4.675  16.670  0.00  0.00    +0.000 C 
ATOM     15  O   UNL     1       7.209   5.856  15.859  0.00  0.00    +0.000 OA
ENDBRANCH  12  13
ENDBRANCH   7  12
ENDBRANCH   3   7
BRANCH   6  16
ATOM     16  O   UNL     1       0.683   9.726  19.877  0.00  0.00    +0.000 OA
BRANCH  16  17
ATOM     17  C   UNL     1      -0.195   9.439  20.970  0.00  0.00    +0.000 C 
BRANCH  17  18
ATOM     18  C   UNL     1      -0.068  10.527  21.983  0.00  0.00    +0.000 C 
ATOM     19  C   UNL     1      -1.077  10.723  23.081  0.00  0.00    +0.000 C 
ATOM     20  O   UNL     1       0.181  10.070  23.319  0.00  0.00    +0.000 OA
ENDBRANCH  17  18
ENDBRANCH  16  17
ENDBRANCH   6  16
TORSDOF 8
ENDMDL
MODEL 4
REMARK VINA RESULT:      -6.3      0.731      1.313
REMARK  Name = 
REMARK  8 active torsions:
REMARK  status: ('A' for Active; 'I' for Inactive)
REMARK    1  A    between atoms: C_3  and  N_4
REMARK    2  A    between atoms: N_4  and  C_5
REMARK    3  A    between atoms: N_4  and  C_9
REMARK    4  A    between atoms: C_5  and  C_6
REMARK    5  A    between atoms: C_9  and  C_10
REMARK    6  A    between atoms: C_15  and  O_16
REMARK    7  A    between atoms: O_16  and  C_17
REMARK    8  A    between atoms: C_17  and  C_18
REMARK                            x       y       z     vdW  Elec       q    Type
REMARK                         _______ _______ _______ _____ _____    ______ ____
ROOT
ATOM      1  C   UNL     1       2.985   3.038  17.502  0.00  0.00    +0.000 A 
ATOM      2  C   UNL     1       4.225   3.464  16.997  0.00  0.00    +0.000 A 
ATOM      3  C   UNL     1       4.673   4.793  17.091  0.00  0.00    +0.000 A 
ATOM      4  C   UNL     1       3.806   5.672  17.761  0.00  0.00    +0.000 A 
ATOM      5  C   UNL     1       2.561   5.255  18.272  0.00  0.00    +0.000 A 
ATOM      6  C   UNL     1       2.152   3.932  18.156  0.00  0.00    +0.000 A 
ENDROOT
BRANCH   3   7
ATOM      7  N   UNL     1       5.886   5.197  16.545  0.00  0.00    +0.000 N 
BRANCH   7   8
ATOM      8  C   UNL     1       6.606   6.373  17.061  0.00  0.00    +0.000 C 
BRANCH   8   9
ATOM      9  C   UNL     1       7.669   5.991  18.051  0.00  0.00    +0.000 C 
ATOM     10  C   UNL     1       7.372   5.686  19.498  0.00  0.00    +0.000 C 
ATOM     11  O   UNL     1       7.570   4.642  18.537  0.00  0.00    +0.000 OA
ENDBRANCH   8   9
ENDBRANCH   7   8
BRANCH   7  12
ATOM     12  C   UNL     1       6.632   4.388  15.569  0.00  0.00    +0.000 C 
BRANCH  12  13
ATOM     13  C   UNL     1       6.233   4.716  14.162  0.00  0.00    +0.000 C 
ATOM     14  C   UNL     1       6.996   4.228  12.953  0.00  0.00    +0.000 C 
ATOM     15  O   UNL     1       5.800   3.575  13.397  0.00  0.00    +0.000 OA
ENDBRANCH  12  13
ENDBRANCH   7  12
ENDBRANCH   3   7
BRANCH   6  16
ATOM     16  O   UNL     1       0.942   3.633  18.718  0.00  0.00    +0.000 OA
BRANCH  16  17
ATOM     17  C   UNL     1       0.847   3.803  20.135  0.00  0.00    +0.000 C 
BRANCH  17  18
ATOM     18  C   UNL     1       1.432   2.602  20.800  0.00  0.00    +0.000 C 
ATOM     19  C   UNL     1       2.777   2.634  21.475  0.00  0.00    +0.000 C 
ATOM     20  O   UNL     1       1.554   2.711  22.225  0.00  0.00    +0.000 OA
ENDBRANCH  17  18
ENDBRANCH  16  17
ENDBRANCH   6  16
TORSDOF 8
ENDMDL
MODEL 5
REMARK VINA RESULT:      -6.2      0.501      3.650
REMARK  Name = 
REMARK  8 active torsions:
REMARK  status: ('A' for Active; 'I' for Inactive)
REMARK    1  A    between atoms: C_3  and  N_4
REMARK    2  A    between atoms: N_4  and  C_5
REMARK    3  A    between atoms: N_4  and  C_9
REMARK    4  A    between atoms: C_5  and  C_6
REMARK    5  A    between atoms: C_9  and  C_10
REMARK    6  A    between atoms: C_15  and  O_16
REMARK    7  A    between atoms: O_16  and  C_17
REMARK    8  A    between atoms: C_17  and  C_18
REMARK                            x       y       z     vdW  Elec       q    Type
REMARK                         _______ _______ _______ _____ _____    ______ ____
ROOT
ATOM      1  C   UNL     1       2.972   3.256  17.765  0.00  0.00    +0.000 A 
ATOM      2  C   UNL     1       4.180   3.528  17.101  0.00  0.00    +0.000 A 
ATOM      3  C   UNL     1       4.649   4.834  16.871  0.00  0.00    +0.000 A 
ATOM      4  C   UNL     1       3.839   5.860  17.384  0.00  0.00    +0.000 A 
ATOM      5  C   UNL     1       2.627   5.599  18.052  0.00  0.00    +0.000 A 
ATOM      6  C   UNL     1       2.196   4.293  18.257  0.00  0.00    +0.000 A 
ENDROOT
BRANCH   3   7
ATOM      7  N   UNL     1       5.827   5.076  16.173  0.00  0.00    +0.000 N 
BRANCH   7   8
ATOM      8  C   UNL     1       5.832   5.230  14.708  0.00  0.00    +0.000 C 
BRANCH   8   9
ATOM      9  C   UNL     1       6.331   3.995  14.016  0.00  0.00    +0.000 C 
ATOM     10  C   UNL     1       5.773   3.508  12.702  0.00  0.00    +0.000 C 
ATOM     11  O   UNL     1       7.002   4.242  12.769  0.00  0.00    +0.000 OA
ENDBRANCH   8   9
ENDBRANCH   7   8
BRANCH   7  12
ATOM     12  C   UNL     1       7.100   5.393  16.838  0.00  0.00    +0.000 C 
BRANCH  12  13
ATOM     13  C   UNL     1       6.878   6.107  18.138  0.00  0.00    +0.000 C 
ATOM     14  C   UNL     1       7.488   5.651  19.443  0.00  0.00    +0.000 C 
ATOM     15  O   UNL     1       8.067   6.715  18.678  0.00  0.00    +0.000 OA
ENDBRANCH  12  13
ENDBRANCH   7  12
ENDBRANCH   3   7
BRANCH   6  16
ATOM     16  O   UNL     1       1.023   4.157  18.946  0.00  0.00    +0.000 OA
BRANCH  16  17
ATOM     17  C   UNL     1       1.112   4.275  20.369  0.00  0.00    +0.000 C 
BRANCH  17  18
ATOM     18  C   UNL     1       1.393   2.926  20.944  0.00  0.00    +0.000 C 
ATOM     19  C   UNL     1       2.771   2.514  21.385  0.00  0.00    +0.000 C 
ATOM     20  O   UNL     1       1.771   2.936  22.327  0.00  0.00    +0.000 OA
ENDBRANCH  17  18
ENDBRANCH  16  17
ENDBRANCH   6  16
TORSDOF 8
ENDMDL
MODEL 6
REMARK VINA RESULT:      -6.1      0.982      1.017
REMARK  Name = 
REMARK  8 active torsions:
REMARK  status: ('A' for Active; 'I' for Inactive)
REMARK    1  A    between atoms: C_3  and  N_4
REMARK    2  A    between atoms: N_4  and  C_5
REMARK    3  A    between atoms: N_4  and  C_9
REMARK    4  A    between atoms: C_5  and  C_6
REMARK    5  A    between atoms: C_9  and  C_10
REMARK    6  A    between atoms: C_15  and  O_16
REMARK    7  A    between atoms: O_16  and  C_17
REMARK    8  A    between atoms: C_17  and  C_18
REMARK                            x       y       z     vdW  Elec       q    Type
REMARK                         _______ _______ _______ _____ _____    ______ ____
ROOT
ATOM      1  C   UNL     1       2.694   5.568  17.953  0.00  0.00    +0.000 A 
ATOM      2  C   UNL     1       3.969   5.879  17.453  0.00  0.00    +0.000 A 
ATOM      3  C   UNL     1       4.838   4.911  16.919  0.00  0.00    +0.000 A 
ATOM      4  C   UNL     1       4.330   3.602  16.888  0.00  0.00    +0.000 A 
ATOM      5  C   UNL     1       3.053   3.280  17.386  0.00  0.00    +0.000 A 
ATOM      6  C   UNL     1       2.224   4.265  17.909  0.00  0.00    +0.000 A 
ENDROOT
BRANCH   3   7
ATOM      7  N   UNL     1       6.112   5.240  16.470  0.00  0.00    +0.000 N 
BRANCH   7   8
ATOM      8  C   UNL     1       6.863   6.367  17.052  0.00  0.00    +0.000 C 
BRANCH   8   9
ATOM      9  C   UNL     1       7.777   5.921  18.157  0.00  0.00    +0.000 C 
ATOM     10  C   UNL     1       7.299   5.662  19.564  0.00  0.00    +0.000 C 
ATOM     11  O   UNL     1       7.522   4.591  18.639  0.00  0.00    +0.000 OA
ENDBRANCH   8   9
ENDBRANCH   7   8
BRANCH   7  12
ATOM     12  C   UNL     1       6.879   4.391  15.546  0.00  0.00    +0.000 C 
BRANCH  12  13
ATOM     13  C   UNL     1       6.582   4.727  14.116  0.00  0.00    +0.000 C 
ATOM     14  C   UNL     1       6.465   3.683  13.031  0.00  0.00    +0.000 C 
ATOM     15  O   UNL     1       5.305   4.246  13.656  0.00  0.00    +0.000 OA
ENDBRANCH  12  13
ENDBRANCH   7  12
ENDBRANCH   3   7
BRANCH   6  16
ATOM     16  O   UNL     1       0.994   3.844  18.331  0.00  0.00    +0.000 OA
BRANCH  16  17
ATOM     17  C   UNL     1       0.977   2.672  19.152  0.00  0.00    +0.000 C 
BRANCH  17  18
ATOM     18  C   UNL     1       0.813   3.088  20.575  0.00  0.00    +0.000 C 
ATOM     19  C   UNL     1       1.864   2.817  21.617  0.00  0.00    +0.000 C 
ATOM     20  O   UNL     1       1.722   4.110  21.006  0.00  0.00    +0.000 OA
ENDBRANCH  17  18
ENDBRANCH  16  17
ENDBRANCH   6  16
TORSDOF 8
ENDMDL
MODEL 7
REMARK VINA RESULT:      -6.1      4.038      5.507
REMARK  Name = 
REMARK  8 active torsions:
REMARK  status: ('A' for Active; 'I' for Inactive)
REMARK    1  A    between atoms: C_3  and  N_4
REMARK    2  A    between atoms: N_4  and  C_5
REMARK    3  A    between atoms: N_4  and  C_9
REMARK    4  A    between atoms: C_5  and  C_6
REMARK    5  A    between atoms: C_9  and  C_10
REMARK    6  A    between atoms: C_15  and  O_16
REMARK    7  A    between atoms: O_16  and  C_17
REMARK    8  A    between atoms: C_17  and  C_18
REMARK                            x       y       z     vdW  Elec       q    Type
REMARK                         _______ _______ _______ _____ _____    ______ ____
ROOT
ATOM      1  C   UNL     1       1.663   7.863  20.392  0.00  0.00    +0.000 A 
ATOM      2  C   UNL     1       2.338   6.734  19.898  0.00  0.00    +0.000 A 
ATOM      3  C   UNL     1       2.806   6.641  18.575  0.00  0.00    +0.000 A 
ATOM      4  C   UNL     1       2.583   7.777  17.780  0.00  0.00    +0.000 A 
ATOM      5  C   UNL     1       1.908   8.914  18.265  0.00  0.00    +0.000 A 
ATOM      6  C   UNL     1       1.457   8.966  19.579  0.00  0.00    +0.000 A 
ENDROOT
BRANCH   3   7
ATOM      7  N   UNL     1       3.432   5.495  18.099  0.00  0.00    +0.000 N 
BRANCH   7   8
ATOM      8  C   UNL     1       4.407   5.556  16.997  0.00  0.00    +0.000 C 
BRANCH   8   9
ATOM      9  C   UNL     1       5.762   5.996  17.470  0.00  0.00    +0.000 C 
ATOM     10  C   UNL     1       7.022   5.782  16.668  0.00  0.00    +0.000 C 
ATOM     11  O   UNL     1       6.352   7.048  16.688  0.00  0.00    +0.000 OA
ENDBRANCH   8   9
ENDBRANCH   7   8
BRANCH   7  12
ATOM     12  C   UNL     1       3.332   4.191  18.773  0.00  0.00    +0.000 C 
BRANCH  12  13
ATOM     13  C   UNL     1       2.487   3.231  17.990  0.00  0.00    +0.000 C 
ATOM     14  C   UNL     1       1.209   2.631  18.527  0.00  0.00    +0.000 C 
ATOM     15  O   UNL     1       1.192   3.751  17.634  0.00  0.00    +0.000 OA
ENDBRANCH  12  13
ENDBRANCH   7  12
ENDBRANCH   3   7
BRANCH   6  16
ATOM     16  O   UNL     1       0.848  10.131  19.952  0.00  0.00    +0.000 OA
BRANCH  16  17
ATOM     17  C   UNL     1      -0.407   9.999  20.626  0.00  0.00    +0.000 C 
BRANCH  17  18
ATOM     18  C   UNL     1      -0.369  10.818  21.872  0.00  0.00    +0.000 C 
ATOM     19  C   UNL     1      -0.948  10.330  23.172  0.00  0.00    +0.000 C 
ATOM     20  O   UNL     1       0.464  10.284  22.911  0.00  0.00    +0.000 OA
ENDBRANCH  17  18
ENDBRANCH  16  17
ENDBRANCH   6  16
TORSDOF 8
ENDMDL
MODEL 8
REMARK VINA RESULT:      -6.1      0.998      3.411
REMARK  Name = 
REMARK  8 active torsions:
REMARK  status: ('A' for Active; 'I' for Inactive)
REMARK    1  A    between atoms: C_3  and  N_4
REMARK    2  A    between atoms: N_4  and  C_5
REMARK    3  A    between atoms: N_4  and  C_9
REMARK    4  A    between atoms: C_5  and  C_6
REMARK    5  A    between atoms: C_9  and  C_10
REMARK    6  A    between atoms: C_15  and  O_16
REMARK    7  A    between atoms: O_16  and  C_17
REMARK    8  A    between atoms: C_17  and  C_18
REMARK                            x       y       z     vdW  Elec       q    Type
REMARK                         _______ _______ _______ _____ _____    ______ ____
ROOT
ATOM      1  C   UNL     1       1.981   4.928  18.169  0.00  0.00    +0.000 A 
ATOM      2  C   UNL     1       3.143   5.563  17.702  0.00  0.00    +0.000 A 
ATOM      3  C   UNL     1       4.228   4.861  17.146  0.00  0.00    +0.000 A 
ATOM      4  C   UNL     1       4.056   3.470  17.055  0.00  0.00    +0.000 A 
ATOM      5  C   UNL     1       2.894   2.823  17.518  0.00  0.00    +0.000 A 
ATOM      6  C   UNL     1       1.845   3.553  18.065  0.00  0.00    +0.000 A 
ENDROOT
BRANCH   3   7
ATOM      7  N   UNL     1       5.385   5.511  16.732  0.00  0.00    +0.000 N 
BRANCH   7   8
ATOM      8  C   UNL     1       5.669   5.734  15.304  0.00  0.00    +0.000 C 
BRANCH   8   9
ATOM      9  C   UNL     1       6.753   4.826  14.799  0.00  0.00    +0.000 C 
ATOM     10  C   UNL     1       6.661   4.091  13.485  0.00  0.00    +0.000 C 
ATOM     11  O   UNL     1       7.421   5.298  13.617  0.00  0.00    +0.000 OA
ENDBRANCH   8   9
ENDBRANCH   7   8
BRANCH   7  12
ATOM     12  C   UNL     1       6.297   6.192  17.663  0.00  0.00    +0.000 C 
BRANCH  12  13
ATOM     13  C   UNL     1       6.806   5.255  18.717  0.00  0.00    +0.000 C 
ATOM     14  C   UNL     1       8.241   5.249  19.191  0.00  0.00    +0.000 C 
ATOM     15  O   UNL     1       7.210   5.911  19.934  0.00  0.00    +0.000 OA
ENDBRANCH  12  13
ENDBRANCH   7  12
ENDBRANCH   3   7
BRANCH   6  16
ATOM     16  O   UNL     1       0.754   2.825  18.450  0.00  0.00    +0.000 OA
BRANCH  16  17
ATOM     17  C   UNL     1       0.388   2.920  19.830  0.00  0.00    +0.000 C 
BRANCH  17  18
ATOM     18  C   UNL     1       1.555   2.507  20.663  0.00  0.00    +0.000 C 
ATOM     19  C   UNL     1       2.205   3.437  21.652  0.00  0.00    +0.000 C 
ATOM     20  O   UNL     1       1.281   2.418  22.068  0.00  0.00    +0.000 OA
ENDBRANCH  17  18
ENDBRANCH  16  17
ENDBRANCH   6  16
TORSDOF 8
ENDMDL
MODEL 9
REMARK VINA RESULT:      -6.1      0.769      3.562
REMARK  Name = 
REMARK  8 active torsions:
REMARK  status: ('A' for Active; 'I' for Inactive)
REMARK    1  A    between atoms: C_3  and  N_4
REMARK    2  A    between atoms: N_4  and  C_5
REMARK    3  A    between atoms: N_4  and  C_9
REMARK    4  A    between atoms: C_5  and  C_6
REMARK    5  A    between atoms: C_9  and  C_10
REMARK    6  A    between atoms: C_15  and  O_16
REMARK    7  A    between atoms: O_16  and  C_17
REMARK    8  A    between atoms: C_17  and  C_18
REMARK                            x       y       z     vdW  Elec       q    Type
REMARK                         _______ _______ _______ _____ _____    ______ ____
ROOT
ATOM      1  C   UNL     1       2.776   5.492  17.817  0.00  0.00    +0.000 A 
ATOM      2  C   UNL     1       4.048   5.664  17.247  0.00  0.00    +0.000 A 
ATOM      3  C   UNL     1       4.831   4.590  16.786  0.00  0.00    +0.000 A 
ATOM      4  C   UNL     1       4.236   3.323  16.903  0.00  0.00    +0.000 A 
ATOM      5  C   UNL     1       2.961   3.140  17.472  0.00  0.00    +0.000 A 
ATOM      6  C   UNL     1       2.219   4.228  17.919  0.00  0.00    +0.000 A 
ENDROOT
BRANCH   3   7
ATOM      7  N   UNL     1       6.106   4.784  16.266  0.00  0.00    +0.000 N 
BRANCH   7   8
ATOM      8  C   UNL     1       6.311   5.118  14.846  0.00  0.00    +0.000 C 
BRANCH   8   9
ATOM      9  C   UNL     1       6.436   3.889  13.994  0.00  0.00    +0.000 C 
ATOM     10  C   UNL     1       5.568   3.635  12.787  0.00  0.00    +0.000 C 
ATOM     11  O   UNL     1       6.903   4.137  12.657  0.00  0.00    +0.000 OA
ENDBRANCH   8   9
ENDBRANCH   7   8
BRANCH   7  12
ATOM     12  C   UNL     1       7.308   4.873  17.109  0.00  0.00    +0.000 C 
BRANCH  12  13
ATOM     13  C   UNL     1       7.055   5.683  18.344  0.00  0.00    +0.000 C 
ATOM     14  C   UNL     1       7.983   5.679  19.537  0.00  0.00    +0.000 C 
ATOM     15  O   UNL     1       8.021   6.729  18.563  0.00  0.00    +0.000 OA
ENDBRANCH  12  13
ENDBRANCH   7  12
ENDBRANCH   3   7
BRANCH   6  16
ATOM     16  O   UNL     1       0.982   3.936  18.420  0.00  0.00    +0.000 OA
BRANCH  16  17
ATOM     17  C   UNL     1       0.925   2.877  19.380  0.00  0.00    +0.000 C 
BRANCH  17  18
ATOM     18  C   UNL     1       1.256   3.433  20.725  0.00  0.00    +0.000 C 
ATOM     19  C   UNL     1       1.642   2.555  21.884  0.00  0.00    +0.000 C 
ATOM     20  O   UNL     1       2.626   3.268  21.117  0.00  0.00    +0.000 OA
ENDBRANCH  17  18
ENDBRANCH  16  17
ENDBRANCH   6  16
TORSDOF 8
ENDMDL
