MODEL 1
REMARK VINA RESULT:      -7.8      0.000      0.000
REMARK  Name = 
REMARK  5 active torsions:
REMARK  status: ('A' for Active; 'I' for Inactive)
REMARK    1  A    between atoms: C_1  and  C_2
REMARK    2  A    between atoms: C_5  and  S_6
REMARK    3  A    between atoms: S_6  and  N_9
REMARK    4  A    between atoms: C_16  and  S_17
REMARK    5  A    between atoms: S_17  and  N_18
REMARK                            x       y       z     vdW  Elec       q    Type
REMARK                         _______ _______ _______ _____ _____    ______ ____
ROOT
ATOM      1  N   UNL     1       5.594   5.922  17.840  0.00  0.00    +0.000 N 
ATOM      2  C   UNL     1       5.013   5.243  18.904  0.00  0.00    +0.000 C 
ATOM      3  O   UNL     1       5.508   4.239  19.396  0.00  0.00    +0.000 OA
ATOM      4  N   UNL     1       3.847   5.739  19.428  0.00  0.00    +0.000 N 
ATOM      5  C   UNL     1       3.188   6.821  18.924  0.00  0.00    +0.000 A 
ATOM      6  N   UNL     1       3.409   7.430  17.781  0.00  0.00    +0.000 NA
ATOM      7  N   UNL     1       2.592   8.526  17.620  0.00  0.00    +0.000 NA
ATOM      8  C   UNL     1       1.811   8.687  18.670  0.00  0.00    +0.000 A 
ATOM      9  S   UNL     1       1.953   7.495  19.885  0.00  0.00    +0.000 S 
ATOM     10  H   UNL     1       5.117   6.710  17.406  0.00  0.00    +0.000 HD
ATOM     11  H   UNL     1       3.519   5.298  20.274  0.00  0.00    +0.000 HD
ENDROOT
BRANCH   1  12
ATOM     12  S   UNL     1       7.056   5.585  17.143  0.00  0.00    +0.000 S 
ATOM     13  O   UNL     1       7.734   4.601  17.962  0.00  0.00    +0.000 OA
ATOM     14  O   UNL     1       7.667   6.869  16.872  0.00  0.00    +0.000 OA
BRANCH  12  19
ATOM     15  C   UNL     1       5.686   3.072  11.801  0.00  0.00    +0.000 C 
ATOM     16  C   UNL     1       6.024   3.711  13.117  0.00  0.00    +0.000 A 
ATOM     17  C   UNL     1       7.146   4.537  13.247  0.00  0.00    +0.000 A 
ATOM     18  C   UNL     1       7.461   5.115  14.478  0.00  0.00    +0.000 A 
ATOM     19  C   UNL     1       6.640   4.870  15.581  0.00  0.00    +0.000 A 
ATOM     20  C   UNL     1       5.515   4.051  15.468  0.00  0.00    +0.000 A 
ATOM     21  C   UNL     1       5.211   3.471  14.236  0.00  0.00    +0.000 A 
ENDBRANCH  12  19
ENDBRANCH   1  12
BRANCH   8  22
ATOM     22  S   UNL     1       0.693  10.033  18.883  0.00  0.00    +0.000 S 
ATOM     23  O   UNL     1      -0.054   9.732  20.081  0.00  0.00    +0.000 OA
ATOM     24  O   UNL     1       1.493  11.227  18.727  0.00  0.00    +0.000 OA
BRANCH  22  25
ATOM     25  N   UNL     1      -0.400  10.004  17.598  0.00  0.00    +0.000 NA
ATOM     26  H   UNL     1      -0.114   9.355  16.864  0.00  0.00    +0.000 HD
ATOM     27  H   UNL     1      -0.616  10.942  17.256  0.00  0.00    +0.000 HD
ENDBRANCH  22  25
ENDBRANCH   8  22
TORSDOF 4
ENDMDL
MODEL 2
REMARK VINA RESULT:      -7.8      0.034      1.012
REMARK  Name = 
REMARK  5 active torsions:
REMARK  status: ('A' for Active; 'I' for Inactive)
REMARK    1  A    between atoms: C_1  and  C_2
REMARK    2  A    between atoms: C_5  and  S_6
REMARK    3  A    between atoms: S_6  and  N_9
REMARK    4  A    between atoms: C_16  and  S_17
REMARK    5  A    between atoms: S_17  and  N_18
REMARK                            x       y       z     vdW  Elec       q    Type
REMARK                         _______ _______ _______ _____ _____    ______ ____
ROOT
ATOM      1  N   UNL     1       5.609   5.914  17.856  0.00  0.00    +0.000 N 
ATOM      2  C   UNL     1       5.021   5.230  18.913  0.00  0.00    +0.000 C 
ATOM      3  O   UNL     1       5.513   4.224  19.405  0.00  0.00    +0.000 OA
ATOM      4  N   UNL     1       3.850   5.723  19.431  0.00  0.00    +0.000 N 
ATOM      5  C   UNL     1       3.195   6.807  18.926  0.00  0.00    +0.000 A 
ATOM      6  N   UNL     1       3.424   7.422  17.788  0.00  0.00    +0.000 NA
ATOM      7  N   UNL     1       2.608   8.518  17.625  0.00  0.00    +0.000 NA
ATOM      8  C   UNL     1       1.818   8.673  18.671  0.00  0.00    +0.000 A 
ATOM      9  S   UNL     1       1.952   7.476  19.881  0.00  0.00    +0.000 S 
ATOM     10  H   UNL     1       5.135   6.704  17.422  0.00  0.00    +0.000 HD
ATOM     11  H   UNL     1       3.516   5.278  20.272  0.00  0.00    +0.000 HD
ENDROOT
BRANCH   1  12
ATOM     12  S   UNL     1       7.077   5.582  17.169  0.00  0.00    +0.000 S 
ATOM     13  O   UNL     1       7.759   4.612  18.002  0.00  0.00    +0.000 OA
ATOM     14  O   UNL     1       7.679   6.867  16.886  0.00  0.00    +0.000 OA
BRANCH  12  19
ATOM     15  C   UNL     1       5.632   3.124  11.821  0.00  0.00    +0.000 C 
ATOM     16  C   UNL     1       5.992   3.716  13.153  0.00  0.00    +0.000 A 
ATOM     17  C   UNL     1       5.201   3.476  14.283  0.00  0.00    +0.000 A 
ATOM     18  C   UNL     1       5.535   4.044  15.514  0.00  0.00    +0.000 A 
ATOM     19  C   UNL     1       6.673   4.847  15.613  0.00  0.00    +0.000 A 
ATOM     20  C   UNL     1       7.474   5.094  14.497  0.00  0.00    +0.000 A 
ATOM     21  C   UNL     1       7.130   4.530  13.268  0.00  0.00    +0.000 A 
ENDBRANCH  12  19
ENDBRANCH   1  12
BRANCH   8  22
ATOM     22  S   UNL     1       0.698  10.018  18.881  0.00  0.00    +0.000 S 
ATOM     23  O   UNL     1      -0.058   9.711  20.072  0.00  0.00    +0.000 OA
ATOM     24  O   UNL     1       1.498  11.213  18.736  0.00  0.00    +0.000 OA
BRANCH  22  25
ATOM     25  N   UNL     1      -0.386   9.993  17.587  0.00  0.00    +0.000 NA
ATOM     26  H   UNL     1      -0.156  10.692  16.880  0.00  0.00    +0.000 HD
ATOM     27  H   UNL     1      -1.358  10.028  17.900  0.00  0.00    +0.000 HD
ENDBRANCH  22  25
ENDBRANCH   8  22
TORSDOF 4
ENDMDL
MODEL 3
REMARK VINA RESULT:      -7.5      4.640      5.965
REMARK  Name = 
REMARK  5 active torsions:
REMARK  status: ('A' for Active; 'I' for Inactive)
REMARK    1  A    between atoms: C_1  and  C_2
REMARK    2  A    between atoms: C_5  and  S_6
REMARK    3  A    between atoms: S_6  and  N_9
REMARK    4  A    between atoms: C_16  and  S_17
REMARK    5  A    between atoms: S_17  and  N_18
REMARK                            x       y       z     vdW  Elec       q    Type
REMARK                         _______ _______ _______ _____ _____    ______ ____
ROOT
ATOM      1  N   UNL     1       7.241   6.620  17.167  0.00  0.00    +0.000 N 
ATOM      2  C   UNL     1       7.861   6.394  18.390  0.00  0.00    +0.000 C 
ATOM      3  O   UNL     1       7.922   5.287  18.906  0.00  0.00    +0.000 OA
ATOM      4  N   UNL     1       8.442   7.461  19.027  0.00  0.00    +0.000 N 
ATOM      5  C   UNL     1       8.390   8.742  18.562  0.00  0.00    +0.000 A 
ATOM      6  N   UNL     1       7.638   9.211  17.593  0.00  0.00    +0.000 NA
ATOM      7  N   UNL     1       7.886  10.543  17.351  0.00  0.00    +0.000 NA
ATOM      8  C   UNL     1       8.833  10.996  18.151  0.00  0.00    +0.000 A 
ATOM      9  S   UNL     1       9.434   9.875  19.290  0.00  0.00    +0.000 S 
ATOM     10  H   UNL     1       7.143   7.565  16.803  0.00  0.00    +0.000 HD
ATOM     11  H   UNL     1       8.989   7.243  19.847  0.00  0.00    +0.000 HD
ENDROOT
BRANCH   1  12
ATOM     12  S   UNL     1       6.599   5.469  16.167  0.00  0.00    +0.000 S 
ATOM     13  O   UNL     1       7.482   4.322  16.168  0.00  0.00    +0.000 OA
ATOM     14  O   UNL     1       6.278   6.154  14.934  0.00  0.00    +0.000 OA
BRANCH  12  19
ATOM     15  C   UNL     1       1.383   3.963  18.862  0.00  0.00    +0.000 C 
ATOM     16  C   UNL     1       2.668   4.328  18.179  0.00  0.00    +0.000 A 
ATOM     17  C   UNL     1       3.488   3.343  17.616  0.00  0.00    +0.000 A 
ATOM     18  C   UNL     1       4.690   3.692  16.996  0.00  0.00    +0.000 A 
ATOM     19  C   UNL     1       5.065   5.036  16.932  0.00  0.00    +0.000 A 
ATOM     20  C   UNL     1       4.258   6.031  17.487  0.00  0.00    +0.000 A 
ATOM     21  C   UNL     1       3.061   5.674  18.111  0.00  0.00    +0.000 A 
ENDBRANCH  12  19
ENDBRANCH   1  12
BRANCH   8  22
ATOM     22  S   UNL     1       9.498  12.626  18.082  0.00  0.00    +0.000 S 
ATOM     23  O   UNL     1       9.516  13.096  19.447  0.00  0.00    +0.000 OA
ATOM     24  O   UNL     1      10.685  12.525  17.263  0.00  0.00    +0.000 OA
BRANCH  22  25
ATOM     25  N   UNL     1       8.403  13.595  17.240  0.00  0.00    +0.000 NA
ATOM     26  H   UNL     1       7.440  13.281  17.360  0.00  0.00    +0.000 HD
ATOM     27  H   UNL     1       8.675  13.723  16.264  0.00  0.00    +0.000 HD
ENDBRANCH  22  25
ENDBRANCH   8  22
TORSDOF 4
ENDMDL
MODEL 4
REMARK VINA RESULT:      -7.5      2.220      2.806
REMARK  Name = 
REMARK  5 active torsions:
REMARK  status: ('A' for Active; 'I' for Inactive)
REMARK    1  A    between atoms: C_1  and  C_2
REMARK    2  A    between atoms: C_5  and  S_6
REMARK    3  A    between atoms: S_6  and  N_9
REMARK    4  A    between atoms: C_16  and  S_17
REMARK    5  A    between atoms: S_17  and  N_18
REMARK                            x       y       z     vdW  Elec       q    Type
REMARK                         _______ _______ _______ _____ _____    ______ ____
ROOT
ATOM      1  N   UNL     1       3.306   4.605  19.511  0.00  0.00    +0.000 N 
ATOM      2  C   UNL     1       2.561   4.703  20.679  0.00  0.00    +0.000 C 
ATOM      3  O   UNL     1       2.500   3.800  21.502  0.00  0.00    +0.000 OA
ATOM      4  N   UNL     1       1.884   5.872  20.918  0.00  0.00    +0.000 N 
ATOM      5  C   UNL     1       1.847   6.919  20.045  0.00  0.00    +0.000 A 
ATOM      6  N   UNL     1       2.243   6.930  18.793  0.00  0.00    +0.000 NA
ATOM      7  N   UNL     1       2.111   8.178  18.227  0.00  0.00    +0.000 NA
ATOM      8  C   UNL     1       1.635   9.042  19.102  0.00  0.00    +0.000 A 
ATOM      9  S   UNL     1       1.247   8.400  20.636  0.00  0.00    +0.000 S 
ATOM     10  H   UNL     1       3.274   5.345  18.812  0.00  0.00    +0.000 HD
ATOM     11  H   UNL     1       1.456   5.958  21.828  0.00  0.00    +0.000 HD
ENDROOT
BRANCH   1  12
ATOM     12  S   UNL     1       4.300   3.353  19.084  0.00  0.00    +0.000 S 
ATOM     13  O   UNL     1       3.474   2.219  18.725  0.00  0.00    +0.000 OA
ATOM     14  O   UNL     1       5.279   3.249  20.145  0.00  0.00    +0.000 OA
BRANCH  12  19
ATOM     15  C   UNL     1       7.262   5.298  14.167  0.00  0.00    +0.000 C 
ATOM     16  C   UNL     1       6.530   4.833  15.392  0.00  0.00    +0.000 A 
ATOM     17  C   UNL     1       7.140   4.874  16.652  0.00  0.00    +0.000 A 
ATOM     18  C   UNL     1       6.456   4.425  17.783  0.00  0.00    +0.000 A 
ATOM     19  C   UNL     1       5.152   3.942  17.651  0.00  0.00    +0.000 A 
ATOM     20  C   UNL     1       4.529   3.897  16.403  0.00  0.00    +0.000 A 
ATOM     21  C   UNL     1       5.221   4.341  15.275  0.00  0.00    +0.000 A 
ENDBRANCH  12  19
ENDBRANCH   1  12
BRANCH   8  22
ATOM     22  S   UNL     1       1.416  10.762  18.785  0.00  0.00    +0.000 S 
ATOM     23  O   UNL     1       1.241  11.376  20.079  0.00  0.00    +0.000 OA
ATOM     24  O   UNL     1       2.477  11.124  17.873  0.00  0.00    +0.000 OA
BRANCH  22  25
ATOM     25  N   UNL     1      -0.036  10.951  17.947  0.00  0.00    +0.000 NA
ATOM     26  H   UNL     1       0.112  11.228  16.976  0.00  0.00    +0.000 HD
ATOM     27  H   UNL     1      -0.694  11.550  18.449  0.00  0.00    +0.000 HD
ENDBRANCH  22  25
ENDBRANCH   8  22
TORSDOF 4
ENDMDL
MODEL 5
REMARK VINA RESULT:      -7.5      4.736      6.331
REMARK  Name = 
REMARK  5 active torsions:
REMARK  status: ('A' for Active; 'I' for Inactive)
REMARK    1  A    between atoms: C_1  and  C_2
REMARK    2  A    between atoms: C_5  and  S_6
REMARK    3  A    between atoms: S_6  and  N_9
REMARK    4  A    between atoms: C_16  and  S_17
REMARK    5  A    between atoms: S_17  and  N_18
REMARK                            x       y       z     vdW  Elec       q    Type
REMARK                         _______ _______ _______ _____ _____    ______ ____
ROOT
ATOM      1  N   UNL     1       7.857   6.840  18.513  0.00  0.00    +0.000 N 
ATOM      2  C   UNL     1       7.506   7.423  17.302  0.00  0.00    +0.000 C 
ATOM      3  O   UNL     1       6.972   6.798  16.397  0.00  0.00    +0.000 OA
ATOM      4  N   UNL     1       7.757   8.761  17.132  0.00  0.00    +0.000 N 
ATOM      5  C   UNL     1       8.390   9.537  18.057  0.00  0.00    +0.000 A 
ATOM      6  N   UNL     1       9.036   9.138  19.129  0.00  0.00    +0.000 NA
ATOM      7  N   UNL     1       9.503  10.199  19.870  0.00  0.00    +0.000 NA
ATOM      8  C   UNL     1       9.161  11.346  19.314  0.00  0.00    +0.000 A 
ATOM      9  S   UNL     1       8.322  11.224  17.831  0.00  0.00    +0.000 S 
ATOM     10  H   UNL     1       8.367   7.371  19.216  0.00  0.00    +0.000 HD
ATOM     11  H   UNL     1       7.380   9.179  16.295  0.00  0.00    +0.000 HD
ENDROOT
BRANCH   1  12
ATOM     12  S   UNL     1       7.529   5.288  18.985  0.00  0.00    +0.000 S 
ATOM     13  O   UNL     1       7.720   5.198  20.417  0.00  0.00    +0.000 OA
ATOM     14  O   UNL     1       8.277   4.437  18.084  0.00  0.00    +0.000 OA
BRANCH  12  19
ATOM     15  C   UNL     1       1.661   4.462  17.711  0.00  0.00    +0.000 C 
ATOM     16  C   UNL     1       3.117   4.673  18.010  0.00  0.00    +0.000 A 
ATOM     17  C   UNL     1       4.106   4.035  17.252  0.00  0.00    +0.000 A 
ATOM     18  C   UNL     1       5.457   4.225  17.547  0.00  0.00    +0.000 A 
ATOM     19  C   UNL     1       5.817   5.069  18.600  0.00  0.00    +0.000 A 
ATOM     20  C   UNL     1       4.844   5.715  19.365  0.00  0.00    +0.000 A 
ATOM     21  C   UNL     1       3.495   5.514  19.068  0.00  0.00    +0.000 A 
ENDBRANCH  12  19
ENDBRANCH   1  12
BRANCH   8  22
ATOM     22  S   UNL     1       9.491  12.929  20.013  0.00  0.00    +0.000 S 
ATOM     23  O   UNL     1       9.233  13.881  18.959  0.00  0.00    +0.000 OA
ATOM     24  O   UNL     1       8.796  12.944  21.281  0.00  0.00    +0.000 OA
BRANCH  22  25
ATOM     25  N   UNL     1      11.141  13.007  20.358  0.00  0.00    +0.000 NA
ATOM     26  H   UNL     1      11.460  12.202  20.897  0.00  0.00    +0.000 HD
ATOM     27  H   UNL     1      11.407  13.906  20.764  0.00  0.00    +0.000 HD
ENDBRANCH  22  25
ENDBRANCH   8  22
TORSDOF 4
ENDMDL
MODEL 6
REMARK VINA RESULT:      -7.4      3.799      8.502
REMARK  Name = 
REMARK  5 active torsions:
REMARK  status: ('A' for Active; 'I' for Inactive)
REMARK    1  A    between atoms: C_1  and  C_2
REMARK    2  A    between atoms: C_5  and  S_6
REMARK    3  A    between atoms: S_6  and  N_9
REMARK    4  A    between atoms: C_16  and  S_17
REMARK    5  A    between atoms: S_17  and  N_18
REMARK                            x       y       z     vdW  Elec       q    Type
REMARK                         _______ _______ _______ _____ _____    ______ ____
ROOT
ATOM      1  N   UNL     1       1.391   9.153  19.221  0.00  0.00    +0.000 N 
ATOM      2  C   UNL     1       2.169   9.309  18.081  0.00  0.00    +0.000 C 
ATOM      3  O   UNL     1       2.221  10.358  17.454  0.00  0.00    +0.000 OA
ATOM      4  N   UNL     1       2.920   8.241  17.659  0.00  0.00    +0.000 N 
ATOM      5  C   UNL     1       2.897   7.015  18.255  0.00  0.00    +0.000 A 
ATOM      6  N   UNL     1       2.046   6.580  19.156  0.00  0.00    +0.000 NA
ATOM      7  N   UNL     1       2.357   5.309  19.582  0.00  0.00    +0.000 NA
ATOM      8  C   UNL     1       3.446   4.867  18.982  0.00  0.00    +0.000 A 
ATOM      9  S   UNL     1       4.123   5.917  17.817  0.00  0.00    +0.000 S 
ATOM     10  H   UNL     1       1.312   8.245  19.674  0.00  0.00    +0.000 HD
ATOM     11  H   UNL     1       3.565   8.424  16.905  0.00  0.00    +0.000 HD
ENDROOT
BRANCH   1  12
ATOM     12  S   UNL     1       0.518  10.335  19.981  0.00  0.00    +0.000 S 
ATOM     13  O   UNL     1       1.304  11.551  19.982  0.00  0.00    +0.000 OA
ATOM     14  O   UNL     1       0.060   9.749  21.222  0.00  0.00    +0.000 OA
BRANCH  12  19
ATOM     15  C   UNL     1      -4.326  11.145  16.430  0.00  0.00    +0.000 C 
ATOM     16  C   UNL     1      -3.138  10.940  17.323  0.00  0.00    +0.000 A 
ATOM     17  C   UNL     1      -2.981  11.690  18.495  0.00  0.00    +0.000 A 
ATOM     18  C   UNL     1      -1.864  11.503  19.311  0.00  0.00    +0.000 A 
ATOM     19  C   UNL     1      -0.906  10.551  18.956  0.00  0.00    +0.000 A 
ATOM     20  C   UNL     1      -1.048   9.793  17.792  0.00  0.00    +0.000 A 
ATOM     21  C   UNL     1      -2.163   9.991  16.977  0.00  0.00    +0.000 A 
ENDBRANCH  12  19
ENDBRANCH   1  12
BRANCH   8  22
ATOM     22  S   UNL     1       4.217   3.321  19.330  0.00  0.00    +0.000 S 
ATOM     23  O   UNL     1       5.625   3.610  19.459  0.00  0.00    +0.000 OA
ATOM     24  O   UNL     1       3.431   2.727  20.387  0.00  0.00    +0.000 OA
BRANCH  22  25
ATOM     25  N   UNL     1       4.037   2.337  17.972  0.00  0.00    +0.000 NA
ATOM     26  H   UNL     1       4.567   1.469  18.052  0.00  0.00    +0.000 HD
ATOM     27  H   UNL     1       4.210   2.845  17.103  0.00  0.00    +0.000 HD
ENDBRANCH  22  25
ENDBRANCH   8  22
TORSDOF 4
ENDMDL
MODEL 7
REMARK VINA RESULT:      -7.4      3.767      8.514
REMARK  Name = 
REMARK  5 active torsions:
REMARK  status: ('A' for Active; 'I' for Inactive)
REMARK    1  A    between atoms: C_1  and  C_2
REMARK    2  A    between atoms: C_5  and  S_6
REMARK    3  A    between atoms: S_6  and  N_9
REMARK    4  A    between atoms: C_16  and  S_17
REMARK    5  A    between atoms: S_17  and  N_18
REMARK                            x       y       z     vdW  Elec       q    Type
REMARK                         _______ _______ _______ _____ _____    ______ ____
ROOT
ATOM      1  N   UNL     1       1.343   9.154  19.274  0.00  0.00    +0.000 N 
ATOM      2  C   UNL     1       2.112   9.352  18.134  0.00  0.00    +0.000 C 
ATOM      3  O   UNL     1       2.135  10.413  17.527  0.00  0.00    +0.000 OA
ATOM      4  N   UNL     1       2.889   8.312  17.691  0.00  0.00    +0.000 N 
ATOM      5  C   UNL     1       2.900   7.075  18.265  0.00  0.00    +0.000 A 
ATOM      6  N   UNL     1       2.064   6.602  19.160  0.00  0.00    +0.000 NA
ATOM      7  N   UNL     1       2.410   5.331  19.561  0.00  0.00    +0.000 NA
ATOM      8  C   UNL     1       3.508   4.929  18.949  0.00  0.00    +0.000 A 
ATOM      9  S   UNL     1       4.153   6.017  17.803  0.00  0.00    +0.000 S 
ATOM     10  H   UNL     1       1.289   8.237  19.710  0.00  0.00    +0.000 HD
ATOM     11  H   UNL     1       3.527   8.526  16.939  0.00  0.00    +0.000 HD
ENDROOT
BRANCH   1  12
ATOM     12  S   UNL     1       0.441  10.299  20.058  0.00  0.00    +0.000 S 
ATOM     13  O   UNL     1       1.228  11.511  20.151  0.00  0.00    +0.000 OA
ATOM     14  O   UNL     1      -0.065   9.653  21.249  0.00  0.00    +0.000 OA
BRANCH  12  19
ATOM     15  C   UNL     1      -4.341  11.166  16.436  0.00  0.00    +0.000 C 
ATOM     16  C   UNL     1      -3.145  10.955  17.319  0.00  0.00    +0.000 A 
ATOM     17  C   UNL     1      -2.209   9.953  17.034  0.00  0.00    +0.000 A 
ATOM     18  C   UNL     1      -1.109   9.754  17.870  0.00  0.00    +0.000 A 
ATOM     19  C   UNL     1      -0.941  10.571  18.990  0.00  0.00    +0.000 A 
ATOM     20  C   UNL     1      -1.864  11.576  19.288  0.00  0.00    +0.000 A 
ATOM     21  C   UNL     1      -2.966  11.764  18.452  0.00  0.00    +0.000 A 
ENDBRANCH  12  19
ENDBRANCH   1  12
BRANCH   8  22
ATOM     22  S   UNL     1       4.320   3.398  19.267  0.00  0.00    +0.000 S 
ATOM     23  O   UNL     1       5.723   3.719  19.379  0.00  0.00    +0.000 OA
ATOM     24  O   UNL     1       3.564   2.772  20.328  0.00  0.00    +0.000 OA
BRANCH  22  25
ATOM     25  N   UNL     1       4.142   2.426  17.899  0.00  0.00    +0.000 NA
ATOM     26  H   UNL     1       3.165   2.327  17.622  0.00  0.00    +0.000 HD
ATOM     27  H   UNL     1       4.635   1.536  17.994  0.00  0.00    +0.000 HD
ENDBRANCH  22  25
ENDBRANCH   8  22
TORSDOF 4
ENDMDL
MODEL 8
REMARK VINA RESULT:      -7.4      4.604      6.169
REMARK  Name = 
REMARK  5 active torsions:
REMARK  status: ('A' for Active; 'I' for Inactive)
REMARK    1  A    between atoms: C_1  and  C_2
REMARK    2  A    between atoms: C_5  and  S_6
REMARK    3  A    between atoms: S_6  and  N_9
REMARK    4  A    between atoms: C_16  and  S_17
REMARK    5  A    between atoms: S_17  and  N_18
REMARK                            x       y       z     vdW  Elec       q    Type
REMARK                         _______ _______ _______ _____ _____    ______ ____
ROOT
ATOM      1  N   UNL     1       7.198   6.949  17.275  0.00  0.00    +0.000 N 
ATOM      2  C   UNL     1       7.907   6.706  18.444  0.00  0.00    +0.000 C 
ATOM      3  O   UNL     1       7.986   5.596  18.951  0.00  0.00    +0.000 OA
ATOM      4  N   UNL     1       8.558   7.758  19.037  0.00  0.00    +0.000 N 
ATOM      5  C   UNL     1       8.495   9.042  18.581  0.00  0.00    +0.000 A 
ATOM      6  N   UNL     1       7.679   9.530  17.675  0.00  0.00    +0.000 NA
ATOM      7  N   UNL     1       7.935  10.857  17.419  0.00  0.00    +0.000 NA
ATOM      8  C   UNL     1       8.951  11.288  18.142  0.00  0.00    +0.000 A 
ATOM      9  S   UNL     1       9.616  10.150  19.228  0.00  0.00    +0.000 S 
ATOM     10  H   UNL     1       7.091   7.898  16.922  0.00  0.00    +0.000 HD
ATOM     11  H   UNL     1       9.163   7.526  19.810  0.00  0.00    +0.000 HD
ENDROOT
BRANCH   1  12
ATOM     12  S   UNL     1       6.456   5.816  16.325  0.00  0.00    +0.000 S 
ATOM     13  O   UNL     1       7.350   4.686  16.183  0.00  0.00    +0.000 OA
ATOM     14  O   UNL     1       5.976   6.531  15.162  0.00  0.00    +0.000 OA
BRANCH  12  19
ATOM     15  C   UNL     1       1.533   4.154  19.447  0.00  0.00    +0.000 C 
ATOM     16  C   UNL     1       2.757   4.577  18.687  0.00  0.00    +0.000 A 
ATOM     17  C   UNL     1       2.945   5.913  18.315  0.00  0.00    +0.000 A 
ATOM     18  C   UNL     1       4.080   6.294  17.595  0.00  0.00    +0.000 A 
ATOM     19  C   UNL     1       5.033   5.332  17.257  0.00  0.00    +0.000 A 
ATOM     20  C   UNL     1       4.862   3.995  17.623  0.00  0.00    +0.000 A 
ATOM     21  C   UNL     1       3.722   3.621  18.336  0.00  0.00    +0.000 A 
ENDBRANCH  12  19
ENDBRANCH   1  12
BRANCH   8  22
ATOM     22  S   UNL     1       9.642  12.905  18.026  0.00  0.00    +0.000 S 
ATOM     23  O   UNL     1       9.846  13.339  19.388  0.00  0.00    +0.000 OA
ATOM     24  O   UNL     1      10.712  12.799  17.060  0.00  0.00    +0.000 OA
BRANCH  22  25
ATOM     25  N   UNL     1       8.472  13.918  17.354  0.00  0.00    +0.000 NA
ATOM     26  H   UNL     1       7.991  14.473  18.062  0.00  0.00    +0.000 HD
ATOM     27  H   UNL     1       7.843  13.415  16.727  0.00  0.00    +0.000 HD
ENDBRANCH  22  25
ENDBRANCH   8  22
TORSDOF 4
ENDMDL
MODEL 9
REMARK VINA RESULT:      -7.4      4.391      8.404
REMARK  Name = 
REMARK  5 active torsions:
REMARK  status: ('A' for Active; 'I' for Inactive)
REMARK    1  A    between atoms: C_1  and  C_2
REMARK    2  A    between atoms: C_5  and  S_6
REMARK    3  A    between atoms: S_6  and  N_9
REMARK    4  A    between atoms: C_16  and  S_17
REMARK    5  A    between atoms: S_17  and  N_18
REMARK                            x       y       z     vdW  Elec       q    Type
REMARK                         _______ _______ _______ _____ _____    ______ ____
ROOT
ATOM      1  N   UNL     1       1.470   9.344  19.727  0.00  0.00    +0.000 N 
ATOM      2  C   UNL     1       1.140   8.770  20.948  0.00  0.00    +0.000 C 
ATOM      3  O   UNL     1       0.644   9.408  21.866  0.00  0.00    +0.000 OA
ATOM      4  N   UNL     1       1.366   7.427  21.114  0.00  0.00    +0.000 N 
ATOM      5  C   UNL     1       1.957   6.636  20.173  0.00  0.00    +0.000 A 
ATOM      6  N   UNL     1       2.582   7.020  19.084  0.00  0.00    +0.000 NA
ATOM      7  N   UNL     1       3.006   5.947  18.333  0.00  0.00    +0.000 NA
ATOM      8  C   UNL     1       2.654   4.809  18.901  0.00  0.00    +0.000 A 
ATOM      9  S   UNL     1       1.858   4.951  20.405  0.00  0.00    +0.000 S 
ATOM     10  H   UNL     1       1.950   8.801  19.012  0.00  0.00    +0.000 HD
ATOM     11  H   UNL     1       1.002   7.018  21.961  0.00  0.00    +0.000 HD
ENDROOT
BRANCH   1  12
ATOM     12  S   UNL     1       1.164  10.902  19.261  0.00  0.00    +0.000 S 
ATOM     13  O   UNL     1       2.002  11.208  18.120  0.00  0.00    +0.000 OA
ATOM     14  O   UNL     1       1.240  11.695  20.469  0.00  0.00    +0.000 OA
BRANCH  12  19
ATOM     15  C   UNL     1      -4.634  10.898  17.497  0.00  0.00    +0.000 C 
ATOM     16  C   UNL     1      -3.203  10.895  17.951  0.00  0.00    +0.000 A 
ATOM     17  C   UNL     1      -2.758  11.793  18.928  0.00  0.00    +0.000 A 
ATOM     18  C   UNL     1      -1.422  11.793  19.333  0.00  0.00    +0.000 A 
ATOM     19  C   UNL     1      -0.532  10.881  18.762  0.00  0.00    +0.000 A 
ATOM     20  C   UNL     1      -0.960   9.978  17.788  0.00  0.00    +0.000 A 
ATOM     21  C   UNL     1      -2.295   9.988  17.383  0.00  0.00    +0.000 A 
ENDBRANCH  12  19
ENDBRANCH   1  12
BRANCH   8  22
ATOM     22  S   UNL     1       2.931   3.218  18.196  0.00  0.00    +0.000 S 
ATOM     23  O   UNL     1       2.746   2.277  19.275  0.00  0.00    +0.000 OA
ATOM     24  O   UNL     1       2.149   3.193  16.980  0.00  0.00    +0.000 OA
BRANCH  22  25
ATOM     25  N   UNL     1       4.553   3.131  17.737  0.00  0.00    +0.000 NA
ATOM     26  H   UNL     1       4.838   3.936  17.178  0.00  0.00    +0.000 HD
ATOM     27  H   UNL     1       4.784   2.232  17.312  0.00  0.00    +0.000 HD
ENDBRANCH  22  25
ENDBRANCH   8  22
TORSDOF 4
ENDMDL
