MODEL 1
REMARK VINA RESULT:      -7.7      0.000      0.000
REMARK  Name = 
REMARK  15 active torsions:
REMARK  status: ('A' for Active; 'I' for Inactive)
REMARK    1  A    between atoms: C_1  and  O_2
REMARK    2  A    between atoms: O_2  and  C_3
REMARK    3  A    between atoms: C_5  and  C_6
REMARK    4  A    between atoms: C_7  and  C_8
REMARK    5  A    between atoms: N_10  and  C_11
REMARK    6  A    between atoms: C_11  and  C_12
REMARK    7  A    between atoms: C_12  and  C_13
REMARK    8  A    between atoms: C_13  and  C_14
REMARK    9  A    between atoms: C_14  and  N_15
REMARK   10  A    between atoms: N_15  and  C_16
REMARK   11  A    between atoms: N_15  and  C_17
REMARK   12  A    between atoms: C_17  and  C_18
REMARK   13  A    between atoms: C_23  and  O_24
REMARK   14  A    between atoms: O_24  and  C_25
REMARK   15  A    between atoms: C_28  and  O_29
REMARK                            x       y       z     vdW  Elec       q    Type
REMARK                         _______ _______ _______ _____ _____    ______ ____
ROOT
ATOM      1  C   UNL     1       7.626   6.891  17.774  0.00  0.00    +0.000 C 
ATOM      2  O   UNL     1       7.463   6.380  18.871  0.00  0.00    +0.000 OA
ATOM      3  N   UNL     1       7.583   6.220  16.578  0.00  0.00    +0.000 N 
ATOM      4  H   UNL     1       7.623   6.734  15.710  0.00  0.00    +0.000 HD
ENDROOT
BRANCH   1   6
ATOM      5  C   UNL     1       8.675   9.007  18.483  0.00  0.00    +0.000 C 
ATOM      6  C   UNL     1       7.907   8.348  17.605  0.00  0.00    +0.000 C 
BRANCH   5   9
ATOM      7  C   UNL     1       8.504  12.720  17.677  0.00  0.00    +0.000 A 
ATOM      8  C   UNL     1       8.166  11.361  17.775  0.00  0.00    +0.000 A 
ATOM      9  C   UNL     1       9.016  10.429  18.390  0.00  0.00    +0.000 A 
ATOM     10  C   UNL     1      10.244  10.874  18.879  0.00  0.00    +0.000 A 
ATOM     11  C   UNL     1      10.599  12.223  18.785  0.00  0.00    +0.000 A 
ATOM     12  C   UNL     1       9.733  13.142  18.191  0.00  0.00    +0.000 A 
BRANCH   7  14
ATOM     13  C   UNL     1       6.793  14.382  17.854  0.00  0.00    +0.000 C 
ATOM     14  O   UNL     1       7.532  13.463  17.064  0.00  0.00    +0.000 OA
ENDBRANCH   7  14
BRANCH  12  15
ATOM     15  O   UNL     1      10.123  14.451  18.123  0.00  0.00    +0.000 OA
ATOM     16  H   UNL     1      10.500  14.715  18.979  0.00  0.00    +0.000 HD
ENDBRANCH  12  15
ENDBRANCH   5   9
ENDBRANCH   1   6
BRANCH   3  17
ATOM     17  C   UNL     1       7.301   4.799  16.512  0.00  0.00    +0.000 C 
BRANCH  17  18
ATOM     18  C   UNL     1       6.532   4.423  15.246  0.00  0.00    +0.000 C 
BRANCH  18  19
ATOM     19  C   UNL     1       5.093   4.953  15.269  0.00  0.00    +0.000 C 
BRANCH  19  20
ATOM     20  C   UNL     1       4.445   4.884  16.664  0.00  0.00    +0.000 C 
BRANCH  20  21
ATOM     21  N   UNL     1       3.671   3.647  16.913  0.00  0.00    +0.000 NA
ATOM     22  C   UNL     1       4.385   2.828  17.902  0.00  0.00    +0.000 C 
BRANCH  21  23
ATOM     23  C   UNL     1       2.287   3.993  17.347  0.00  0.00    +0.000 C 
BRANCH  23  24
ATOM     24  C   UNL     1       1.974   3.861  18.837  0.00  0.00    +0.000 A 
ATOM     25  C   UNL     1       1.494   2.655  19.383  0.00  0.00    +0.000 A 
ATOM     26  C   UNL     1       1.451   2.444  20.758  0.00  0.00    +0.000 A 
ATOM     27  C   UNL     1       1.768   3.482  21.621  0.00  0.00    +0.000 A 
ATOM     28  C   UNL     1       2.100   4.735  21.105  0.00  0.00    +0.000 A 
ATOM     29  C   UNL     1       2.206   4.938  19.720  0.00  0.00    +0.000 A 
BRANCH  29  30
ATOM     30  O   UNL     1       2.531   6.146  19.152  0.00  0.00    +0.000 OA
ATOM     31  C   UNL     1       2.200   7.316  19.899  0.00  0.00    +0.000 C 
ENDBRANCH  29  30
ENDBRANCH  23  24
ENDBRANCH  21  23
ENDBRANCH  20  21
ENDBRANCH  19  20
ENDBRANCH  18  19
ENDBRANCH  17  18
ENDBRANCH   3  17
TORSDOF 12
ENDMDL
MODEL 2
REMARK VINA RESULT:      -7.6      1.657      2.355
REMARK  Name = 
REMARK  15 active torsions:
REMARK  status: ('A' for Active; 'I' for Inactive)
REMARK    1  A    between atoms: C_1  and  O_2
REMARK    2  A    between atoms: O_2  and  C_3
REMARK    3  A    between atoms: C_5  and  C_6
REMARK    4  A    between atoms: C_7  and  C_8
REMARK    5  A    between atoms: N_10  and  C_11
REMARK    6  A    between atoms: C_11  and  C_12
REMARK    7  A    between atoms: C_12  and  C_13
REMARK    8  A    between atoms: C_13  and  C_14
REMARK    9  A    between atoms: C_14  and  N_15
REMARK   10  A    between atoms: N_15  and  C_16
REMARK   11  A    between atoms: N_15  and  C_17
REMARK   12  A    between atoms: C_17  and  C_18
REMARK   13  A    between atoms: C_23  and  O_24
REMARK   14  A    between atoms: O_24  and  C_25
REMARK   15  A    between atoms: C_28  and  O_29
REMARK                            x       y       z     vdW  Elec       q    Type
REMARK                         _______ _______ _______ _____ _____    ______ ____
ROOT
ATOM      1  C   UNL     1       8.010   8.191  17.847  0.00  0.00    +0.000 C 
ATOM      2  O   UNL     1       7.385   7.881  16.844  0.00  0.00    +0.000 OA
ATOM      3  N   UNL     1       8.297   7.346  18.888  0.00  0.00    +0.000 N 
ATOM      4  H   UNL     1       8.910   7.650  19.631  0.00  0.00    +0.000 HD
ENDROOT
BRANCH   1   6
ATOM      5  C   UNL     1       9.051   9.934  19.246  0.00  0.00    +0.000 C 
ATOM      6  C   UNL     1       8.544   9.569  18.061  0.00  0.00    +0.000 C 
BRANCH   5   9
ATOM      7  C   UNL     1      10.617  13.375  18.826  0.00  0.00    +0.000 A 
ATOM      8  C   UNL     1      10.072  12.114  18.534  0.00  0.00    +0.000 A 
ATOM      9  C   UNL     1       9.609  11.257  19.543  0.00  0.00    +0.000 A 
ATOM     10  C   UNL     1       9.736  11.665  20.871  0.00  0.00    +0.000 A 
ATOM     11  C   UNL     1      10.281  12.915  21.180  0.00  0.00    +0.000 A 
ATOM     12  C   UNL     1      10.717  13.766  20.164  0.00  0.00    +0.000 A 
BRANCH   7  14
ATOM     13  C   UNL     1      11.443  13.318  16.582  0.00  0.00    +0.000 C 
ATOM     14  O   UNL     1      10.987  14.062  17.702  0.00  0.00    +0.000 OA
ENDBRANCH   7  14
BRANCH  12  15
ATOM     15  O   UNL     1      11.242  14.979  20.514  0.00  0.00    +0.000 OA
ATOM     16  H   UNL     1      12.162  15.029  20.205  0.00  0.00    +0.000 HD
ENDBRANCH  12  15
ENDBRANCH   5   9
ENDBRANCH   1   6
BRANCH   3  17
ATOM     17  C   UNL     1       7.891   5.954  18.874  0.00  0.00    +0.000 C 
BRANCH  17  18
ATOM     18  C   UNL     1       6.401   5.786  19.168  0.00  0.00    +0.000 C 
BRANCH  18  19
ATOM     19  C   UNL     1       6.004   4.310  19.298  0.00  0.00    +0.000 C 
BRANCH  19  20
ATOM     20  C   UNL     1       4.856   3.907  18.355  0.00  0.00    +0.000 C 
BRANCH  20  21
ATOM     21  N   UNL     1       4.607   4.868  17.257  0.00  0.00    +0.000 NA
ATOM     22  C   UNL     1       4.931   4.225  15.977  0.00  0.00    +0.000 C 
BRANCH  21  23
ATOM     23  C   UNL     1       3.197   5.352  17.316  0.00  0.00    +0.000 C 
BRANCH  23  24
ATOM     24  C   UNL     1       2.286   4.709  18.360  0.00  0.00    +0.000 A 
ATOM     25  C   UNL     1       1.542   3.549  18.072  0.00  0.00    +0.000 A 
ATOM     26  C   UNL     1       0.918   2.814  19.077  0.00  0.00    +0.000 A 
ATOM     27  C   UNL     1       0.917   3.295  20.376  0.00  0.00    +0.000 A 
ATOM     28  C   UNL     1       1.518   4.521  20.662  0.00  0.00    +0.000 A 
ATOM     29  C   UNL     1       2.202   5.236  19.667  0.00  0.00    +0.000 A 
BRANCH  29  30
ATOM     30  O   UNL     1       2.815   6.447  19.887  0.00  0.00    +0.000 OA
ATOM     31  C   UNL     1       1.962   7.581  20.030  0.00  0.00    +0.000 C 
ENDBRANCH  29  30
ENDBRANCH  23  24
ENDBRANCH  21  23
ENDBRANCH  20  21
ENDBRANCH  19  20
ENDBRANCH  18  19
ENDBRANCH  17  18
ENDBRANCH   3  17
TORSDOF 12
ENDMDL
MODEL 3
REMARK VINA RESULT:      -7.6      1.388      1.773
REMARK  Name = 
REMARK  15 active torsions:
REMARK  status: ('A' for Active; 'I' for Inactive)
REMARK    1  A    between atoms: C_1  and  O_2
REMARK    2  A    between atoms: O_2  and  C_3
REMARK    3  A    between atoms: C_5  and  C_6
REMARK    4  A    between atoms: C_7  and  C_8
REMARK    5  A    between atoms: N_10  and  C_11
REMARK    6  A    between atoms: C_11  and  C_12
REMARK    7  A    between atoms: C_12  and  C_13
REMARK    8  A    between atoms: C_13  and  C_14
REMARK    9  A    between atoms: C_14  and  N_15
REMARK   10  A    between atoms: N_15  and  C_16
REMARK   11  A    between atoms: N_15  and  C_17
REMARK   12  A    between atoms: C_17  and  C_18
REMARK   13  A    between atoms: C_23  and  O_24
REMARK   14  A    between atoms: O_24  and  C_25
REMARK   15  A    between atoms: C_28  and  O_29
REMARK                            x       y       z     vdW  Elec       q    Type
REMARK                         _______ _______ _______ _____ _____    ______ ____
ROOT
ATOM      1  C   UNL     1       7.229   7.182  17.506  0.00  0.00    +0.000 C 
ATOM      2  O   UNL     1       6.290   6.814  18.196  0.00  0.00    +0.000 OA
ATOM      3  N   UNL     1       7.854   6.416  16.555  0.00  0.00    +0.000 N 
ATOM      4  H   UNL     1       8.552   6.829  15.955  0.00  0.00    +0.000 HD
ENDROOT
BRANCH   1   6
ATOM      5  C   UNL     1       8.536   8.892  18.708  0.00  0.00    +0.000 C 
ATOM      6  C   UNL     1       7.824   8.546  17.628  0.00  0.00    +0.000 C 
BRANCH   5   9
ATOM      7  C   UNL     1       9.952  12.009  20.365  0.00  0.00    +0.000 A 
ATOM      8  C   UNL     1       9.357  10.750  20.182  0.00  0.00    +0.000 A 
ATOM      9  C   UNL     1       9.168  10.199  18.906  0.00  0.00    +0.000 A 
ATOM     10  C   UNL     1       9.552  10.951  17.795  0.00  0.00    +0.000 A 
ATOM     11  C   UNL     1      10.141  12.209  17.959  0.00  0.00    +0.000 A 
ATOM     12  C   UNL     1      10.342  12.734  19.235  0.00  0.00    +0.000 A 
BRANCH   7  14
ATOM     13  C   UNL     1       9.047  13.164  22.253  0.00  0.00    +0.000 C 
ATOM     14  O   UNL     1      10.064  12.353  21.685  0.00  0.00    +0.000 OA
ENDBRANCH   7  14
BRANCH  12  15
ATOM     15  O   UNL     1      10.923  13.967  19.345  0.00  0.00    +0.000 OA
ATOM     16  H   UNL     1      10.772  14.311  20.241  0.00  0.00    +0.000 HD
ENDBRANCH  12  15
ENDBRANCH   5   9
ENDBRANCH   1   6
BRANCH   3  17
ATOM     17  C   UNL     1       7.419   5.065  16.259  0.00  0.00    +0.000 C 
BRANCH  17  18
ATOM     18  C   UNL     1       6.723   4.968  14.901  0.00  0.00    +0.000 C 
BRANCH  18  19
ATOM     19  C   UNL     1       5.368   4.258  14.999  0.00  0.00    +0.000 C 
BRANCH  19  20
ATOM     20  C   UNL     1       4.595   4.604  16.285  0.00  0.00    +0.000 C 
BRANCH  20  21
ATOM     21  N   UNL     1       4.271   3.434  17.131  0.00  0.00    +0.000 NA
ATOM     22  C   UNL     1       4.890   3.613  18.452  0.00  0.00    +0.000 C 
BRANCH  21  23
ATOM     23  C   UNL     1       2.791   3.258  17.211  0.00  0.00    +0.000 C 
BRANCH  23  24
ATOM     24  C   UNL     1       2.154   3.364  18.595  0.00  0.00    +0.000 A 
ATOM     25  C   UNL     1       1.897   2.220  19.375  0.00  0.00    +0.000 A 
ATOM     26  C   UNL     1       1.562   2.317  20.723  0.00  0.00    +0.000 A 
ATOM     27  C   UNL     1       1.349   3.565  21.287  0.00  0.00    +0.000 A 
ATOM     28  C   UNL     1       1.448   4.710  20.497  0.00  0.00    +0.000 A 
ATOM     29  C   UNL     1       1.847   4.624  19.153  0.00  0.00    +0.000 A 
BRANCH  29  30
ATOM     30  O   UNL     1       1.965   5.714  18.325  0.00  0.00    +0.000 OA
ATOM     31  C   UNL     1       2.787   6.785  18.787  0.00  0.00    +0.000 C 
ENDBRANCH  29  30
ENDBRANCH  23  24
ENDBRANCH  21  23
ENDBRANCH  20  21
ENDBRANCH  19  20
ENDBRANCH  18  19
ENDBRANCH  17  18
ENDBRANCH   3  17
TORSDOF 12
ENDMDL
MODEL 4
REMARK VINA RESULT:      -7.4      2.035      2.624
REMARK  Name = 
REMARK  15 active torsions:
REMARK  status: ('A' for Active; 'I' for Inactive)
REMARK    1  A    between atoms: C_1  and  O_2
REMARK    2  A    between atoms: O_2  and  C_3
REMARK    3  A    between atoms: C_5  and  C_6
REMARK    4  A    between atoms: C_7  and  C_8
REMARK    5  A    between atoms: N_10  and  C_11
REMARK    6  A    between atoms: C_11  and  C_12
REMARK    7  A    between atoms: C_12  and  C_13
REMARK    8  A    between atoms: C_13  and  C_14
REMARK    9  A    between atoms: C_14  and  N_15
REMARK   10  A    between atoms: N_15  and  C_16
REMARK   11  A    between atoms: N_15  and  C_17
REMARK   12  A    between atoms: C_17  and  C_18
REMARK   13  A    between atoms: C_23  and  O_24
REMARK   14  A    between atoms: O_24  and  C_25
REMARK   15  A    between atoms: C_28  and  O_29
REMARK                            x       y       z     vdW  Elec       q    Type
REMARK                         _______ _______ _______ _____ _____    ______ ____
ROOT
ATOM      1  C   UNL     1       7.442   7.698  17.598  0.00  0.00    +0.000 C 
ATOM      2  O   UNL     1       6.442   7.601  16.904  0.00  0.00    +0.000 OA
ATOM      3  N   UNL     1       7.944   6.703  18.399  0.00  0.00    +0.000 N 
ATOM      4  H   UNL     1       8.834   6.828  18.859  0.00  0.00    +0.000 HD
ENDROOT
BRANCH   1   6
ATOM      5  C   UNL     1       8.741   9.397  18.826  0.00  0.00    +0.000 C 
ATOM      6  C   UNL     1       8.254   8.951  17.661  0.00  0.00    +0.000 C 
BRANCH   5   9
ATOM      7  C   UNL     1      10.355  12.504  20.312  0.00  0.00    +0.000 A 
ATOM      8  C   UNL     1       9.580  11.341  20.174  0.00  0.00    +0.000 A 
ATOM      9  C   UNL     1       9.557  10.605  18.981  0.00  0.00    +0.000 A 
ATOM     10  C   UNL     1      10.298  11.075  17.896  0.00  0.00    +0.000 A 
ATOM     11  C   UNL     1      11.070  12.235  18.014  0.00  0.00    +0.000 A 
ATOM     12  C   UNL     1      11.101  12.944  19.215  0.00  0.00    +0.000 A 
BRANCH   7  14
ATOM     13  C   UNL     1       9.030  12.917  22.259  0.00  0.00    +0.000 C 
ATOM     14  O   UNL     1      10.256  13.059  21.559  0.00  0.00    +0.000 OA
ENDBRANCH   7  14
BRANCH  12  15
ATOM     15  O   UNL     1      11.872  14.071  19.283  0.00  0.00    +0.000 OA
ATOM     16  H   UNL     1      12.645  13.895  19.843  0.00  0.00    +0.000 HD
ENDBRANCH  12  15
ENDBRANCH   5   9
ENDBRANCH   1   6
BRANCH   3  17
ATOM     17  C   UNL     1       7.322   5.396  18.469  0.00  0.00    +0.000 C 
BRANCH  17  18
ATOM     18  C   UNL     1       7.604   4.556  17.224  0.00  0.00    +0.000 C 
BRANCH  18  19
ATOM     19  C   UNL     1       6.395   4.498  16.284  0.00  0.00    +0.000 C 
BRANCH  19  20
ATOM     20  C   UNL     1       5.267   3.587  16.803  0.00  0.00    +0.000 C 
BRANCH  20  21
ATOM     21  N   UNL     1       3.996   4.294  17.079  0.00  0.00    +0.000 NA
ATOM     22  C   UNL     1       2.884   3.341  16.959  0.00  0.00    +0.000 C 
BRANCH  21  23
ATOM     23  C   UNL     1       4.055   4.940  18.422  0.00  0.00    +0.000 C 
BRANCH  23  24
ATOM     24  C   UNL     1       3.128   4.382  19.501  0.00  0.00    +0.000 A 
ATOM     25  C   UNL     1       1.868   4.956  19.757  0.00  0.00    +0.000 A 
ATOM     26  C   UNL     1       0.920   4.311  20.546  0.00  0.00    +0.000 A 
ATOM     27  C   UNL     1       1.257   3.138  21.201  0.00  0.00    +0.000 A 
ATOM     28  C   UNL     1       2.551   2.627  21.087  0.00  0.00    +0.000 A 
ATOM     29  C   UNL     1       3.493   3.237  20.244  0.00  0.00    +0.000 A 
BRANCH  29  30
ATOM     30  O   UNL     1       4.780   2.782  20.087  0.00  0.00    +0.000 OA
ATOM     31  C   UNL     1       4.970   1.368  20.132  0.00  0.00    +0.000 C 
ENDBRANCH  29  30
ENDBRANCH  23  24
ENDBRANCH  21  23
ENDBRANCH  20  21
ENDBRANCH  19  20
ENDBRANCH  18  19
ENDBRANCH  17  18
ENDBRANCH   3  17
TORSDOF 12
ENDMDL
MODEL 5
REMARK VINA RESULT:      -7.4      1.637      1.970
REMARK  Name = 
REMARK  15 active torsions:
REMARK  status: ('A' for Active; 'I' for Inactive)
REMARK    1  A    between atoms: C_1  and  O_2
REMARK    2  A    between atoms: O_2  and  C_3
REMARK    3  A    between atoms: C_5  and  C_6
REMARK    4  A    between atoms: C_7  and  C_8
REMARK    5  A    between atoms: N_10  and  C_11
REMARK    6  A    between atoms: C_11  and  C_12
REMARK    7  A    between atoms: C_12  and  C_13
REMARK    8  A    between atoms: C_13  and  C_14
REMARK    9  A    between atoms: C_14  and  N_15
REMARK   10  A    between atoms: N_15  and  C_16
REMARK   11  A    between atoms: N_15  and  C_17
REMARK   12  A    between atoms: C_17  and  C_18
REMARK   13  A    between atoms: C_23  and  O_24
REMARK   14  A    between atoms: O_24  and  C_25
REMARK   15  A    between atoms: C_28  and  O_29
REMARK                            x       y       z     vdW  Elec       q    Type
REMARK                         _______ _______ _______ _____ _____    ______ ____
ROOT
ATOM      1  C   UNL     1       6.947   7.734  17.325  0.00  0.00    +0.000 C 
ATOM      2  O   UNL     1       5.751   7.598  17.534  0.00  0.00    +0.000 OA
ATOM      3  N   UNL     1       7.777   6.757  16.839  0.00  0.00    +0.000 N 
ATOM      4  H   UNL     1       8.731   6.981  16.594  0.00  0.00    +0.000 HD
ENDROOT
BRANCH   1   6
ATOM      5  C   UNL     1       8.556   9.117  18.581  0.00  0.00    +0.000 C 
ATOM      6  C   UNL     1       7.663   9.019  17.588  0.00  0.00    +0.000 C 
BRANCH   5   9
ATOM      7  C   UNL     1      10.035  12.058  20.486  0.00  0.00    +0.000 A 
ATOM      8  C   UNL     1       9.316  10.889  20.188  0.00  0.00    +0.000 A 
ATOM      9  C   UNL     1       9.315  10.329  18.902  0.00  0.00    +0.000 A 
ATOM     10  C   UNL     1      10.021  10.984  17.892  0.00  0.00    +0.000 A 
ATOM     11  C   UNL     1      10.738  12.151  18.171  0.00  0.00    +0.000 A 
ATOM     12  C   UNL     1      10.747  12.685  19.460  0.00  0.00    +0.000 A 
BRANCH   7  14
ATOM     13  C   UNL     1       8.695  12.167  22.464  0.00  0.00    +0.000 C 
ATOM     14  O   UNL     1       9.923  12.426  21.800  0.00  0.00    +0.000 OA
ENDBRANCH   7  14
BRANCH  12  15
ATOM     15  O   UNL     1      11.464  13.827  19.685  0.00  0.00    +0.000 OA
ATOM     16  H   UNL     1      10.975  14.394  20.304  0.00  0.00    +0.000 HD
ENDBRANCH  12  15
ENDBRANCH   5   9
ENDBRANCH   1   6
BRANCH   3  17
ATOM     17  C   UNL     1       7.282   5.438  16.494  0.00  0.00    +0.000 C 
BRANCH  17  18
ATOM     18  C   UNL     1       7.147   4.535  17.720  0.00  0.00    +0.000 C 
BRANCH  18  19
ATOM     19  C   UNL     1       5.681   4.229  18.049  0.00  0.00    +0.000 C 
BRANCH  19  20
ATOM     20  C   UNL     1       4.741   4.399  16.840  0.00  0.00    +0.000 C 
BRANCH  20  21
ATOM     21  N   UNL     1       3.517   3.569  16.903  0.00  0.00    +0.000 NA
ATOM     22  C   UNL     1       3.801   2.358  17.685  0.00  0.00    +0.000 C 
BRANCH  21  23
ATOM     23  C   UNL     1       2.391   4.367  17.470  0.00  0.00    +0.000 C 
BRANCH  23  24
ATOM     24  C   UNL     1       2.005   4.086  18.921  0.00  0.00    +0.000 A 
ATOM     25  C   UNL     1       1.253   2.948  19.274  0.00  0.00    +0.000 A 
ATOM     26  C   UNL     1       1.117   2.547  20.600  0.00  0.00    +0.000 A 
ATOM     27  C   UNL     1       1.621   3.347  21.613  0.00  0.00    +0.000 A 
ATOM     28  C   UNL     1       2.236   4.559  21.298  0.00  0.00    +0.000 A 
ATOM     29  C   UNL     1       2.434   4.939  19.961  0.00  0.00    +0.000 A 
BRANCH  29  30
ATOM     30  O   UNL     1       3.035   6.117  19.586  0.00  0.00    +0.000 OA
ATOM     31  C   UNL     1       2.278   7.312  19.773  0.00  0.00    +0.000 C 
ENDBRANCH  29  30
ENDBRANCH  23  24
ENDBRANCH  21  23
ENDBRANCH  20  21
ENDBRANCH  19  20
ENDBRANCH  18  19
ENDBRANCH  17  18
ENDBRANCH   3  17
TORSDOF 12
ENDMDL
MODEL 6
REMARK VINA RESULT:      -7.3      4.396      7.208
REMARK  Name = 
REMARK  15 active torsions:
REMARK  status: ('A' for Active; 'I' for Inactive)
REMARK    1  A    between atoms: C_1  and  O_2
REMARK    2  A    between atoms: O_2  and  C_3
REMARK    3  A    between atoms: C_5  and  C_6
REMARK    4  A    between atoms: C_7  and  C_8
REMARK    5  A    between atoms: N_10  and  C_11
REMARK    6  A    between atoms: C_11  and  C_12
REMARK    7  A    between atoms: C_12  and  C_13
REMARK    8  A    between atoms: C_13  and  C_14
REMARK    9  A    between atoms: C_14  and  N_15
REMARK   10  A    between atoms: N_15  and  C_16
REMARK   11  A    between atoms: N_15  and  C_17
REMARK   12  A    between atoms: C_17  and  C_18
REMARK   13  A    between atoms: C_23  and  O_24
REMARK   14  A    between atoms: O_24  and  C_25
REMARK   15  A    between atoms: C_28  and  O_29
REMARK                            x       y       z     vdW  Elec       q    Type
REMARK                         _______ _______ _______ _____ _____    ______ ____
ROOT
ATOM      1  C   UNL     1       2.122   7.275  19.702  0.00  0.00    +0.000 C 
ATOM      2  O   UNL     1       2.823   6.945  18.758  0.00  0.00    +0.000 OA
ATOM      3  N   UNL     1       1.771   6.457  20.746  0.00  0.00    +0.000 N 
ATOM      4  H   UNL     1       1.276   6.837  21.539  0.00  0.00    +0.000 HD
ENDROOT
BRANCH   1   6
ATOM      5  C   UNL     1       1.354   9.414  18.745  0.00  0.00    +0.000 C 
ATOM      6  C   UNL     1       1.543   8.646  19.826  0.00  0.00    +0.000 C 
BRANCH   5   9
ATOM      7  C   UNL     1      -1.144  12.278  18.896  0.00  0.00    +0.000 A 
ATOM      8  C   UNL     1      -0.600  10.983  18.885  0.00  0.00    +0.000 A 
ATOM      9  C   UNL     1       0.781  10.763  18.771  0.00  0.00    +0.000 A 
ATOM     10  C   UNL     1       1.620  11.868  18.625  0.00  0.00    +0.000 A 
ATOM     11  C   UNL     1       1.094  13.163  18.628  0.00  0.00    +0.000 A 
ATOM     12  C   UNL     1      -0.279  13.368  18.765  0.00  0.00    +0.000 A 
BRANCH   7  14
ATOM     13  C   UNL     1      -3.046  12.649  20.297  0.00  0.00    +0.000 C 
ATOM     14  O   UNL     1      -2.505  12.276  19.038  0.00  0.00    +0.000 OA
ENDBRANCH   7  14
BRANCH  12  15
ATOM     15  O   UNL     1      -0.747  14.653  18.764  0.00  0.00    +0.000 OA
ATOM     16  H   UNL     1      -1.252  14.808  19.579  0.00  0.00    +0.000 HD
ENDBRANCH  12  15
ENDBRANCH   5   9
ENDBRANCH   1   6
BRANCH   3  17
ATOM     17  C   UNL     1       2.244   5.089  20.834  0.00  0.00    +0.000 C 
BRANCH  17  18
ATOM     18  C   UNL     1       1.127   4.076  20.587  0.00  0.00    +0.000 C 
BRANCH  18  19
ATOM     19  C   UNL     1       1.671   2.732  20.087  0.00  0.00    +0.000 C 
BRANCH  19  20
ATOM     20  C   UNL     1       3.194   2.742  19.861  0.00  0.00    +0.000 C 
BRANCH  20  21
ATOM     21  N   UNL     1       3.596   2.688  18.437  0.00  0.00    +0.000 NA
ATOM     22  C   UNL     1       2.538   2.017  17.668  0.00  0.00    +0.000 C 
BRANCH  21  23
ATOM     23  C   UNL     1       3.882   4.065  17.938  0.00  0.00    +0.000 C 
BRANCH  23  24
ATOM     24  C   UNL     1       5.060   4.222  16.977  0.00  0.00    +0.000 A 
ATOM     25  C   UNL     1       4.904   4.047  15.589  0.00  0.00    +0.000 A 
ATOM     26  C   UNL     1       5.894   4.435  14.690  0.00  0.00    +0.000 A 
ATOM     27  C   UNL     1       7.113   4.887  15.167  0.00  0.00    +0.000 A 
ATOM     28  C   UNL     1       7.349   4.926  16.541  0.00  0.00    +0.000 A 
ATOM     29  C   UNL     1       6.335   4.596  17.455  0.00  0.00    +0.000 A 
BRANCH  29  30
ATOM     30  O   UNL     1       6.504   4.617  18.818  0.00  0.00    +0.000 OA
ATOM     31  C   UNL     1       7.381   5.615  19.340  0.00  0.00    +0.000 C 
ENDBRANCH  29  30
ENDBRANCH  23  24
ENDBRANCH  21  23
ENDBRANCH  20  21
ENDBRANCH  19  20
ENDBRANCH  18  19
ENDBRANCH  17  18
ENDBRANCH   3  17
TORSDOF 12
ENDMDL
MODEL 7
REMARK VINA RESULT:      -7.3      4.398      7.705
REMARK  Name = 
REMARK  15 active torsions:
REMARK  status: ('A' for Active; 'I' for Inactive)
REMARK    1  A    between atoms: C_1  and  O_2
REMARK    2  A    between atoms: O_2  and  C_3
REMARK    3  A    between atoms: C_5  and  C_6
REMARK    4  A    between atoms: C_7  and  C_8
REMARK    5  A    between atoms: N_10  and  C_11
REMARK    6  A    between atoms: C_11  and  C_12
REMARK    7  A    between atoms: C_12  and  C_13
REMARK    8  A    between atoms: C_13  and  C_14
REMARK    9  A    between atoms: C_14  and  N_15
REMARK   10  A    between atoms: N_15  and  C_16
REMARK   11  A    between atoms: N_15  and  C_17
REMARK   12  A    between atoms: C_17  and  C_18
REMARK   13  A    between atoms: C_23  and  O_24
REMARK   14  A    between atoms: O_24  and  C_25
REMARK   15  A    between atoms: C_28  and  O_29
REMARK                            x       y       z     vdW  Elec       q    Type
REMARK                         _______ _______ _______ _____ _____    ______ ____
ROOT
ATOM      1  C   UNL     1       1.991   7.286  20.058  0.00  0.00    +0.000 C 
ATOM      2  O   UNL     1       2.838   7.089  19.201  0.00  0.00    +0.000 OA
ATOM      3  N   UNL     1       1.553   6.351  20.962  0.00  0.00    +0.000 N 
ATOM      4  H   UNL     1       0.927   6.623  21.705  0.00  0.00    +0.000 HD
ENDROOT
BRANCH   1   6
ATOM      5  C   UNL     1       0.417   8.802  21.199  0.00  0.00    +0.000 C 
ATOM      6  C   UNL     1       1.308   8.604  20.220  0.00  0.00    +0.000 C 
BRANCH   5   9
ATOM      7  C   UNL     1      -1.242  12.181  20.651  0.00  0.00    +0.000 A 
ATOM      8  C   UNL     1      -0.576  10.968  20.410  0.00  0.00    +0.000 A 
ATOM      9  C   UNL     1      -0.289  10.064  21.443  0.00  0.00    +0.000 A 
ATOM     10  C   UNL     1      -0.644  10.410  22.747  0.00  0.00    +0.000 A 
ATOM     11  C   UNL     1      -1.302  11.616  23.006  0.00  0.00    +0.000 A 
ATOM     12  C   UNL     1      -1.601  12.496  21.965  0.00  0.00    +0.000 A 
BRANCH   7  14
ATOM     13  C   UNL     1      -0.469  13.872  19.147  0.00  0.00    +0.000 C 
ATOM     14  O   UNL     1      -1.445  12.907  19.510  0.00  0.00    +0.000 OA
ENDBRANCH   7  14
BRANCH  12  15
ATOM     15  O   UNL     1      -2.247  13.663  22.266  0.00  0.00    +0.000 OA
ATOM     16  H   UNL     1      -3.164  13.610  21.951  0.00  0.00    +0.000 HD
ENDBRANCH  12  15
ENDBRANCH   5   9
ENDBRANCH   1   6
BRANCH   3  17
ATOM     17  C   UNL     1       2.101   5.009  20.995  0.00  0.00    +0.000 C 
BRANCH  17  18
ATOM     18  C   UNL     1       1.128   3.975  20.430  0.00  0.00    +0.000 C 
BRANCH  18  19
ATOM     19  C   UNL     1       1.805   2.621  20.185  0.00  0.00    +0.000 C 
BRANCH  19  20
ATOM     20  C   UNL     1       3.340   2.684  20.293  0.00  0.00    +0.000 C 
BRANCH  20  21
ATOM     21  N   UNL     1       4.046   2.505  19.005  0.00  0.00    +0.000 NA
ATOM     22  C   UNL     1       3.489   1.334  18.314  0.00  0.00    +0.000 C 
BRANCH  21  23
ATOM     23  C   UNL     1       3.945   3.752  18.192  0.00  0.00    +0.000 C 
BRANCH  23  24
ATOM     24  C   UNL     1       5.194   4.628  18.108  0.00  0.00    +0.000 A 
ATOM     25  C   UNL     1       5.799   5.158  19.264  0.00  0.00    +0.000 A 
ATOM     26  C   UNL     1       7.066   5.733  19.225  0.00  0.00    +0.000 A 
ATOM     27  C   UNL     1       7.701   5.909  18.006  0.00  0.00    +0.000 A 
ATOM     28  C   UNL     1       7.056   5.532  16.828  0.00  0.00    +0.000 A 
ATOM     29  C   UNL     1       5.807   4.893  16.864  0.00  0.00    +0.000 A 
BRANCH  29  30
ATOM     30  O   UNL     1       5.123   4.496  15.740  0.00  0.00    +0.000 OA
ATOM     31  C   UNL     1       5.907   4.186  14.589  0.00  0.00    +0.000 C 
ENDBRANCH  29  30
ENDBRANCH  23  24
ENDBRANCH  21  23
ENDBRANCH  20  21
ENDBRANCH  19  20
ENDBRANCH  18  19
ENDBRANCH  17  18
ENDBRANCH   3  17
TORSDOF 12
ENDMDL
MODEL 8
REMARK VINA RESULT:      -7.3      1.902      2.845
REMARK  Name = 
REMARK  15 active torsions:
REMARK  status: ('A' for Active; 'I' for Inactive)
REMARK    1  A    between atoms: C_1  and  O_2
REMARK    2  A    between atoms: O_2  and  C_3
REMARK    3  A    between atoms: C_5  and  C_6
REMARK    4  A    between atoms: C_7  and  C_8
REMARK    5  A    between atoms: N_10  and  C_11
REMARK    6  A    between atoms: C_11  and  C_12
REMARK    7  A    between atoms: C_12  and  C_13
REMARK    8  A    between atoms: C_13  and  C_14
REMARK    9  A    between atoms: C_14  and  N_15
REMARK   10  A    between atoms: N_15  and  C_16
REMARK   11  A    between atoms: N_15  and  C_17
REMARK   12  A    between atoms: C_17  and  C_18
REMARK   13  A    between atoms: C_23  and  O_24
REMARK   14  A    between atoms: O_24  and  C_25
REMARK   15  A    between atoms: C_28  and  O_29
REMARK                            x       y       z     vdW  Elec       q    Type
REMARK                         _______ _______ _______ _____ _____    ______ ____
ROOT
ATOM      1  C   UNL     1       7.752   6.813  18.223  0.00  0.00    +0.000 C 
ATOM      2  O   UNL     1       7.538   5.785  18.847  0.00  0.00    +0.000 OA
ATOM      3  N   UNL     1       7.285   7.079  16.960  0.00  0.00    +0.000 N 
ATOM      4  H   UNL     1       7.418   7.995  16.557  0.00  0.00    +0.000 HD
ENDROOT
BRANCH   1   6
ATOM      5  C   UNL     1       8.530   9.153  18.238  0.00  0.00    +0.000 C 
ATOM      6  C   UNL     1       8.576   7.928  18.778  0.00  0.00    +0.000 C 
BRANCH   5   9
ATOM      7  C   UNL     1      10.857  12.159  18.356  0.00  0.00    +0.000 A 
ATOM      8  C   UNL     1      10.121  11.061  17.881  0.00  0.00    +0.000 A 
ATOM      9  C   UNL     1       9.291  10.308  18.724  0.00  0.00    +0.000 A 
ATOM     10  C   UNL     1       9.234  10.646  20.076  0.00  0.00    +0.000 A 
ATOM     11  C   UNL     1       9.964  11.733  20.566  0.00  0.00    +0.000 A 
ATOM     12  C   UNL     1      10.770  12.486  19.712  0.00  0.00    +0.000 A 
BRANCH   7  14
ATOM     13  C   UNL     1      11.065  13.958  16.794  0.00  0.00    +0.000 C 
ATOM     14  O   UNL     1      11.586  12.771  17.372  0.00  0.00    +0.000 OA
ENDBRANCH   7  14
BRANCH  12  15
ATOM     15  O   UNL     1      11.464  13.541  20.237  0.00  0.00    +0.000 OA
ATOM     16  H   UNL     1      12.235  13.725  19.676  0.00  0.00    +0.000 HD
ENDBRANCH  12  15
ENDBRANCH   5   9
ENDBRANCH   1   6
BRANCH   3  17
ATOM     17  C   UNL     1       6.444   6.139  16.245  0.00  0.00    +0.000 C 
BRANCH  17  18
ATOM     18  C   UNL     1       4.972   6.548  16.271  0.00  0.00    +0.000 C 
BRANCH  18  19
ATOM     19  C   UNL     1       4.622   7.353  17.529  0.00  0.00    +0.000 C 
BRANCH  19  20
ATOM     20  C   UNL     1       3.109   7.404  17.812  0.00  0.00    +0.000 C 
BRANCH  20  21
ATOM     21  N   UNL     1       2.670   6.526  18.920  0.00  0.00    +0.000 NA
ATOM     22  C   UNL     1       2.050   7.351  19.966  0.00  0.00    +0.000 C 
BRANCH  21  23
ATOM     23  C   UNL     1       1.750   5.473  18.400  0.00  0.00    +0.000 C 
BRANCH  23  24
ATOM     24  C   UNL     1       2.282   4.041  18.372  0.00  0.00    +0.000 A 
ATOM     25  C   UNL     1       2.887   3.504  17.219  0.00  0.00    +0.000 A 
ATOM     26  C   UNL     1       3.598   2.308  17.258  0.00  0.00    +0.000 A 
ATOM     27  C   UNL     1       3.610   1.557  18.423  0.00  0.00    +0.000 A 
ATOM     28  C   UNL     1       2.890   1.991  19.536  0.00  0.00    +0.000 A 
ATOM     29  C   UNL     1       2.223   3.227  19.524  0.00  0.00    +0.000 A 
BRANCH  29  30
ATOM     30  O   UNL     1       1.500   3.711  20.588  0.00  0.00    +0.000 OA
ATOM     31  C   UNL     1       1.329   2.832  21.699  0.00  0.00    +0.000 C 
ENDBRANCH  29  30
ENDBRANCH  23  24
ENDBRANCH  21  23
ENDBRANCH  20  21
ENDBRANCH  19  20
ENDBRANCH  18  19
ENDBRANCH  17  18
ENDBRANCH   3  17
TORSDOF 12
ENDMDL
MODEL 9
REMARK VINA RESULT:      -7.2      5.112      8.455
REMARK  Name = 
REMARK  15 active torsions:
REMARK  status: ('A' for Active; 'I' for Inactive)
REMARK    1  A    between atoms: C_1  and  O_2
REMARK    2  A    between atoms: O_2  and  C_3
REMARK    3  A    between atoms: C_5  and  C_6
REMARK    4  A    between atoms: C_7  and  C_8
REMARK    5  A    between atoms: N_10  and  C_11
REMARK    6  A    between atoms: C_11  and  C_12
REMARK    7  A    between atoms: C_12  and  C_13
REMARK    8  A    between atoms: C_13  and  C_14
REMARK    9  A    between atoms: C_14  and  N_15
REMARK   10  A    between atoms: N_15  and  C_16
REMARK   11  A    between atoms: N_15  and  C_17
REMARK   12  A    between atoms: C_17  and  C_18
REMARK   13  A    between atoms: C_23  and  O_24
REMARK   14  A    between atoms: O_24  and  C_25
REMARK   15  A    between atoms: C_28  and  O_29
REMARK                            x       y       z     vdW  Elec       q    Type
REMARK                         _______ _______ _______ _____ _____    ______ ____
ROOT
ATOM      1  C   UNL     1       2.045   5.829  20.395  0.00  0.00    +0.000 C 
ATOM      2  O   UNL     1       1.278   5.031  20.912  0.00  0.00    +0.000 OA
ATOM      3  N   UNL     1       1.976   7.192  20.536  0.00  0.00    +0.000 N 
ATOM      4  H   UNL     1       2.710   7.775  20.162  0.00  0.00    +0.000 HD
ENDROOT
BRANCH   1   6
ATOM      5  C   UNL     1       3.508   6.105  18.429  0.00  0.00    +0.000 C 
ATOM      6  C   UNL     1       3.174   5.399  19.517  0.00  0.00    +0.000 C 
BRANCH   5   9
ATOM      7  C   UNL     1       6.800   6.242  16.530  0.00  0.00    +0.000 A 
ATOM      8  C   UNL     1       5.756   6.565  17.412  0.00  0.00    +0.000 A 
ATOM      9  C   UNL     1       4.607   5.767  17.521  0.00  0.00    +0.000 A 
ATOM     10  C   UNL     1       4.496   4.647  16.696  0.00  0.00    +0.000 A 
ATOM     11  C   UNL     1       5.524   4.315  15.809  0.00  0.00    +0.000 A 
ATOM     12  C   UNL     1       6.671   5.106  15.728  0.00  0.00    +0.000 A 
BRANCH   7  14
ATOM     13  C   UNL     1       7.860   8.059  17.668  0.00  0.00    +0.000 C 
ATOM     14  O   UNL     1       7.837   7.134  16.592  0.00  0.00    +0.000 OA
ENDBRANCH   7  14
BRANCH  12  15
ATOM     15  O   UNL     1       7.650   4.740  14.846  0.00  0.00    +0.000 OA
ATOM     16  H   UNL     1       7.569   3.791  14.656  0.00  0.00    +0.000 HD
ENDBRANCH  12  15
ENDBRANCH   5   9
ENDBRANCH   1   6
BRANCH   3  17
ATOM     17  C   UNL     1       0.967   7.821  21.366  0.00  0.00    +0.000 C 
BRANCH  17  18
ATOM     18  C   UNL     1       0.328   9.028  20.679  0.00  0.00    +0.000 C 
BRANCH  18  19
ATOM     19  C   UNL     1       1.130   9.483  19.453  0.00  0.00    +0.000 C 
BRANCH  19  20
ATOM     20  C   UNL     1       0.341  10.433  18.533  0.00  0.00    +0.000 C 
BRANCH  20  21
ATOM     21  N   UNL     1      -0.308  11.560  19.239  0.00  0.00    +0.000 NA
ATOM     22  C   UNL     1       0.732  12.442  19.787  0.00  0.00    +0.000 C 
BRANCH  21  23
ATOM     23  C   UNL     1      -1.234  12.274  18.312  0.00  0.00    +0.000 C 
BRANCH  23  24
ATOM     24  C   UNL     1      -2.716  11.914  18.402  0.00  0.00    +0.000 A 
ATOM     25  C   UNL     1      -3.499  12.294  19.509  0.00  0.00    +0.000 A 
ATOM     26  C   UNL     1      -4.888  12.201  19.487  0.00  0.00    +0.000 A 
ATOM     27  C   UNL     1      -5.517  11.606  18.405  0.00  0.00    +0.000 A 
ATOM     28  C   UNL     1      -4.753  11.082  17.362  0.00  0.00    +0.000 A 
ATOM     29  C   UNL     1      -3.357  11.228  17.347  0.00  0.00    +0.000 A 
BRANCH  29  30
ATOM     30  O   UNL     1      -2.552  10.737  16.348  0.00  0.00    +0.000 OA
ATOM     31  C   UNL     1      -3.140  10.610  15.054  0.00  0.00    +0.000 C 
ENDBRANCH  29  30
ENDBRANCH  23  24
ENDBRANCH  21  23
ENDBRANCH  20  21
ENDBRANCH  19  20
ENDBRANCH  18  19
ENDBRANCH  17  18
ENDBRANCH   3  17
TORSDOF 12
ENDMDL
