MODEL 1
REMARK VINA RESULT:      -8.3      0.000      0.000
REMARK  Name = 
REMARK  8 active torsions:
REMARK  status: ('A' for Active; 'I' for Inactive)
REMARK    1  A    between atoms: C_1  and  O_2
REMARK    2  A    between atoms: O_2  and  C_3
REMARK    3  A    between atoms: C_6  and  C_7
REMARK    4  A    between atoms: C_9  and  N_10
REMARK    5  A    between atoms: C_11  and  S_12
REMARK    6  A    between atoms: S_12  and  C_13
REMARK    7  A    between atoms: C_13  and  C_14
REMARK    8  A    between atoms: C_19  and  C_20
REMARK                            x       y       z     vdW  Elec       q    Type
REMARK                         _______ _______ _______ _____ _____    ______ ____
ROOT
ATOM      1  N   UNL     1       4.540   4.515  17.953  0.00  0.00    +0.000 N 
ATOM      2  C   UNL     1       4.031   5.690  18.513  0.00  0.00    +0.000 A 
ATOM      3  N   UNL     1       3.166   5.716  19.485  0.00  0.00    +0.000 NA
ATOM      4  C   UNL     1       2.640   4.497  19.935  0.00  0.00    +0.000 A 
ATOM      5  C   UNL     1       1.586   4.510  20.855  0.00  0.00    +0.000 A 
ATOM      6  C   UNL     1       0.985   3.317  21.274  0.00  0.00    +0.000 A 
ATOM      7  C   UNL     1       1.441   2.093  20.785  0.00  0.00    +0.000 A 
ATOM      8  C   UNL     1       2.490   2.066  19.872  0.00  0.00    +0.000 A 
ATOM      9  C   UNL     1       3.074   3.268  19.447  0.00  0.00    +0.000 A 
ATOM     10  C   UNL     1       4.122   3.266  18.419  0.00  0.00    +0.000 A 
ATOM     11  O   UNL     1       4.547   2.176  18.037  0.00  0.00    +0.000 OA
ENDROOT
BRANCH   1  18
ATOM     12  C   UNL     1       6.840   4.684  17.012  0.00  0.00    +0.000 A 
ATOM     13  C   UNL     1       7.656   4.713  15.875  0.00  0.00    +0.000 A 
ATOM     14  C   UNL     1       7.112   4.523  14.598  0.00  0.00    +0.000 A 
ATOM     15  C   UNL     1       5.746   4.293  14.434  0.00  0.00    +0.000 A 
ATOM     16  C   UNL     1       5.148   4.037  13.082  0.00  0.00    +0.000 C 
ATOM     17  C   UNL     1       4.926   4.281  15.564  0.00  0.00    +0.000 A 
ATOM     18  C   UNL     1       5.453   4.504  16.850  0.00  0.00    +0.000 A 
BRANCH  12  20
ATOM     19  C   UNL     1       7.773   6.021  18.758  0.00  0.00    +0.000 C 
ATOM     20  O   UNL     1       7.300   4.756  18.303  0.00  0.00    +0.000 OA
ENDBRANCH  12  20
ENDBRANCH   1  18
BRANCH   2  21
ATOM     21  S   UNL     1       4.438   7.239  17.775  0.00  0.00    +0.000 S 
BRANCH  21  22
ATOM     22  C   UNL     1       2.862   7.803  17.103  0.00  0.00    +0.000 C 
BRANCH  22  23
ATOM     23  C   UNL     1       2.223   8.881  17.961  0.00  0.00    +0.000 C 
ATOM     24  O   UNL     1       2.082  10.023  17.532  0.00  0.00    +0.000 OA
ATOM     25  N   UNL     1       1.843   8.418  19.205  0.00  0.00    +0.000 N 
ATOM     26  C   UNL     1       1.084   9.139  20.105  0.00  0.00    +0.000 A 
ATOM     27  C   UNL     1       0.858   8.742  21.446  0.00  0.00    +0.000 A 
ATOM     28  C   UNL     1       0.028   9.708  21.959  0.00  0.00    +0.000 A 
ATOM     29  C   UNL     1      -0.614   9.941  23.264  0.00  0.00    +0.000 C 
ATOM     30  O   UNL     1      -0.231  10.626  20.994  0.00  0.00    +0.000 OA
ATOM     31  N   UNL     1       0.428  10.271  19.836  0.00  0.00    +0.000 NA
ATOM     32  H   UNL     1       2.232   7.537  19.524  0.00  0.00    +0.000 HD
ENDBRANCH  22  23
ENDBRANCH  21  22
ENDBRANCH   2  21
TORSDOF 5
ENDMDL
MODEL 2
REMARK VINA RESULT:      -7.7      1.327      1.393
REMARK  Name = 
REMARK  8 active torsions:
REMARK  status: ('A' for Active; 'I' for Inactive)
REMARK    1  A    between atoms: C_1  and  O_2
REMARK    2  A    between atoms: O_2  and  C_3
REMARK    3  A    between atoms: C_6  and  C_7
REMARK    4  A    between atoms: C_9  and  N_10
REMARK    5  A    between atoms: C_11  and  S_12
REMARK    6  A    between atoms: S_12  and  C_13
REMARK    7  A    between atoms: C_13  and  C_14
REMARK    8  A    between atoms: C_19  and  C_20
REMARK                            x       y       z     vdW  Elec       q    Type
REMARK                         _______ _______ _______ _____ _____    ______ ____
ROOT
ATOM      1  N   UNL     1       4.480   5.029  18.200  0.00  0.00    +0.000 N 
ATOM      2  C   UNL     1       3.531   6.016  18.479  0.00  0.00    +0.000 A 
ATOM      3  N   UNL     1       2.632   5.916  19.414  0.00  0.00    +0.000 NA
ATOM      4  C   UNL     1       2.547   4.710  20.123  0.00  0.00    +0.000 A 
ATOM      5  C   UNL     1       1.482   4.516  21.010  0.00  0.00    +0.000 A 
ATOM      6  C   UNL     1       1.321   3.299  21.682  0.00  0.00    +0.000 A 
ATOM      7  C   UNL     1       2.232   2.262  21.483  0.00  0.00    +0.000 A 
ATOM      8  C   UNL     1       3.297   2.442  20.606  0.00  0.00    +0.000 A 
ATOM      9  C   UNL     1       3.439   3.659  19.926  0.00  0.00    +0.000 A 
ATOM     10  C   UNL     1       4.505   3.839  18.931  0.00  0.00    +0.000 A 
ATOM     11  O   UNL     1       5.329   2.933  18.806  0.00  0.00    +0.000 OA
ENDROOT
BRANCH   1  18
ATOM     12  C   UNL     1       6.634   5.852  17.258  0.00  0.00    +0.000 A 
ATOM     13  C   UNL     1       7.482   5.949  16.149  0.00  0.00    +0.000 A 
ATOM     14  C   UNL     1       7.164   5.307  14.945  0.00  0.00    +0.000 A 
ATOM     15  C   UNL     1       5.998   4.551  14.830  0.00  0.00    +0.000 A 
ATOM     16  C   UNL     1       5.660   3.813  13.568  0.00  0.00    +0.000 C 
ATOM     17  C   UNL     1       5.140   4.465  15.928  0.00  0.00    +0.000 A 
ATOM     18  C   UNL     1       5.430   5.133  17.133  0.00  0.00    +0.000 A 
BRANCH  12  20
ATOM     19  C   UNL     1       7.882   5.662  19.285  0.00  0.00    +0.000 C 
ATOM     20  O   UNL     1       6.918   6.359  18.502  0.00  0.00    +0.000 OA
ENDBRANCH  12  20
ENDBRANCH   1  18
BRANCH   2  21
ATOM     21  S   UNL     1       3.413   7.417  17.415  0.00  0.00    +0.000 S 
BRANCH  21  22
ATOM     22  C   UNL     1       1.751   8.040  17.736  0.00  0.00    +0.000 C 
BRANCH  22  23
ATOM     23  C   UNL     1       1.761   9.474  18.236  0.00  0.00    +0.000 C 
ATOM     24  O   UNL     1       2.378  10.346  17.630  0.00  0.00    +0.000 OA
ATOM     25  N   UNL     1       1.017   9.644  19.387  0.00  0.00    +0.000 N 
ATOM     26  C   UNL     1       0.715  10.870  19.945  0.00  0.00    +0.000 A 
ATOM     27  C   UNL     1       0.120  11.034  21.220  0.00  0.00    +0.000 A 
ATOM     28  C   UNL     1      -0.042  12.391  21.356  0.00  0.00    +0.000 A 
ATOM     29  C   UNL     1      -0.593  13.273  22.398  0.00  0.00    +0.000 C 
ATOM     30  O   UNL     1       0.422  13.005  20.239  0.00  0.00    +0.000 OA
ATOM     31  N   UNL     1       0.895  12.056  19.357  0.00  0.00    +0.000 NA
ATOM     32  H   UNL     1       0.765   8.816  19.918  0.00  0.00    +0.000 HD
ENDBRANCH  22  23
ENDBRANCH  21  22
ENDBRANCH   2  21
TORSDOF 5
ENDMDL
MODEL 3
REMARK VINA RESULT:      -7.6      4.138      7.380
REMARK  Name = 
REMARK  8 active torsions:
REMARK  status: ('A' for Active; 'I' for Inactive)
REMARK    1  A    between atoms: C_1  and  O_2
REMARK    2  A    between atoms: O_2  and  C_3
REMARK    3  A    between atoms: C_6  and  C_7
REMARK    4  A    between atoms: C_9  and  N_10
REMARK    5  A    between atoms: C_11  and  S_12
REMARK    6  A    between atoms: S_12  and  C_13
REMARK    7  A    between atoms: C_13  and  C_14
REMARK    8  A    between atoms: C_19  and  C_20
REMARK                            x       y       z     vdW  Elec       q    Type
REMARK                         _______ _______ _______ _____ _____    ______ ____
ROOT
ATOM      1  N   UNL     1       5.471   5.082  16.562  0.00  0.00    +0.000 N 
ATOM      2  C   UNL     1       6.655   5.816  16.449  0.00  0.00    +0.000 A 
ATOM      3  N   UNL     1       7.369   5.881  15.362  0.00  0.00    +0.000 NA
ATOM      4  C   UNL     1       6.980   5.094  14.269  0.00  0.00    +0.000 A 
ATOM      5  C   UNL     1       7.824   5.014  13.155  0.00  0.00    +0.000 A 
ATOM      6  C   UNL     1       7.509   4.184  12.074  0.00  0.00    +0.000 A 
ATOM      7  C   UNL     1       6.336   3.429  12.089  0.00  0.00    +0.000 A 
ATOM      8  C   UNL     1       5.487   3.501  13.188  0.00  0.00    +0.000 A 
ATOM      9  C   UNL     1       5.821   4.324  14.273  0.00  0.00    +0.000 A 
ATOM     10  C   UNL     1       4.983   4.347  15.479  0.00  0.00    +0.000 A 
ATOM     11  O   UNL     1       3.927   3.716  15.454  0.00  0.00    +0.000 OA
ENDROOT
BRANCH   1  18
ATOM     12  C   UNL     1       3.883   6.009  18.242  0.00  0.00    +0.000 A 
ATOM     13  C   UNL     1       3.231   5.851  19.470  0.00  0.00    +0.000 A 
ATOM     14  C   UNL     1       3.377   4.671  20.212  0.00  0.00    +0.000 A 
ATOM     15  C   UNL     1       4.170   3.627  19.737  0.00  0.00    +0.000 A 
ATOM     16  C   UNL     1       4.303   2.335  20.488  0.00  0.00    +0.000 C 
ATOM     17  C   UNL     1       4.836   3.787  18.520  0.00  0.00    +0.000 A 
ATOM     18  C   UNL     1       4.725   4.980  17.781  0.00  0.00    +0.000 A 
BRANCH  12  20
ATOM     19  C   UNL     1       2.870   8.138  17.856  0.00  0.00    +0.000 C 
ATOM     20  O   UNL     1       3.713   7.083  17.403  0.00  0.00    +0.000 OA
ENDBRANCH  12  20
ENDBRANCH   1  18
BRANCH   2  21
ATOM     21  S   UNL     1       7.335   6.575  17.888  0.00  0.00    +0.000 S 
BRANCH  21  22
ATOM     22  C   UNL     1       7.264   8.335  17.499  0.00  0.00    +0.000 C 
BRANCH  22  23
ATOM     23  C   UNL     1       8.319   9.132  18.246  0.00  0.00    +0.000 C 
ATOM     24  O   UNL     1       8.983   8.612  19.139  0.00  0.00    +0.000 OA
ATOM     25  N   UNL     1       8.420  10.435  17.799  0.00  0.00    +0.000 N 
ATOM     26  C   UNL     1       9.415  11.313  18.181  0.00  0.00    +0.000 A 
ATOM     27  C   UNL     1       9.409  12.696  17.875  0.00  0.00    +0.000 A 
ATOM     28  C   UNL     1      10.585  13.173  18.398  0.00  0.00    +0.000 A 
ATOM     29  C   UNL     1      11.243  14.490  18.448  0.00  0.00    +0.000 C 
ATOM     30  O   UNL     1      11.258  12.148  18.979  0.00  0.00    +0.000 OA
ATOM     31  N   UNL     1      10.527  10.986  18.846  0.00  0.00    +0.000 NA
ATOM     32  H   UNL     1       7.661  10.806  17.238  0.00  0.00    +0.000 HD
ENDBRANCH  22  23
ENDBRANCH  21  22
ENDBRANCH   2  21
TORSDOF 5
ENDMDL
MODEL 4
REMARK VINA RESULT:      -7.5      1.993      2.189
REMARK  Name = 
REMARK  8 active torsions:
REMARK  status: ('A' for Active; 'I' for Inactive)
REMARK    1  A    between atoms: C_1  and  O_2
REMARK    2  A    between atoms: O_2  and  C_3
REMARK    3  A    between atoms: C_6  and  C_7
REMARK    4  A    between atoms: C_9  and  N_10
REMARK    5  A    between atoms: C_11  and  S_12
REMARK    6  A    between atoms: S_12  and  C_13
REMARK    7  A    between atoms: C_13  and  C_14
REMARK    8  A    between atoms: C_19  and  C_20
REMARK                            x       y       z     vdW  Elec       q    Type
REMARK                         _______ _______ _______ _____ _____    ______ ____
ROOT
ATOM      1  N   UNL     1       4.240   4.901  18.205  0.00  0.00    +0.000 N 
ATOM      2  C   UNL     1       3.137   5.748  18.347  0.00  0.00    +0.000 A 
ATOM      3  N   UNL     1       2.210   5.590  19.247  0.00  0.00    +0.000 NA
ATOM      4  C   UNL     1       2.268   4.451  20.061  0.00  0.00    +0.000 A 
ATOM      5  C   UNL     1       1.194   4.170  20.914  0.00  0.00    +0.000 A 
ATOM      6  C   UNL     1       1.180   3.005  21.690  0.00  0.00    +0.000 A 
ATOM      7  C   UNL     1       2.247   2.110  21.631  0.00  0.00    +0.000 A 
ATOM      8  C   UNL     1       3.322   2.378  20.789  0.00  0.00    +0.000 A 
ATOM      9  C   UNL     1       3.319   3.539  20.004  0.00  0.00    +0.000 A 
ATOM     10  C   UNL     1       4.401   3.797  19.046  0.00  0.00    +0.000 A 
ATOM     11  O   UNL     1       5.359   3.024  19.044  0.00  0.00    +0.000 OA
ENDROOT
BRANCH   1  18
ATOM     12  C   UNL     1       6.412   5.789  17.371  0.00  0.00    +0.000 A 
ATOM     13  C   UNL     1       7.296   5.941  16.297  0.00  0.00    +0.000 A 
ATOM     14  C   UNL     1       7.028   5.343  15.059  0.00  0.00    +0.000 A 
ATOM     15  C   UNL     1       5.877   4.577  14.873  0.00  0.00    +0.000 A 
ATOM     16  C   UNL     1       5.593   3.886  13.572  0.00  0.00    +0.000 C 
ATOM     17  C   UNL     1       4.984   4.437  15.937  0.00  0.00    +0.000 A 
ATOM     18  C   UNL     1       5.224   5.060  17.177  0.00  0.00    +0.000 A 
BRANCH  12  20
ATOM     19  C   UNL     1       7.859   5.844  19.271  0.00  0.00    +0.000 C 
ATOM     20  O   UNL     1       6.646   6.249  18.643  0.00  0.00    +0.000 OA
ENDBRANCH  12  20
ENDBRANCH   1  18
BRANCH   2  21
ATOM     21  S   UNL     1       2.870   7.016  17.152  0.00  0.00    +0.000 S 
BRANCH  21  22
ATOM     22  C   UNL     1       2.984   8.531  18.125  0.00  0.00    +0.000 C 
BRANCH  22  23
ATOM     23  C   UNL     1       1.647   8.931  18.725  0.00  0.00    +0.000 C 
ATOM     24  O   UNL     1       1.451   8.846  19.934  0.00  0.00    +0.000 OA
ATOM     25  N   UNL     1       0.750   9.383  17.777  0.00  0.00    +0.000 N 
ATOM     26  C   UNL     1      -0.463   9.972  18.072  0.00  0.00    +0.000 A 
ATOM     27  C   UNL     1      -1.459  10.258  17.107  0.00  0.00    +0.000 A 
ATOM     28  C   UNL     1      -2.463  10.871  17.814  0.00  0.00    +0.000 A 
ATOM     29  C   UNL     1      -3.778  11.440  17.473  0.00  0.00    +0.000 C 
ATOM     30  O   UNL     1      -2.098  10.953  19.119  0.00  0.00    +0.000 OA
ATOM     31  N   UNL     1      -0.849  10.390  19.280  0.00  0.00    +0.000 NA
ATOM     32  H   UNL     1       0.942   9.175  16.802  0.00  0.00    +0.000 HD
ENDBRANCH  22  23
ENDBRANCH  21  22
ENDBRANCH   2  21
TORSDOF 5
ENDMDL
MODEL 5
REMARK VINA RESULT:      -7.4      3.469      7.156
REMARK  Name = 
REMARK  8 active torsions:
REMARK  status: ('A' for Active; 'I' for Inactive)
REMARK    1  A    between atoms: C_1  and  O_2
REMARK    2  A    between atoms: O_2  and  C_3
REMARK    3  A    between atoms: C_6  and  C_7
REMARK    4  A    between atoms: C_9  and  N_10
REMARK    5  A    between atoms: C_11  and  S_12
REMARK    6  A    between atoms: S_12  and  C_13
REMARK    7  A    between atoms: C_13  and  C_14
REMARK    8  A    between atoms: C_19  and  C_20
REMARK                            x       y       z     vdW  Elec       q    Type
REMARK                         _______ _______ _______ _____ _____    ______ ____
ROOT
ATOM      1  N   UNL     1       0.984   9.191  19.156  0.00  0.00    +0.000 N 
ATOM      2  C   UNL     1       0.820   8.507  20.364  0.00  0.00    +0.000 A 
ATOM      3  N   UNL     1       1.531   7.477  20.719  0.00  0.00    +0.000 NA
ATOM      4  C   UNL     1       2.453   6.963  19.797  0.00  0.00    +0.000 A 
ATOM      5  C   UNL     1       3.103   5.757  20.086  0.00  0.00    +0.000 A 
ATOM      6  C   UNL     1       3.976   5.172  19.162  0.00  0.00    +0.000 A 
ATOM      7  C   UNL     1       4.218   5.793  17.937  0.00  0.00    +0.000 A 
ATOM      8  C   UNL     1       3.582   6.993  17.637  0.00  0.00    +0.000 A 
ATOM      9  C   UNL     1       2.697   7.562  18.564  0.00  0.00    +0.000 A 
ATOM     10  C   UNL     1       1.948   8.781  18.232  0.00  0.00    +0.000 A 
ATOM     11  O   UNL     1       2.213   9.342  17.169  0.00  0.00    +0.000 OA
ENDROOT
BRANCH   1  18
ATOM     12  C   UNL     1       0.520  11.633  18.988  0.00  0.00    +0.000 A 
ATOM     13  C   UNL     1      -0.370  12.646  18.616  0.00  0.00    +0.000 A 
ATOM     14  C   UNL     1      -1.583  12.340  17.987  0.00  0.00    +0.000 A 
ATOM     15  C   UNL     1      -1.926  11.017  17.710  0.00  0.00    +0.000 A 
ATOM     16  C   UNL     1      -3.196  10.666  16.993  0.00  0.00    +0.000 C 
ATOM     17  C   UNL     1      -1.049  10.000  18.095  0.00  0.00    +0.000 A 
ATOM     18  C   UNL     1       0.158  10.292  18.759  0.00  0.00    +0.000 A 
BRANCH  12  20
ATOM     19  C   UNL     1       2.272  13.180  19.478  0.00  0.00    +0.000 C 
ATOM     20  O   UNL     1       1.771  11.847  19.511  0.00  0.00    +0.000 OA
ENDBRANCH  12  20
ENDBRANCH   1  18
BRANCH   2  21
ATOM     21  S   UNL     1      -0.528   8.938  21.416  0.00  0.00    +0.000 S 
BRANCH  21  22
ATOM     22  C   UNL     1       0.210  10.106  22.576  0.00  0.00    +0.000 C 
BRANCH  22  23
ATOM     23  C   UNL     1      -0.518  11.438  22.592  0.00  0.00    +0.000 C 
ATOM     24  O   UNL     1       0.016  12.452  22.151  0.00  0.00    +0.000 OA
ATOM     25  N   UNL     1      -1.787  11.346  23.131  0.00  0.00    +0.000 N 
ATOM     26  C   UNL     1      -2.720  12.363  23.101  0.00  0.00    +0.000 A 
ATOM     27  C   UNL     1      -3.942  12.336  23.816  0.00  0.00    +0.000 A 
ATOM     28  C   UNL     1      -4.574  13.506  23.470  0.00  0.00    +0.000 A 
ATOM     29  C   UNL     1      -5.861  14.133  23.814  0.00  0.00    +0.000 C 
ATOM     30  O   UNL     1      -3.788  14.192  22.602  0.00  0.00    +0.000 OA
ATOM     31  N   UNL     1      -2.630  13.479  22.372  0.00  0.00    +0.000 NA
ATOM     32  H   UNL     1      -2.013  10.522  23.677  0.00  0.00    +0.000 HD
ENDBRANCH  22  23
ENDBRANCH  21  22
ENDBRANCH   2  21
TORSDOF 5
ENDMDL
MODEL 6
REMARK VINA RESULT:      -7.2      2.098      2.365
REMARK  Name = 
REMARK  8 active torsions:
REMARK  status: ('A' for Active; 'I' for Inactive)
REMARK    1  A    between atoms: C_1  and  O_2
REMARK    2  A    between atoms: O_2  and  C_3
REMARK    3  A    between atoms: C_6  and  C_7
REMARK    4  A    between atoms: C_9  and  N_10
REMARK    5  A    between atoms: C_11  and  S_12
REMARK    6  A    between atoms: S_12  and  C_13
REMARK    7  A    between atoms: C_13  and  C_14
REMARK    8  A    between atoms: C_19  and  C_20
REMARK                            x       y       z     vdW  Elec       q    Type
REMARK                         _______ _______ _______ _____ _____    ______ ____
ROOT
ATOM      1  N   UNL     1       4.419   5.103  18.114  0.00  0.00    +0.000 N 
ATOM      2  C   UNL     1       3.562   6.145  18.477  0.00  0.00    +0.000 A 
ATOM      3  N   UNL     1       2.659   6.052  19.409  0.00  0.00    +0.000 NA
ATOM      4  C   UNL     1       2.469   4.806  20.023  0.00  0.00    +0.000 A 
ATOM      5  C   UNL     1       1.392   4.638  20.901  0.00  0.00    +0.000 A 
ATOM      6  C   UNL     1       1.125   3.391  21.478  0.00  0.00    +0.000 A 
ATOM      7  C   UNL     1       1.940   2.297  21.191  0.00  0.00    +0.000 A 
ATOM      8  C   UNL     1       3.015   2.450  20.322  0.00  0.00    +0.000 A 
ATOM      9  C   UNL     1       3.264   3.700  19.737  0.00  0.00    +0.000 A 
ATOM     10  C   UNL     1       4.340   3.862  18.751  0.00  0.00    +0.000 A 
ATOM     11  O   UNL     1       5.080   2.900  18.549  0.00  0.00    +0.000 OA
ENDROOT
BRANCH   1  18
ATOM     12  C   UNL     1       6.584   5.912  17.184  0.00  0.00    +0.000 A 
ATOM     13  C   UNL     1       7.436   6.009  16.078  0.00  0.00    +0.000 A 
ATOM     14  C   UNL     1       7.115   5.380  14.869  0.00  0.00    +0.000 A 
ATOM     15  C   UNL     1       5.941   4.636  14.744  0.00  0.00    +0.000 A 
ATOM     16  C   UNL     1       5.599   3.912  13.476  0.00  0.00    +0.000 C 
ATOM     17  C   UNL     1       5.079   4.551  15.840  0.00  0.00    +0.000 A 
ATOM     18  C   UNL     1       5.373   5.206  17.051  0.00  0.00    +0.000 A 
BRANCH  12  20
ATOM     19  C   UNL     1       7.808   5.683  19.222  0.00  0.00    +0.000 C 
ATOM     20  O   UNL     1       6.869   6.407  18.433  0.00  0.00    +0.000 OA
ENDBRANCH  12  20
ENDBRANCH   1  18
BRANCH   2  21
ATOM     21  S   UNL     1       3.566   7.630  17.526  0.00  0.00    +0.000 S 
BRANCH  21  22
ATOM     22  C   UNL     1       1.834   8.133  17.539  0.00  0.00    +0.000 C 
BRANCH  22  23
ATOM     23  C   UNL     1       1.585   9.312  18.464  0.00  0.00    +0.000 C 
ATOM     24  O   UNL     1       1.152   9.138  19.601  0.00  0.00    +0.000 OA
ATOM     25  N   UNL     1       1.904  10.524  17.884  0.00  0.00    +0.000 N 
ATOM     26  C   UNL     1       1.942  11.726  18.562  0.00  0.00    +0.000 A 
ATOM     27  C   UNL     1       2.080  12.986  17.931  0.00  0.00    +0.000 A 
ATOM     28  C   UNL     1       2.116  13.890  18.964  0.00  0.00    +0.000 A 
ATOM     29  C   UNL     1       2.250  15.353  19.060  0.00  0.00    +0.000 C 
ATOM     30  O   UNL     1       2.008  13.222  20.140  0.00  0.00    +0.000 OA
ATOM     31  N   UNL     1       1.899  11.870  19.889  0.00  0.00    +0.000 NA
ATOM     32  H   UNL     1       2.014  10.554  16.875  0.00  0.00    +0.000 HD
ENDBRANCH  22  23
ENDBRANCH  21  22
ENDBRANCH   2  21
TORSDOF 5
ENDMDL
MODEL 7
REMARK VINA RESULT:      -7.2      3.572      7.211
REMARK  Name = 
REMARK  8 active torsions:
REMARK  status: ('A' for Active; 'I' for Inactive)
REMARK    1  A    between atoms: C_1  and  O_2
REMARK    2  A    between atoms: O_2  and  C_3
REMARK    3  A    between atoms: C_6  and  C_7
REMARK    4  A    between atoms: C_9  and  N_10
REMARK    5  A    between atoms: C_11  and  S_12
REMARK    6  A    between atoms: S_12  and  C_13
REMARK    7  A    between atoms: C_13  and  C_14
REMARK    8  A    between atoms: C_19  and  C_20
REMARK                            x       y       z     vdW  Elec       q    Type
REMARK                         _______ _______ _______ _____ _____    ______ ____
ROOT
ATOM      1  N   UNL     1       0.998   9.155  19.139  0.00  0.00    +0.000 N 
ATOM      2  C   UNL     1       0.862   8.424  20.323  0.00  0.00    +0.000 A 
ATOM      3  N   UNL     1       1.611   7.409  20.641  0.00  0.00    +0.000 NA
ATOM      4  C   UNL     1       2.549   6.961  19.701  0.00  0.00    +0.000 A 
ATOM      5  C   UNL     1       3.244   5.771  19.947  0.00  0.00    +0.000 A 
ATOM      6  C   UNL     1       4.136   5.252  19.002  0.00  0.00    +0.000 A 
ATOM      7  C   UNL     1       4.353   5.923  17.800  0.00  0.00    +0.000 A 
ATOM      8  C   UNL     1       3.672   7.109  17.543  0.00  0.00    +0.000 A 
ATOM      9  C   UNL     1       2.768   7.612  18.490  0.00  0.00    +0.000 A 
ATOM     10  C   UNL     1       1.975   8.813  18.201  0.00  0.00    +0.000 A 
ATOM     11  O   UNL     1       2.216   9.421  17.159  0.00  0.00    +0.000 OA
ENDROOT
BRANCH   1  18
ATOM     12  C   UNL     1       0.379  11.568  19.172  0.00  0.00    +0.000 A 
ATOM     13  C   UNL     1      -0.547  12.558  18.825  0.00  0.00    +0.000 A 
ATOM     14  C   UNL     1      -1.682  12.244  18.066  0.00  0.00    +0.000 A 
ATOM     15  C   UNL     1      -1.908  10.937  17.633  0.00  0.00    +0.000 A 
ATOM     16  C   UNL     1      -3.088  10.585  16.777  0.00  0.00    +0.000 C 
ATOM     17  C   UNL     1      -0.995   9.943  17.991  0.00  0.00    +0.000 A 
ATOM     18  C   UNL     1       0.131  10.238  18.782  0.00  0.00    +0.000 A 
BRANCH  12  20
ATOM     19  C   UNL     1       2.169  13.080  19.632  0.00  0.00    +0.000 C 
ATOM     20  O   UNL     1       1.566  11.804  19.820  0.00  0.00    +0.000 OA
ENDBRANCH  12  20
ENDBRANCH   1  18
BRANCH   2  21
ATOM     21  S   UNL     1      -0.499   8.767  21.391  0.00  0.00    +0.000 S 
BRANCH  21  22
ATOM     22  C   UNL     1       0.183   9.963  22.557  0.00  0.00    +0.000 C 
BRANCH  22  23
ATOM     23  C   UNL     1      -0.759  11.127  22.804  0.00  0.00    +0.000 C 
ATOM     24  O   UNL     1      -1.827  10.959  23.388  0.00  0.00    +0.000 OA
ATOM     25  N   UNL     1      -0.269  12.324  22.318  0.00  0.00    +0.000 N 
ATOM     26  C   UNL     1      -0.839  13.557  22.567  0.00  0.00    +0.000 A 
ATOM     27  C   UNL     1      -0.451  14.753  21.916  0.00  0.00    +0.000 A 
ATOM     28  C   UNL     1      -1.230  15.728  22.488  0.00  0.00    +0.000 A 
ATOM     29  C   UNL     1      -1.363  17.185  22.318  0.00  0.00    +0.000 C 
ATOM     30  O   UNL     1      -2.033  15.161  23.422  0.00  0.00    +0.000 OA
ATOM     31  N   UNL     1      -1.790  13.804  23.472  0.00  0.00    +0.000 NA
ATOM     32  H   UNL     1       0.493  12.289  21.650  0.00  0.00    +0.000 HD
ENDBRANCH  22  23
ENDBRANCH  21  22
ENDBRANCH   2  21
TORSDOF 5
ENDMDL
MODEL 8
REMARK VINA RESULT:      -7.2      4.204      9.786
REMARK  Name = 
REMARK  8 active torsions:
REMARK  status: ('A' for Active; 'I' for Inactive)
REMARK    1  A    between atoms: C_1  and  O_2
REMARK    2  A    between atoms: O_2  and  C_3
REMARK    3  A    between atoms: C_6  and  C_7
REMARK    4  A    between atoms: C_9  and  N_10
REMARK    5  A    between atoms: C_11  and  S_12
REMARK    6  A    between atoms: S_12  and  C_13
REMARK    7  A    between atoms: C_13  and  C_14
REMARK    8  A    between atoms: C_19  and  C_20
REMARK                            x       y       z     vdW  Elec       q    Type
REMARK                         _______ _______ _______ _____ _____    ______ ____
ROOT
ATOM      1  N   UNL     1      -0.449  12.615  19.766  0.00  0.00    +0.000 N 
ATOM      2  C   UNL     1       0.210  11.978  20.821  0.00  0.00    +0.000 A 
ATOM      3  N   UNL     1       1.335  12.389  21.329  0.00  0.00    +0.000 NA
ATOM      4  C   UNL     1       1.974  13.479  20.723  0.00  0.00    +0.000 A 
ATOM      5  C   UNL     1       3.264  13.829  21.141  0.00  0.00    +0.000 A 
ATOM      6  C   UNL     1       3.965  14.865  20.513  0.00  0.00    +0.000 A 
ATOM      7  C   UNL     1       3.379  15.572  19.463  0.00  0.00    +0.000 A 
ATOM      8  C   UNL     1       2.098  15.237  19.040  0.00  0.00    +0.000 A 
ATOM      9  C   UNL     1       1.411  14.187  19.665  0.00  0.00    +0.000 A 
ATOM     10  C   UNL     1       0.093  13.760  19.177  0.00  0.00    +0.000 A 
ATOM     11  O   UNL     1      -0.430  14.427  18.285  0.00  0.00    +0.000 OA
ENDROOT
BRANCH   1  18
ATOM     12  C   UNL     1      -2.932  12.432  19.703  0.00  0.00    +0.000 A 
ATOM     13  C   UNL     1      -4.063  11.864  19.107  0.00  0.00    +0.000 A 
ATOM     14  C   UNL     1      -3.942  11.031  17.987  0.00  0.00    +0.000 A 
ATOM     15  C   UNL     1      -2.689  10.757  17.438  0.00  0.00    +0.000 A 
ATOM     16  C   UNL     1      -2.536   9.909  16.210  0.00  0.00    +0.000 C 
ATOM     17  C   UNL     1      -1.556  11.309  18.039  0.00  0.00    +0.000 A 
ATOM     18  C   UNL     1      -1.661  12.120  19.185  0.00  0.00    +0.000 A 
BRANCH  12  20
ATOM     19  C   UNL     1      -3.803  13.031  21.845  0.00  0.00    +0.000 C 
ATOM     20  O   UNL     1      -2.967  13.339  20.733  0.00  0.00    +0.000 OA
ENDBRANCH  12  20
ENDBRANCH   1  18
BRANCH   2  21
ATOM     21  S   UNL     1      -0.407  10.435  21.411  0.00  0.00    +0.000 S 
BRANCH  21  22
ATOM     22  C   UNL     1       1.086   9.443  21.612  0.00  0.00    +0.000 C 
BRANCH  22  23
ATOM     23  C   UNL     1       1.405   8.626  20.373  0.00  0.00    +0.000 C 
ATOM     24  O   UNL     1       1.241   9.097  19.251  0.00  0.00    +0.000 OA
ATOM     25  N   UNL     1       1.882   7.365  20.673  0.00  0.00    +0.000 N 
ATOM     26  C   UNL     1       2.412   6.492  19.743  0.00  0.00    +0.000 A 
ATOM     27  C   UNL     1       2.721   5.138  20.016  0.00  0.00    +0.000 A 
ATOM     28  C   UNL     1       3.258   4.660  18.846  0.00  0.00    +0.000 A 
ATOM     29  C   UNL     1       3.802   3.365  18.404  0.00  0.00    +0.000 C 
ATOM     30  O   UNL     1       3.274   5.659  17.928  0.00  0.00    +0.000 OA
ATOM     31  N   UNL     1       2.745   6.804  18.487  0.00  0.00    +0.000 NA
ATOM     32  H   UNL     1       1.738   7.013  21.613  0.00  0.00    +0.000 HD
ENDBRANCH  22  23
ENDBRANCH  21  22
ENDBRANCH   2  21
TORSDOF 5
ENDMDL
MODEL 9
REMARK VINA RESULT:      -7.1      3.668      7.230
REMARK  Name = 
REMARK  8 active torsions:
REMARK  status: ('A' for Active; 'I' for Inactive)
REMARK    1  A    between atoms: C_1  and  O_2
REMARK    2  A    between atoms: O_2  and  C_3
REMARK    3  A    between atoms: C_6  and  C_7
REMARK    4  A    between atoms: C_9  and  N_10
REMARK    5  A    between atoms: C_11  and  S_12
REMARK    6  A    between atoms: S_12  and  C_13
REMARK    7  A    between atoms: C_13  and  C_14
REMARK    8  A    between atoms: C_19  and  C_20
REMARK                            x       y       z     vdW  Elec       q    Type
REMARK                         _______ _______ _______ _____ _____    ______ ____
ROOT
ATOM      1  N   UNL     1       0.973   9.333  19.182  0.00  0.00    +0.000 N 
ATOM      2  C   UNL     1       0.783   8.705  20.415  0.00  0.00    +0.000 A 
ATOM      3  N   UNL     1       1.433   7.646  20.800  0.00  0.00    +0.000 NA
ATOM      4  C   UNL     1       2.308   7.041  19.887  0.00  0.00    +0.000 A 
ATOM      5  C   UNL     1       2.886   5.809  20.213  0.00  0.00    +0.000 A 
ATOM      6  C   UNL     1       3.708   5.138  19.301  0.00  0.00    +0.000 A 
ATOM      7  C   UNL     1       3.972   5.698  18.052  0.00  0.00    +0.000 A 
ATOM      8  C   UNL     1       3.407   6.924  17.715  0.00  0.00    +0.000 A 
ATOM      9  C   UNL     1       2.572   7.579  18.631  0.00  0.00    +0.000 A 
ATOM     10  C   UNL     1       1.897   8.830  18.263  0.00  0.00    +0.000 A 
ATOM     11  O   UNL     1       2.182   9.336  17.177  0.00  0.00    +0.000 OA
ENDROOT
BRANCH   1  18
ATOM     12  C   UNL     1       0.651  11.792  18.947  0.00  0.00    +0.000 A 
ATOM     13  C   UNL     1      -0.179  12.845  18.547  0.00  0.00    +0.000 A 
ATOM     14  C   UNL     1      -1.408  12.593  17.925  0.00  0.00    +0.000 A 
ATOM     15  C   UNL     1      -1.827  11.284  17.684  0.00  0.00    +0.000 A 
ATOM     16  C   UNL     1      -3.116  10.988  16.976  0.00  0.00    +0.000 C 
ATOM     17  C   UNL     1      -1.011  10.229  18.097  0.00  0.00    +0.000 A 
ATOM     18  C   UNL     1       0.211  10.469  18.754  0.00  0.00    +0.000 A 
BRANCH  12  20
ATOM     19  C   UNL     1       2.157  13.114  20.246  0.00  0.00    +0.000 C 
ATOM     20  O   UNL     1       1.912  11.948  19.465  0.00  0.00    +0.000 OA
ENDBRANCH  12  20
ENDBRANCH   1  18
BRANCH   2  21
ATOM     21  S   UNL     1      -0.521   9.257  21.467  0.00  0.00    +0.000 S 
BRANCH  21  22
ATOM     22  C   UNL     1       0.199  10.684  22.303  0.00  0.00    +0.000 C 
BRANCH  22  23
ATOM     23  C   UNL     1      -0.798  11.818  22.466  0.00  0.00    +0.000 C 
ATOM     24  O   UNL     1      -0.641  12.672  23.335  0.00  0.00    +0.000 OA
ATOM     25  N   UNL     1      -1.831  11.758  21.551  0.00  0.00    +0.000 N 
ATOM     26  C   UNL     1      -2.765  12.757  21.365  0.00  0.00    +0.000 A 
ATOM     27  C   UNL     1      -3.927  12.614  20.569  0.00  0.00    +0.000 A 
ATOM     28  C   UNL     1      -4.540  13.842  20.625  0.00  0.00    +0.000 A 
ATOM     29  C   UNL     1      -5.762  14.422  20.042  0.00  0.00    +0.000 C 
ATOM     30  O   UNL     1      -3.798  14.671  21.401  0.00  0.00    +0.000 OA
ATOM     31  N   UNL     1      -2.690  13.993  21.865  0.00  0.00    +0.000 NA
ATOM     32  H   UNL     1      -1.979  10.884  21.057  0.00  0.00    +0.000 HD
ENDBRANCH  22  23
ENDBRANCH  21  22
ENDBRANCH   2  21
TORSDOF 5
ENDMDL
