MODEL 1
REMARK VINA RESULT:      -7.5      0.000      0.000
REMARK  Name = 
REMARK  3 active torsions:
REMARK  status: ('A' for Active; 'I' for Inactive)
REMARK    1  A    between atoms: N_9  and  S_10
REMARK    2  A    between atoms: S_10  and  C_13
REMARK    3  A    between atoms: C_16  and  C_17
REMARK                            x       y       z     vdW  Elec       q    Type
REMARK                         _______ _______ _______ _____ _____    ______ ____
ROOT
ATOM      1  C   UNL     1       2.848   3.387  16.994  0.00  0.00    +0.000 C 
ATOM      2  C   UNL     1       3.955   4.144  17.026  0.00  0.00    +0.000 C 
ATOM      3  C   UNL     1       4.909   4.141  15.914  0.00  0.00    +0.000 A 
ATOM      4  C   UNL     1       4.712   3.761  14.589  0.00  0.00    +0.000 A 
ATOM      5  C   UNL     1       5.763   3.902  13.688  0.00  0.00    +0.000 A 
ATOM      6  C   UNL     1       6.988   4.421  14.116  0.00  0.00    +0.000 A 
ATOM      7  C   UNL     1       7.171   4.816  15.448  0.00  0.00    +0.000 A 
ATOM      8  C   UNL     1       6.126   4.661  16.348  0.00  0.00    +0.000 A 
ATOM      9  N   UNL     1       6.022   5.133  17.700  0.00  0.00    +0.000 N 
ATOM     10  C   UNL     1       4.566   5.042  18.141  0.00  0.00    +0.000 C 
ATOM     11  C   UNL     1       4.321   4.506  19.566  0.00  0.00    +0.000 C 
ATOM     12  C   UNL     1       2.892   4.704  20.103  0.00  0.00    +0.000 C 
ATOM     13  C   UNL     1       2.338   6.106  19.869  0.00  0.00    +0.000 C 
ATOM     14  C   UNL     1       2.540   6.596  18.443  0.00  0.00    +0.000 C 
ATOM     15  C   UNL     1       4.000   6.482  18.019  0.00  0.00    +0.000 C 
ENDROOT
BRANCH   9  16
ATOM     16  S   UNL     1       7.360   5.360  18.691  0.00  0.00    +0.000 S 
ATOM     17  O   UNL     1       6.967   5.242  20.085  0.00  0.00    +0.000 OA
ATOM     18  O   UNL     1       8.463   4.548  18.215  0.00  0.00    +0.000 OA
BRANCH  16  19
ATOM     19  C   UNL     1       7.810   7.073  18.451  0.00  0.00    +0.000 A 
ATOM     20  C   UNL     1       8.731   7.674  19.318  0.00  0.00    +0.000 A 
ATOM     21  C   UNL     1       9.042   9.029  19.175  0.00  0.00    +0.000 A 
ATOM     22  C   UNL     1       8.444   9.789  18.163  0.00  0.00    +0.000 A 
ATOM     23  C   UNL     1       8.670  11.271  18.080  0.00  0.00    +0.000 C 
ATOM     24  C   UNL     1       7.629   9.146  17.221  0.00  0.00    +0.000 A 
ATOM     25  C   UNL     1       7.314   7.790  17.360  0.00  0.00    +0.000 A 
ENDBRANCH  16  19
ENDBRANCH   9  16
TORSDOF 2
ENDMDL
MODEL 2
REMARK VINA RESULT:      -7.2      8.176     10.683
REMARK  Name = 
REMARK  3 active torsions:
REMARK  status: ('A' for Active; 'I' for Inactive)
REMARK    1  A    between atoms: N_9  and  S_10
REMARK    2  A    between atoms: S_10  and  C_13
REMARK    3  A    between atoms: C_16  and  C_17
REMARK                            x       y       z     vdW  Elec       q    Type
REMARK                         _______ _______ _______ _____ _____    ______ ____
ROOT
ATOM      1  C   UNL     1       9.179  11.099  20.953  0.00  0.00    +0.000 C 
ATOM      2  C   UNL     1       9.369  12.421  20.818  0.00  0.00    +0.000 C 
ATOM      3  C   UNL     1       8.893  13.363  21.834  0.00  0.00    +0.000 A 
ATOM      4  C   UNL     1       8.580  13.130  23.170  0.00  0.00    +0.000 A 
ATOM      5  C   UNL     1       8.200  14.206  23.967  0.00  0.00    +0.000 A 
ATOM      6  C   UNL     1       8.142  15.493  23.426  0.00  0.00    +0.000 A 
ATOM      7  C   UNL     1       8.476  15.720  22.084  0.00  0.00    +0.000 A 
ATOM      8  C   UNL     1       8.840  14.644  21.287  0.00  0.00    +0.000 A 
ATOM      9  N   UNL     1       9.371  14.647  19.953  0.00  0.00    +0.000 N 
ATOM     10  C   UNL     1       9.953  13.271  19.653  0.00  0.00    +0.000 C 
ATOM     11  C   UNL     1       9.646  12.695  18.256  0.00  0.00    +0.000 C 
ATOM     12  C   UNL     1      10.480  11.463  17.859  0.00  0.00    +0.000 C 
ATOM     13  C   UNL     1      11.970  11.613  18.148  0.00  0.00    +0.000 C 
ATOM     14  C   UNL     1      12.255  12.130  19.551  0.00  0.00    +0.000 C 
ATOM     15  C   UNL     1      11.488  13.418  19.833  0.00  0.00    +0.000 C 
ENDROOT
BRANCH   9  16
ATOM     16  S   UNL     1       9.027  15.858  18.840  0.00  0.00    +0.000 S 
ATOM     17  O   UNL     1       9.315  17.158  19.422  0.00  0.00    +0.000 OA
ATOM     18  O   UNL     1       9.625  15.530  17.560  0.00  0.00    +0.000 OA
BRANCH  16  19
ATOM     19  C   UNL     1       7.253  15.792  18.639  0.00  0.00    +0.000 A 
ATOM     20  C   UNL     1       6.666  14.674  18.035  0.00  0.00    +0.000 A 
ATOM     21  C   UNL     1       5.286  14.641  17.820  0.00  0.00    +0.000 A 
ATOM     22  C   UNL     1       4.483  15.717  18.213  0.00  0.00    +0.000 A 
ATOM     23  C   UNL     1       3.021  15.751  17.870  0.00  0.00    +0.000 C 
ATOM     24  C   UNL     1       5.062  16.770  18.936  0.00  0.00    +0.000 A 
ATOM     25  C   UNL     1       6.443  16.808  19.153  0.00  0.00    +0.000 A 
ENDBRANCH  16  19
ENDBRANCH   9  16
TORSDOF 2
ENDMDL
MODEL 3
REMARK VINA RESULT:      -7.0      2.618      4.883
REMARK  Name = 
REMARK  3 active torsions:
REMARK  status: ('A' for Active; 'I' for Inactive)
REMARK    1  A    between atoms: N_9  and  S_10
REMARK    2  A    between atoms: S_10  and  C_13
REMARK    3  A    between atoms: C_16  and  C_17
REMARK                            x       y       z     vdW  Elec       q    Type
REMARK                         _______ _______ _______ _____ _____    ______ ____
ROOT
ATOM      1  C   UNL     1       1.202   4.020  17.799  0.00  0.00    +0.000 C 
ATOM      2  C   UNL     1       2.318   4.701  18.101  0.00  0.00    +0.000 C 
ATOM      3  C   UNL     1       2.396   6.151  17.908  0.00  0.00    +0.000 A 
ATOM      4  C   UNL     1       1.365   7.081  17.806  0.00  0.00    +0.000 A 
ATOM      5  C   UNL     1       1.688   8.430  17.684  0.00  0.00    +0.000 A 
ATOM      6  C   UNL     1       3.026   8.831  17.670  0.00  0.00    +0.000 A 
ATOM      7  C   UNL     1       4.057   7.889  17.791  0.00  0.00    +0.000 A 
ATOM      8  C   UNL     1       3.733   6.544  17.897  0.00  0.00    +0.000 A 
ATOM      9  N   UNL     1       4.591   5.429  18.188  0.00  0.00    +0.000 N 
ATOM     10  C   UNL     1       3.727   4.231  18.563  0.00  0.00    +0.000 C 
ATOM     11  C   UNL     1       4.151   2.876  17.962  0.00  0.00    +0.000 C 
ATOM     12  C   UNL     1       3.468   1.643  18.581  0.00  0.00    +0.000 C 
ATOM     13  C   UNL     1       3.442   1.658  20.106  0.00  0.00    +0.000 C 
ATOM     14  C   UNL     1       2.967   2.985  20.680  0.00  0.00    +0.000 C 
ATOM     15  C   UNL     1       3.768   4.153  20.113  0.00  0.00    +0.000 C 
ENDROOT
BRANCH   9  16
ATOM     16  S   UNL     1       6.222   5.408  17.788  0.00  0.00    +0.000 S 
ATOM     17  O   UNL     1       6.759   6.757  17.836  0.00  0.00    +0.000 OA
ATOM     18  O   UNL     1       6.897   4.371  18.545  0.00  0.00    +0.000 OA
BRANCH  16  19
ATOM     19  C   UNL     1       6.256   4.927  16.067  0.00  0.00    +0.000 A 
ATOM     20  C   UNL     1       5.093   4.431  15.465  0.00  0.00    +0.000 A 
ATOM     21  C   UNL     1       5.126   3.996  14.138  0.00  0.00    +0.000 A 
ATOM     22  C   UNL     1       6.315   4.063  13.401  0.00  0.00    +0.000 A 
ATOM     23  C   UNL     1       6.396   3.480  12.020  0.00  0.00    +0.000 C 
ATOM     24  C   UNL     1       7.435   4.685  13.971  0.00  0.00    +0.000 A 
ATOM     25  C   UNL     1       7.407   5.120  15.300  0.00  0.00    +0.000 A 
ENDBRANCH  16  19
ENDBRANCH   9  16
TORSDOF 2
ENDMDL
MODEL 4
REMARK VINA RESULT:      -7.0      7.947     10.273
REMARK  Name = 
REMARK  3 active torsions:
REMARK  status: ('A' for Active; 'I' for Inactive)
REMARK    1  A    between atoms: N_9  and  S_10
REMARK    2  A    between atoms: S_10  and  C_13
REMARK    3  A    between atoms: C_16  and  C_17
REMARK                            x       y       z     vdW  Elec       q    Type
REMARK                         _______ _______ _______ _____ _____    ______ ____
ROOT
ATOM      1  C   UNL     1       9.478  10.564  20.000  0.00  0.00    +0.000 C 
ATOM      2  C   UNL     1       9.450  11.836  20.428  0.00  0.00    +0.000 C 
ATOM      3  C   UNL     1       8.843  12.190  21.713  0.00  0.00    +0.000 A 
ATOM      4  C   UNL     1       8.591  11.382  22.818  0.00  0.00    +0.000 A 
ATOM      5  C   UNL     1       8.053  11.961  23.964  0.00  0.00    +0.000 A 
ATOM      6  C   UNL     1       7.781  13.331  23.995  0.00  0.00    +0.000 A 
ATOM      7  C   UNL     1       8.055  14.140  22.884  0.00  0.00    +0.000 A 
ATOM      8  C   UNL     1       8.577  13.558  21.737  0.00  0.00    +0.000 A 
ATOM      9  N   UNL     1       9.080  14.193  20.551  0.00  0.00    +0.000 N 
ATOM     10  C   UNL     1       9.873  13.170  19.746  0.00  0.00    +0.000 C 
ATOM     11  C   UNL     1       9.644  13.181  18.222  0.00  0.00    +0.000 C 
ATOM     12  C   UNL     1      10.660  12.367  17.400  0.00  0.00    +0.000 C 
ATOM     13  C   UNL     1      12.110  12.609  17.806  0.00  0.00    +0.000 C 
ATOM     14  C   UNL     1      12.328  12.539  19.311  0.00  0.00    +0.000 C 
ATOM     15  C   UNL     1      11.367  13.461  20.054  0.00  0.00    +0.000 C 
ENDROOT
BRANCH   9  16
ATOM     16  S   UNL     1       8.530  15.687  20.015  0.00  0.00    +0.000 S 
ATOM     17  O   UNL     1       8.435  16.608  21.135  0.00  0.00    +0.000 OA
ATOM     18  O   UNL     1       9.288  16.096  18.849  0.00  0.00    +0.000 OA
BRANCH  16  19
ATOM     19  C   UNL     1       6.851  15.382  19.486  0.00  0.00    +0.000 A 
ATOM     20  C   UNL     1       5.797  15.567  20.390  0.00  0.00    +0.000 A 
ATOM     21  C   UNL     1       4.487  15.273  20.003  0.00  0.00    +0.000 A 
ATOM     22  C   UNL     1       4.219  14.804  18.712  0.00  0.00    +0.000 A 
ATOM     23  C   UNL     1       2.837  14.362  18.326  0.00  0.00    +0.000 C 
ATOM     24  C   UNL     1       5.262  14.752  17.777  0.00  0.00    +0.000 A 
ATOM     25  C   UNL     1       6.576  15.044  18.159  0.00  0.00    +0.000 A 
ENDBRANCH  16  19
ENDBRANCH   9  16
TORSDOF 2
ENDMDL
MODEL 5
REMARK VINA RESULT:      -6.9      7.113     10.189
REMARK  Name = 
REMARK  3 active torsions:
REMARK  status: ('A' for Active; 'I' for Inactive)
REMARK    1  A    between atoms: N_9  and  S_10
REMARK    2  A    between atoms: S_10  and  C_13
REMARK    3  A    between atoms: C_16  and  C_17
REMARK                            x       y       z     vdW  Elec       q    Type
REMARK                         _______ _______ _______ _____ _____    ______ ____
ROOT
ATOM      1  C   UNL     1      -4.422  12.587  18.874  0.00  0.00    +0.000 C 
ATOM      2  C   UNL     1      -3.302  12.146  19.467  0.00  0.00    +0.000 C 
ATOM      3  C   UNL     1      -3.068  12.354  20.898  0.00  0.00    +0.000 A 
ATOM      4  C   UNL     1      -3.988  12.617  21.909  0.00  0.00    +0.000 A 
ATOM      5  C   UNL     1      -3.533  12.719  23.221  0.00  0.00    +0.000 A 
ATOM      6  C   UNL     1      -2.174  12.554  23.505  0.00  0.00    +0.000 A 
ATOM      7  C   UNL     1      -1.259  12.272  22.482  0.00  0.00    +0.000 A 
ATOM      8  C   UNL     1      -1.713  12.185  21.174  0.00  0.00    +0.000 A 
ATOM      9  N   UNL     1      -1.006  11.756  19.999  0.00  0.00    +0.000 N 
ATOM     10  C   UNL     1      -2.017  11.482  18.892  0.00  0.00    +0.000 C 
ATOM     11  C   UNL     1      -1.638  11.992  17.487  0.00  0.00    +0.000 C 
ATOM     12  C   UNL     1      -2.507  11.450  16.337  0.00  0.00    +0.000 C 
ATOM     13  C   UNL     1      -2.741   9.944  16.403  0.00  0.00    +0.000 C 
ATOM     14  C   UNL     1      -3.169   9.468  17.784  0.00  0.00    +0.000 C 
ATOM     15  C   UNL     1      -2.196   9.941  18.860  0.00  0.00    +0.000 C 
ENDROOT
BRANCH   9  16
ATOM     16  S   UNL     1       0.656  11.924  19.825  0.00  0.00    +0.000 S 
ATOM     17  O   UNL     1       0.949  12.769  18.680  0.00  0.00    +0.000 OA
ATOM     18  O   UNL     1       1.249  12.266  21.103  0.00  0.00    +0.000 OA
BRANCH  16  19
ATOM     19  C   UNL     1       1.228  10.288  19.386  0.00  0.00    +0.000 A 
ATOM     20  C   UNL     1       1.179   9.260  20.335  0.00  0.00    +0.000 A 
ATOM     21  C   UNL     1       1.680   7.995  20.020  0.00  0.00    +0.000 A 
ATOM     22  C   UNL     1       2.223   7.745  18.754  0.00  0.00    +0.000 A 
ATOM     23  C   UNL     1       2.882   6.431  18.447  0.00  0.00    +0.000 C 
ATOM     24  C   UNL     1       2.144   8.741  17.771  0.00  0.00    +0.000 A 
ATOM     25  C   UNL     1       1.644  10.010  18.082  0.00  0.00    +0.000 A 
ENDBRANCH  16  19
ENDBRANCH   9  16
TORSDOF 2
ENDMDL
MODEL 6
REMARK VINA RESULT:      -6.9      5.963      8.783
REMARK  Name = 
REMARK  3 active torsions:
REMARK  status: ('A' for Active; 'I' for Inactive)
REMARK    1  A    between atoms: N_9  and  S_10
REMARK    2  A    between atoms: S_10  and  C_13
REMARK    3  A    between atoms: C_16  and  C_17
REMARK                            x       y       z     vdW  Elec       q    Type
REMARK                         _______ _______ _______ _____ _____    ______ ____
ROOT
ATOM      1  C   UNL     1      -0.567  14.318  18.722  0.00  0.00    +0.000 C 
ATOM      2  C   UNL     1      -0.263  13.014  18.815  0.00  0.00    +0.000 C 
ATOM      3  C   UNL     1      -1.151  11.987  18.263  0.00  0.00    +0.000 A 
ATOM      4  C   UNL     1      -2.133  12.108  17.285  0.00  0.00    +0.000 A 
ATOM      5  C   UNL     1      -2.817  10.966  16.876  0.00  0.00    +0.000 A 
ATOM      6  C   UNL     1      -2.510   9.726  17.442  0.00  0.00    +0.000 A 
ATOM      7  C   UNL     1      -1.508   9.612  18.414  0.00  0.00    +0.000 A 
ATOM      8  C   UNL     1      -0.838  10.753  18.831  0.00  0.00    +0.000 A 
ATOM      9  N   UNL     1       0.316  10.864  19.679  0.00  0.00    +0.000 N 
ATOM     10  C   UNL     1       0.893  12.268  19.542  0.00  0.00    +0.000 C 
ATOM     11  C   UNL     1       1.337  12.949  20.851  0.00  0.00    +0.000 C 
ATOM     12  C   UNL     1       2.187  14.221  20.672  0.00  0.00    +0.000 C 
ATOM     13  C   UNL     1       3.306  14.070  19.647  0.00  0.00    +0.000 C 
ATOM     14  C   UNL     1       2.837  13.447  18.340  0.00  0.00    +0.000 C 
ATOM     15  C   UNL     1       2.107  12.130  18.585  0.00  0.00    +0.000 C 
ENDROOT
BRANCH   9  16
ATOM     16  S   UNL     1       0.677   9.741  20.875  0.00  0.00    +0.000 S 
ATOM     17  O   UNL     1       1.650  10.300  21.799  0.00  0.00    +0.000 OA
ATOM     18  O   UNL     1      -0.551   9.192  21.417  0.00  0.00    +0.000 OA
BRANCH  16  19
ATOM     19  C   UNL     1       1.522   8.423  20.012  0.00  0.00    +0.000 A 
ATOM     20  C   UNL     1       1.626   7.160  20.609  0.00  0.00    +0.000 A 
ATOM     21  C   UNL     1       2.336   6.142  19.968  0.00  0.00    +0.000 A 
ATOM     22  C   UNL     1       2.939   6.374  18.726  0.00  0.00    +0.000 A 
ATOM     23  C   UNL     1       3.812   5.332  18.090  0.00  0.00    +0.000 C 
ATOM     24  C   UNL     1       2.714   7.597  18.079  0.00  0.00    +0.000 A 
ATOM     25  C   UNL     1       2.005   8.620  18.717  0.00  0.00    +0.000 A 
ENDBRANCH  16  19
ENDBRANCH   9  16
TORSDOF 2
ENDMDL
MODEL 7
REMARK VINA RESULT:      -6.8      2.068      3.645
REMARK  Name = 
REMARK  3 active torsions:
REMARK  status: ('A' for Active; 'I' for Inactive)
REMARK    1  A    between atoms: N_9  and  S_10
REMARK    2  A    between atoms: S_10  and  C_13
REMARK    3  A    between atoms: C_16  and  C_17
REMARK                            x       y       z     vdW  Elec       q    Type
REMARK                         _______ _______ _______ _____ _____    ______ ____
ROOT
ATOM      1  C   UNL     1       1.277   3.838  18.349  0.00  0.00    +0.000 C 
ATOM      2  C   UNL     1       2.414   4.546  18.258  0.00  0.00    +0.000 C 
ATOM      3  C   UNL     1       2.390   6.002  18.100  0.00  0.00    +0.000 A 
ATOM      4  C   UNL     1       1.371   6.902  18.401  0.00  0.00    +0.000 A 
ATOM      5  C   UNL     1       1.603   8.263  18.218  0.00  0.00    +0.000 A 
ATOM      6  C   UNL     1       2.840   8.705  17.744  0.00  0.00    +0.000 A 
ATOM      7  C   UNL     1       3.865   7.793  17.460  0.00  0.00    +0.000 A 
ATOM      8  C   UNL     1       3.627   6.436  17.629  0.00  0.00    +0.000 A 
ATOM      9  N   UNL     1       4.554   5.341  17.559  0.00  0.00    +0.000 N 
ATOM     10  C   UNL     1       3.904   4.108  18.174  0.00  0.00    +0.000 C 
ATOM     11  C   UNL     1       4.114   2.781  17.416  0.00  0.00    +0.000 C 
ATOM     12  C   UNL     1       3.720   1.513  18.195  0.00  0.00    +0.000 C 
ATOM     13  C   UNL     1       4.237   1.490  19.630  0.00  0.00    +0.000 C 
ATOM     14  C   UNL     1       3.972   2.788  20.380  0.00  0.00    +0.000 C 
ATOM     15  C   UNL     1       4.495   3.993  19.605  0.00  0.00    +0.000 C 
ENDROOT
BRANCH   9  16
ATOM     16  S   UNL     1       5.937   5.379  16.606  0.00  0.00    +0.000 S 
ATOM     17  O   UNL     1       6.663   4.128  16.740  0.00  0.00    +0.000 OA
ATOM     18  O   UNL     1       5.599   5.839  15.273  0.00  0.00    +0.000 OA
BRANCH  16  19
ATOM     19  C   UNL     1       6.968   6.628  17.361  0.00  0.00    +0.000 A 
ATOM     20  C   UNL     1       7.743   6.302  18.481  0.00  0.00    +0.000 A 
ATOM     21  C   UNL     1       8.505   7.287  19.114  0.00  0.00    +0.000 A 
ATOM     22  C   UNL     1       8.506   8.600  18.629  0.00  0.00    +0.000 A 
ATOM     23  C   UNL     1       9.215   9.693  19.375  0.00  0.00    +0.000 C 
ATOM     24  C   UNL     1       7.835   8.884  17.432  0.00  0.00    +0.000 A 
ATOM     25  C   UNL     1       7.070   7.901  16.795  0.00  0.00    +0.000 A 
ENDBRANCH  16  19
ENDBRANCH   9  16
TORSDOF 2
ENDMDL
MODEL 8
REMARK VINA RESULT:      -6.8      7.812     10.936
REMARK  Name = 
REMARK  3 active torsions:
REMARK  status: ('A' for Active; 'I' for Inactive)
REMARK    1  A    between atoms: N_9  and  S_10
REMARK    2  A    between atoms: S_10  and  C_13
REMARK    3  A    between atoms: C_16  and  C_17
REMARK                            x       y       z     vdW  Elec       q    Type
REMARK                         _______ _______ _______ _____ _____    ______ ____
ROOT
ATOM      1  C   UNL     1      12.295  13.915  18.773  0.00  0.00    +0.000 C 
ATOM      2  C   UNL     1      11.043  14.393  18.834  0.00  0.00    +0.000 C 
ATOM      3  C   UNL     1      10.737  15.770  18.435  0.00  0.00    +0.000 A 
ATOM      4  C   UNL     1      11.462  16.629  17.616  0.00  0.00    +0.000 A 
ATOM      5  C   UNL     1      10.937  17.886  17.329  0.00  0.00    +0.000 A 
ATOM      6  C   UNL     1       9.699  18.265  17.856  0.00  0.00    +0.000 A 
ATOM      7  C   UNL     1       8.968  17.386  18.666  0.00  0.00    +0.000 A 
ATOM      8  C   UNL     1       9.501  16.139  18.963  0.00  0.00    +0.000 A 
ATOM      9  N   UNL     1       8.880  15.026  19.625  0.00  0.00    +0.000 N 
ATOM     10  C   UNL     1       9.724  13.780  19.385  0.00  0.00    +0.000 C 
ATOM     11  C   UNL     1       9.936  12.860  20.605  0.00  0.00    +0.000 C 
ATOM     12  C   UNL     1      10.521  11.472  20.284  0.00  0.00    +0.000 C 
ATOM     13  C   UNL     1       9.846  10.782  19.102  0.00  0.00    +0.000 C 
ATOM     14  C   UNL     1       9.696  11.689  17.889  0.00  0.00    +0.000 C 
ATOM     15  C   UNL     1       9.001  12.996  18.257  0.00  0.00    +0.000 C 
ENDROOT
BRANCH   9  16
ATOM     16  S   UNL     1       7.660  15.211  20.766  0.00  0.00    +0.000 S 
ATOM     17  O   UNL     1       7.386  13.935  21.405  0.00  0.00    +0.000 OA
ATOM     18  O   UNL     1       7.949  16.355  21.609  0.00  0.00    +0.000 OA
BRANCH  16  19
ATOM     19  C   UNL     1       6.204  15.602  19.806  0.00  0.00    +0.000 A 
ATOM     20  C   UNL     1       5.949  14.902  18.620  0.00  0.00    +0.000 A 
ATOM     21  C   UNL     1       4.846  15.243  17.833  0.00  0.00    +0.000 A 
ATOM     22  C   UNL     1       3.987  16.275  18.228  0.00  0.00    +0.000 A 
ATOM     23  C   UNL     1       2.877  16.736  17.328  0.00  0.00    +0.000 C 
ATOM     24  C   UNL     1       4.176  16.876  19.480  0.00  0.00    +0.000 A 
ATOM     25  C   UNL     1       5.280  16.539  20.272  0.00  0.00    +0.000 A 
ENDBRANCH  16  19
ENDBRANCH   9  16
TORSDOF 2
ENDMDL
MODEL 9
REMARK VINA RESULT:      -6.6      8.572     11.646
REMARK  Name = 
REMARK  3 active torsions:
REMARK  status: ('A' for Active; 'I' for Inactive)
REMARK    1  A    between atoms: N_9  and  S_10
REMARK    2  A    between atoms: S_10  and  C_13
REMARK    3  A    between atoms: C_16  and  C_17
REMARK                            x       y       z     vdW  Elec       q    Type
REMARK                         _______ _______ _______ _____ _____    ______ ____
ROOT
ATOM      1  C   UNL     1       1.343  11.695  18.540  0.00  0.00    +0.000 C 
ATOM      2  C   UNL     1       0.999  11.999  19.801  0.00  0.00    +0.000 C 
ATOM      3  C   UNL     1       0.529  10.968  20.729  0.00  0.00    +0.000 A 
ATOM      4  C   UNL     1       0.717   9.589  20.679  0.00  0.00    +0.000 A 
ATOM      5  C   UNL     1       0.222   8.806  21.718  0.00  0.00    +0.000 A 
ATOM      6  C   UNL     1      -0.447   9.405  22.789  0.00  0.00    +0.000 A 
ATOM      7  C   UNL     1      -0.615  10.795  22.839  0.00  0.00    +0.000 A 
ATOM      8  C   UNL     1      -0.134  11.572  21.795  0.00  0.00    +0.000 A 
ATOM      9  N   UNL     1      -0.046  13.003  21.700  0.00  0.00    +0.000 N 
ATOM     10  C   UNL     1       0.879  13.362  20.544  0.00  0.00    +0.000 C 
ATOM     11  C   UNL     1       0.413  14.518  19.636  0.00  0.00    +0.000 C 
ATOM     12  C   UNL     1       1.482  15.065  18.673  0.00  0.00    +0.000 C 
ATOM     13  C   UNL     1       2.835  15.309  19.334  0.00  0.00    +0.000 C 
ATOM     14  C   UNL     1       3.305  14.135  20.180  0.00  0.00    +0.000 C 
ATOM     15  C   UNL     1       2.242  13.722  21.194  0.00  0.00    +0.000 C 
ENDROOT
BRANCH   9  16
ATOM     16  S   UNL     1      -1.105  14.035  22.499  0.00  0.00    +0.000 S 
ATOM     17  O   UNL     1      -1.051  13.785  23.929  0.00  0.00    +0.000 OA
ATOM     18  O   UNL     1      -0.910  15.393  22.029  0.00  0.00    +0.000 OA
BRANCH  16  19
ATOM     19  C   UNL     1      -2.729  13.509  21.970  0.00  0.00    +0.000 A 
ATOM     20  C   UNL     1      -3.763  13.407  22.908  0.00  0.00    +0.000 A 
ATOM     21  C   UNL     1      -5.019  12.938  22.514  0.00  0.00    +0.000 A 
ATOM     22  C   UNL     1      -5.254  12.579  21.182  0.00  0.00    +0.000 A 
ATOM     23  C   UNL     1      -6.556  11.953  20.773  0.00  0.00    +0.000 C 
ATOM     24  C   UNL     1      -4.253  12.813  20.228  0.00  0.00    +0.000 A 
ATOM     25  C   UNL     1      -2.994  13.280  20.618  0.00  0.00    +0.000 A 
ENDBRANCH  16  19
ENDBRANCH   9  16
TORSDOF 2
ENDMDL
