MODEL 1
REMARK VINA RESULT:      -8.3      0.000      0.000
REMARK  Name = 
REMARK  8 active torsions:
REMARK  status: ('A' for Active; 'I' for Inactive)
REMARK    1  A    between atoms: C_2  and  C_3
REMARK    2  A    between atoms: C_6  and  O_7
REMARK    3  A    between atoms: O_7  and  C_8
REMARK    4  A    between atoms: C_8  and  C_9
REMARK    5  A    between atoms: N_11  and  C_12
REMARK    6  A    between atoms: C_17  and  N_18
REMARK    7  A    between atoms: N_18  and  S_19
REMARK    8  A    between atoms: S_19  and  C_22
REMARK                            x       y       z     vdW  Elec       q    Type
REMARK                         _______ _______ _______ _____ _____    ______ ____
ROOT
ATOM      1  C   UNL     1       6.191   6.071  16.405  0.00  0.00    +0.000 A 
ATOM      2  C   UNL     1       7.071   5.301  15.630  0.00  0.00    +0.000 A 
ATOM      3  C   UNL     1       6.743   3.994  15.263  0.00  0.00    +0.000 A 
ATOM      4  C   UNL     1       5.518   3.449  15.635  0.00  0.00    +0.000 A 
ATOM      5  C   UNL     1       4.616   4.213  16.372  0.00  0.00    +0.000 A 
ATOM      6  C   UNL     1       4.941   5.517  16.766  0.00  0.00    +0.000 A 
ENDROOT
BRANCH   1   9
ATOM      7  C   UNL     1       7.557   7.635  17.755  0.00  0.00    +0.000 C 
ATOM      8  O   UNL     1       8.014   6.770  18.501  0.00  0.00    +0.000 OA
ATOM      9  N   UNL     1       6.638   7.377  16.748  0.00  0.00    +0.000 N 
ATOM     10  H   UNL     1       6.597   8.062  16.003  0.00  0.00    +0.000 HD
BRANCH   7  11
ATOM     11  C   UNL     1       7.976   9.109  17.880  0.00  0.00    +0.000 C 
BRANCH  11  12
ATOM     12  O   UNL     1       8.931   9.172  18.930  0.00  0.00    +0.000 OA
BRANCH  12  16
ATOM     13  C   UNL     1      10.470  12.984  19.673  0.00  0.00    +0.000 A 
ATOM     14  C   UNL     1      10.396  12.445  18.389  0.00  0.00    +0.000 A 
ATOM     15  C   UNL     1       9.882  11.157  18.201  0.00  0.00    +0.000 A 
ATOM     16  C   UNL     1       9.449  10.383  19.280  0.00  0.00    +0.000 A 
ATOM     17  C   UNL     1       9.520  10.920  20.569  0.00  0.00    +0.000 A 
ATOM     18  C   UNL     1      10.033  12.218  20.760  0.00  0.00    +0.000 A 
BRANCH  13  20
ATOM     19  N   UNL     1      11.384  15.391  20.033  0.00  0.00    +0.000 NA
ATOM     20  C   UNL     1      10.976  14.313  19.873  0.00  0.00    +0.000 C 
ENDBRANCH  13  20
ENDBRANCH  12  16
ENDBRANCH  11  12
ENDBRANCH   7  11
ENDBRANCH   1   9
BRANCH   6  21
ATOM     21  N   UNL     1       3.896   6.284  17.383  0.00  0.00    +0.000 N 
ATOM     22  H   UNL     1       3.028   6.250  16.837  0.00  0.00    +0.000 HD
BRANCH  21  23
ATOM     23  S   UNL     1       3.548   5.903  19.005  0.00  0.00    +0.000 S 
ATOM     24  O   UNL     1       4.790   5.434  19.583  0.00  0.00    +0.000 OA
ATOM     25  O   UNL     1       2.816   7.002  19.601  0.00  0.00    +0.000 OA
BRANCH  23  26
ATOM     26  C   UNL     1       2.491   4.450  19.076  0.00  0.00    +0.000 A 
ATOM     27  C   UNL     1       1.507   3.977  18.222  0.00  0.00    +0.000 A 
ATOM     28  C   UNL     1       1.033   2.681  18.588  0.00  0.00    +0.000 A 
ATOM     29  C   UNL     1       1.651   2.211  19.725  0.00  0.00    +0.000 A 
ATOM     30  S   UNL     1       2.775   3.339  20.353  0.00  0.00    +0.000 S 
ENDBRANCH  23  26
ENDBRANCH  21  23
ENDBRANCH   6  21
TORSDOF 8
ENDMDL
MODEL 2
REMARK VINA RESULT:      -7.8      2.978      5.473
REMARK  Name = 
REMARK  8 active torsions:
REMARK  status: ('A' for Active; 'I' for Inactive)
REMARK    1  A    between atoms: C_2  and  C_3
REMARK    2  A    between atoms: C_6  and  O_7
REMARK    3  A    between atoms: O_7  and  C_8
REMARK    4  A    between atoms: C_8  and  C_9
REMARK    5  A    between atoms: N_11  and  C_12
REMARK    6  A    between atoms: C_17  and  N_18
REMARK    7  A    between atoms: N_18  and  S_19
REMARK    8  A    between atoms: S_19  and  C_22
REMARK                            x       y       z     vdW  Elec       q    Type
REMARK                         _______ _______ _______ _____ _____    ______ ____
ROOT
ATOM      1  C   UNL     1       3.441   3.505  19.286  0.00  0.00    +0.000 A 
ATOM      2  C   UNL     1       2.841   2.240  19.366  0.00  0.00    +0.000 A 
ATOM      3  C   UNL     1       1.750   2.019  20.209  0.00  0.00    +0.000 A 
ATOM      4  C   UNL     1       1.220   3.066  20.956  0.00  0.00    +0.000 A 
ATOM      5  C   UNL     1       1.780   4.338  20.859  0.00  0.00    +0.000 A 
ATOM      6  C   UNL     1       2.888   4.568  20.036  0.00  0.00    +0.000 A 
ENDROOT
BRANCH   1   9
ATOM      7  C   UNL     1       4.466   3.732  17.042  0.00  0.00    +0.000 C 
ATOM      8  O   UNL     1       3.402   3.678  16.426  0.00  0.00    +0.000 OA
ATOM      9  N   UNL     1       4.565   3.611  18.421  0.00  0.00    +0.000 N 
ATOM     10  H   UNL     1       5.402   4.003  18.837  0.00  0.00    +0.000 HD
BRANCH   7  11
ATOM     11  C   UNL     1       5.805   3.941  16.317  0.00  0.00    +0.000 C 
BRANCH  11  12
ATOM     12  O   UNL     1       6.802   4.040  17.325  0.00  0.00    +0.000 OA
BRANCH  12  16
ATOM     13  C   UNL     1       8.104   7.938  18.072  0.00  0.00    +0.000 A 
ATOM     14  C   UNL     1       7.501   7.569  16.870  0.00  0.00    +0.000 A 
ATOM     15  C   UNL     1       7.096   6.244  16.671  0.00  0.00    +0.000 A 
ATOM     16  C   UNL     1       7.294   5.268  17.650  0.00  0.00    +0.000 A 
ATOM     17  C   UNL     1       7.897   5.634  18.857  0.00  0.00    +0.000 A 
ATOM     18  C   UNL     1       8.302   6.968  19.061  0.00  0.00    +0.000 A 
BRANCH  13  20
ATOM     19  N   UNL     1       8.829  10.402  18.479  0.00  0.00    +0.000 NA
ATOM     20  C   UNL     1       8.505   9.299  18.295  0.00  0.00    +0.000 C 
ENDBRANCH  13  20
ENDBRANCH  12  16
ENDBRANCH  11  12
ENDBRANCH   7  11
ENDBRANCH   1   9
BRANCH   6  21
ATOM     21  N   UNL     1       3.300   5.934  19.875  0.00  0.00    +0.000 N 
ATOM     22  H   UNL     1       4.321   6.029  19.918  0.00  0.00    +0.000 HD
BRANCH  21  23
ATOM     23  S   UNL     1       2.726   6.728  18.482  0.00  0.00    +0.000 S 
ATOM     24  O   UNL     1       3.900   7.181  17.765  0.00  0.00    +0.000 OA
ATOM     25  O   UNL     1       1.734   5.892  17.838  0.00  0.00    +0.000 OA
BRANCH  23  26
ATOM     26  C   UNL     1       1.916   8.265  18.948  0.00  0.00    +0.000 A 
ATOM     27  C   UNL     1       1.547   9.378  18.210  0.00  0.00    +0.000 A 
ATOM     28  C   UNL     1       0.770  10.309  18.964  0.00  0.00    +0.000 A 
ATOM     29  C   UNL     1       0.590   9.892  20.264  0.00  0.00    +0.000 A 
ATOM     30  S   UNL     1       1.373   8.401  20.570  0.00  0.00    +0.000 S 
ENDBRANCH  23  26
ENDBRANCH  21  23
ENDBRANCH   6  21
TORSDOF 8
ENDMDL
MODEL 3
REMARK VINA RESULT:      -7.6      1.001      1.524
REMARK  Name = 
REMARK  8 active torsions:
REMARK  status: ('A' for Active; 'I' for Inactive)
REMARK    1  A    between atoms: C_2  and  C_3
REMARK    2  A    between atoms: C_6  and  O_7
REMARK    3  A    between atoms: O_7  and  C_8
REMARK    4  A    between atoms: C_8  and  C_9
REMARK    5  A    between atoms: N_11  and  C_12
REMARK    6  A    between atoms: C_17  and  N_18
REMARK    7  A    between atoms: N_18  and  S_19
REMARK    8  A    between atoms: S_19  and  C_22
REMARK                            x       y       z     vdW  Elec       q    Type
REMARK                         _______ _______ _______ _____ _____    ______ ____
ROOT
ATOM      1  C   UNL     1       6.140   6.073  16.676  0.00  0.00    +0.000 A 
ATOM      2  C   UNL     1       6.487   5.563  15.417  0.00  0.00    +0.000 A 
ATOM      3  C   UNL     1       6.188   4.242  15.074  0.00  0.00    +0.000 A 
ATOM      4  C   UNL     1       5.507   3.424  15.970  0.00  0.00    +0.000 A 
ATOM      5  C   UNL     1       5.121   3.927  17.210  0.00  0.00    +0.000 A 
ATOM      6  C   UNL     1       5.434   5.241  17.576  0.00  0.00    +0.000 A 
ENDROOT
BRANCH   1   9
ATOM      7  C   UNL     1       7.562   7.777  17.776  0.00  0.00    +0.000 C 
ATOM      8  O   UNL     1       8.206   6.971  18.446  0.00  0.00    +0.000 OA
ATOM      9  N   UNL     1       6.520   7.419  16.932  0.00  0.00    +0.000 N 
ATOM     10  H   UNL     1       6.302   8.082  16.198  0.00  0.00    +0.000 HD
BRANCH   7  11
ATOM     11  C   UNL     1       7.865   9.283  17.819  0.00  0.00    +0.000 C 
BRANCH  11  12
ATOM     12  O   UNL     1       8.846   9.472  18.830  0.00  0.00    +0.000 OA
BRANCH  12  16
ATOM     13  C   UNL     1      10.944  13.039  19.395  0.00  0.00    +0.000 A 
ATOM     14  C   UNL     1      10.781  12.100  20.412  0.00  0.00    +0.000 A 
ATOM     15  C   UNL     1      10.057  10.926  20.168  0.00  0.00    +0.000 A 
ATOM     16  C   UNL     1       9.476  10.676  18.923  0.00  0.00    +0.000 A 
ATOM     17  C   UNL     1       9.637  11.616  17.900  0.00  0.00    +0.000 A 
ATOM     18  C   UNL     1      10.369  12.795  18.142  0.00  0.00    +0.000 A 
BRANCH  13  20
ATOM     19  N   UNL     1      12.318  15.207  19.814  0.00  0.00    +0.000 NA
ATOM     20  C   UNL     1      11.703  14.236  19.628  0.00  0.00    +0.000 C 
ENDBRANCH  13  20
ENDBRANCH  12  16
ENDBRANCH  11  12
ENDBRANCH   7  11
ENDBRANCH   1   9
BRANCH   6  21
ATOM     21  N   UNL     1       4.863   5.724  18.801  0.00  0.00    +0.000 N 
ATOM     22  H   UNL     1       5.251   6.637  19.066  0.00  0.00    +0.000 HD
BRANCH  21  23
ATOM     23  S   UNL     1       3.163   5.807  18.851  0.00  0.00    +0.000 S 
ATOM     24  O   UNL     1       2.841   6.957  19.671  0.00  0.00    +0.000 OA
ATOM     25  O   UNL     1       2.645   5.683  17.505  0.00  0.00    +0.000 OA
BRANCH  23  26
ATOM     26  C   UNL     1       2.514   4.430  19.808  0.00  0.00    +0.000 A 
ATOM     27  C   UNL     1       2.104   4.331  21.129  0.00  0.00    +0.000 A 
ATOM     28  C   UNL     1       1.497   3.073  21.426  0.00  0.00    +0.000 A 
ATOM     29  C   UNL     1       1.484   2.238  20.331  0.00  0.00    +0.000 A 
ATOM     30  S   UNL     1       2.219   2.964  18.966  0.00  0.00    +0.000 S 
ENDBRANCH  23  26
ENDBRANCH  21  23
ENDBRANCH   6  21
TORSDOF 8
ENDMDL
MODEL 4
REMARK VINA RESULT:      -7.5      1.982      2.516
REMARK  Name = 
REMARK  8 active torsions:
REMARK  status: ('A' for Active; 'I' for Inactive)
REMARK    1  A    between atoms: C_2  and  C_3
REMARK    2  A    between atoms: C_6  and  O_7
REMARK    3  A    between atoms: O_7  and  C_8
REMARK    4  A    between atoms: C_8  and  C_9
REMARK    5  A    between atoms: N_11  and  C_12
REMARK    6  A    between atoms: C_17  and  N_18
REMARK    7  A    between atoms: N_18  and  S_19
REMARK    8  A    between atoms: S_19  and  C_22
REMARK                            x       y       z     vdW  Elec       q    Type
REMARK                         _______ _______ _______ _____ _____    ______ ____
ROOT
ATOM      1  C   UNL     1       6.110   6.004  16.736  0.00  0.00    +0.000 A 
ATOM      2  C   UNL     1       6.449   5.433  15.501  0.00  0.00    +0.000 A 
ATOM      3  C   UNL     1       6.045   4.135  15.179  0.00  0.00    +0.000 A 
ATOM      4  C   UNL     1       5.266   3.404  16.071  0.00  0.00    +0.000 A 
ATOM      5  C   UNL     1       4.887   3.971  17.285  0.00  0.00    +0.000 A 
ATOM      6  C   UNL     1       5.305   5.261  17.631  0.00  0.00    +0.000 A 
ENDROOT
BRANCH   1   9
ATOM      7  C   UNL     1       7.636   7.606  17.851  0.00  0.00    +0.000 C 
ATOM      8  O   UNL     1       8.177   6.765  18.568  0.00  0.00    +0.000 OA
ATOM      9  N   UNL     1       6.600   7.318  16.974  0.00  0.00    +0.000 N 
ATOM     10  H   UNL     1       6.472   7.976  16.214  0.00  0.00    +0.000 HD
BRANCH   7  11
ATOM     11  C   UNL     1       8.073   9.079  17.868  0.00  0.00    +0.000 C 
BRANCH  11  12
ATOM     12  O   UNL     1       8.844   9.260  19.048  0.00  0.00    +0.000 OA
BRANCH  12  16
ATOM     13  C   UNL     1      10.704  12.990  19.332  0.00  0.00    +0.000 A 
ATOM     14  C   UNL     1      10.478  12.359  18.109  0.00  0.00    +0.000 A 
ATOM     15  C   UNL     1       9.861  11.103  18.076  0.00  0.00    +0.000 A 
ATOM     16  C   UNL     1       9.474  10.451  19.249  0.00  0.00    +0.000 A 
ATOM     17  C   UNL     1       9.698  11.081  20.478  0.00  0.00    +0.000 A 
ATOM     18  C   UNL     1      10.316  12.347  20.513  0.00  0.00    +0.000 A 
BRANCH  13  20
ATOM     19  N   UNL     1      11.815  15.340  19.415  0.00  0.00    +0.000 NA
ATOM     20  C   UNL     1      11.317  14.288  19.375  0.00  0.00    +0.000 C 
ENDBRANCH  13  20
ENDBRANCH  12  16
ENDBRANCH  11  12
ENDBRANCH   7  11
ENDBRANCH   1   9
BRANCH   6  21
ATOM     21  N   UNL     1       4.741   5.825  18.825  0.00  0.00    +0.000 N 
ATOM     22  H   UNL     1       5.084   6.777  18.993  0.00  0.00    +0.000 HD
BRANCH  21  23
ATOM     23  S   UNL     1       3.041   5.822  18.922  0.00  0.00    +0.000 S 
ATOM     24  O   UNL     1       2.570   5.226  17.688  0.00  0.00    +0.000 OA
ATOM     25  O   UNL     1       2.643   5.288  20.207  0.00  0.00    +0.000 OA
BRANCH  23  26
ATOM     26  C   UNL     1       2.422   7.507  18.822  0.00  0.00    +0.000 A 
ATOM     27  C   UNL     1       2.389   8.422  17.781  0.00  0.00    +0.000 A 
ATOM     28  C   UNL     1       1.648   9.599  18.103  0.00  0.00    +0.000 A 
ATOM     29  C   UNL     1       1.157   9.560  19.389  0.00  0.00    +0.000 A 
ATOM     30  S   UNL     1       1.610   8.124  20.202  0.00  0.00    +0.000 S 
ENDBRANCH  23  26
ENDBRANCH  21  23
ENDBRANCH   6  21
TORSDOF 8
ENDMDL
MODEL 5
REMARK VINA RESULT:      -7.5      1.291      1.376
REMARK  Name = 
REMARK  8 active torsions:
REMARK  status: ('A' for Active; 'I' for Inactive)
REMARK    1  A    between atoms: C_2  and  C_3
REMARK    2  A    between atoms: C_6  and  O_7
REMARK    3  A    between atoms: O_7  and  C_8
REMARK    4  A    between atoms: C_8  and  C_9
REMARK    5  A    between atoms: N_11  and  C_12
REMARK    6  A    between atoms: C_17  and  N_18
REMARK    7  A    between atoms: N_18  and  S_19
REMARK    8  A    between atoms: S_19  and  C_22
REMARK                            x       y       z     vdW  Elec       q    Type
REMARK                         _______ _______ _______ _____ _____    ______ ____
ROOT
ATOM      1  C   UNL     1       7.031   5.231  16.205  0.00  0.00    +0.000 A 
ATOM      2  C   UNL     1       7.264   5.381  14.830  0.00  0.00    +0.000 A 
ATOM      3  C   UNL     1       6.631   4.549  13.903  0.00  0.00    +0.000 A 
ATOM      4  C   UNL     1       5.730   3.581  14.334  0.00  0.00    +0.000 A 
ATOM      5  C   UNL     1       5.458   3.445  15.693  0.00  0.00    +0.000 A 
ATOM      6  C   UNL     1       6.103   4.256  16.635  0.00  0.00    +0.000 A 
ENDROOT
BRANCH   1   9
ATOM      7  C   UNL     1       7.324   7.388  17.388  0.00  0.00    +0.000 C 
ATOM      8  O   UNL     1       6.322   7.916  16.908  0.00  0.00    +0.000 OA
ATOM      9  N   UNL     1       7.752   6.109  17.060  0.00  0.00    +0.000 N 
ATOM     10  H   UNL     1       8.355   5.660  17.740  0.00  0.00    +0.000 HD
BRANCH   7  11
ATOM     11  C   UNL     1       8.205   8.118  18.414  0.00  0.00    +0.000 C 
BRANCH  11  12
ATOM     12  O   UNL     1       8.646   9.317  17.791  0.00  0.00    +0.000 OA
BRANCH  12  16
ATOM     13  C   UNL     1       9.709  12.704  19.992  0.00  0.00    +0.000 A 
ATOM     14  C   UNL     1       9.178  12.786  18.705  0.00  0.00    +0.000 A 
ATOM     15  C   UNL     1       8.851  11.615  18.010  0.00  0.00    +0.000 A 
ATOM     16  C   UNL     1       9.058  10.354  18.572  0.00  0.00    +0.000 A 
ATOM     17  C   UNL     1       9.590  10.267  19.863  0.00  0.00    +0.000 A 
ATOM     18  C   UNL     1       9.916  11.444  20.566  0.00  0.00    +0.000 A 
BRANCH  13  20
ATOM     19  N   UNL     1      10.283  14.870  21.312  0.00  0.00    +0.000 NA
ATOM     20  C   UNL     1      10.028  13.899  20.722  0.00  0.00    +0.000 C 
ENDBRANCH  13  20
ENDBRANCH  12  16
ENDBRANCH  11  12
ENDBRANCH   7  11
ENDBRANCH   1   9
BRANCH   6  21
ATOM     21  N   UNL     1       5.648   4.157  17.993  0.00  0.00    +0.000 N 
ATOM     22  H   UNL     1       6.395   4.378  18.660  0.00  0.00    +0.000 HD
BRANCH  21  23
ATOM     23  S   UNL     1       4.265   5.069  18.385  0.00  0.00    +0.000 S 
ATOM     24  O   UNL     1       4.551   5.706  19.654  0.00  0.00    +0.000 OA
ATOM     25  O   UNL     1       3.871   5.850  17.231  0.00  0.00    +0.000 OA
BRANCH  23  26
ATOM     26  C   UNL     1       2.900   3.966  18.782  0.00  0.00    +0.000 A 
ATOM     27  C   UNL     1       1.755   3.620  18.082  0.00  0.00    +0.000 A 
ATOM     28  C   UNL     1       1.020   2.570  18.710  0.00  0.00    +0.000 A 
ATOM     29  C   UNL     1       1.610   2.162  19.885  0.00  0.00    +0.000 A 
ATOM     30  S   UNL     1       3.027   3.058  20.232  0.00  0.00    +0.000 S 
ENDBRANCH  23  26
ENDBRANCH  21  23
ENDBRANCH   6  21
TORSDOF 8
ENDMDL
MODEL 6
REMARK VINA RESULT:      -7.5      5.122      6.482
REMARK  Name = 
REMARK  8 active torsions:
REMARK  status: ('A' for Active; 'I' for Inactive)
REMARK    1  A    between atoms: C_2  and  C_3
REMARK    2  A    between atoms: C_6  and  O_7
REMARK    3  A    between atoms: O_7  and  C_8
REMARK    4  A    between atoms: C_8  and  C_9
REMARK    5  A    between atoms: N_11  and  C_12
REMARK    6  A    between atoms: C_17  and  N_18
REMARK    7  A    between atoms: N_18  and  S_19
REMARK    8  A    between atoms: S_19  and  C_22
REMARK                            x       y       z     vdW  Elec       q    Type
REMARK                         _______ _______ _______ _____ _____    ______ ____
ROOT
ATOM      1  C   UNL     1       4.462   5.431  17.004  0.00  0.00    +0.000 A 
ATOM      2  C   UNL     1       5.287   6.437  16.481  0.00  0.00    +0.000 A 
ATOM      3  C   UNL     1       6.391   6.115  15.688  0.00  0.00    +0.000 A 
ATOM      4  C   UNL     1       6.666   4.787  15.378  0.00  0.00    +0.000 A 
ATOM      5  C   UNL     1       5.834   3.778  15.857  0.00  0.00    +0.000 A 
ATOM      6  C   UNL     1       4.737   4.085  16.671  0.00  0.00    +0.000 A 
ENDROOT
BRANCH   1   9
ATOM      7  C   UNL     1       3.479   6.021  19.200  0.00  0.00    +0.000 C 
ATOM      8  O   UNL     1       4.476   5.718  19.854  0.00  0.00    +0.000 OA
ATOM      9  N   UNL     1       3.385   5.869  17.824  0.00  0.00    +0.000 N 
ATOM     10  H   UNL     1       2.692   6.447  17.363  0.00  0.00    +0.000 HD
BRANCH   7  11
ATOM     11  C   UNL     1       2.225   6.609  19.868  0.00  0.00    +0.000 C 
BRANCH  11  12
ATOM     12  O   UNL     1       2.055   7.915  19.335  0.00  0.00    +0.000 OA
BRANCH  12  16
ATOM     13  C   UNL     1      -0.097  10.547  21.762  0.00  0.00    +0.000 A 
ATOM     14  C   UNL     1       0.395   9.330  22.232  0.00  0.00    +0.000 A 
ATOM     15  C   UNL     1       1.099   8.482  21.370  0.00  0.00    +0.000 A 
ATOM     16  C   UNL     1       1.313   8.821  20.032  0.00  0.00    +0.000 A 
ATOM     17  C   UNL     1       0.822  10.041  19.556  0.00  0.00    +0.000 A 
ATOM     18  C   UNL     1       0.116  10.898  20.424  0.00  0.00    +0.000 A 
BRANCH  13  20
ATOM     19  N   UNL     1      -1.372  12.152  23.363  0.00  0.00    +0.000 NA
ATOM     20  C   UNL     1      -0.803  11.434  22.645  0.00  0.00    +0.000 C 
ENDBRANCH  13  20
ENDBRANCH  12  16
ENDBRANCH  11  12
ENDBRANCH   7  11
ENDBRANCH   1   9
BRANCH   6  21
ATOM     21  N   UNL     1       3.846   3.005  16.989  0.00  0.00    +0.000 N 
ATOM     22  H   UNL     1       3.874   2.269  16.274  0.00  0.00    +0.000 HD
BRANCH  21  23
ATOM     23  S   UNL     1       4.047   2.297  18.524  0.00  0.00    +0.000 S 
ATOM     24  O   UNL     1       3.898   0.869  18.331  0.00  0.00    +0.000 OA
ATOM     25  O   UNL     1       5.234   2.846  19.145  0.00  0.00    +0.000 OA
BRANCH  23  26
ATOM     26  C   UNL     1       2.647   2.713  19.574  0.00  0.00    +0.000 A 
ATOM     27  C   UNL     1       1.323   3.000  19.282  0.00  0.00    +0.000 A 
ATOM     28  C   UNL     1       0.511   3.113  20.451  0.00  0.00    +0.000 A 
ATOM     29  C   UNL     1       1.244   2.936  21.603  0.00  0.00    +0.000 A 
ATOM     30  S   UNL     1       2.899   2.657  21.270  0.00  0.00    +0.000 S 
ENDBRANCH  23  26
ENDBRANCH  21  23
ENDBRANCH   6  21
TORSDOF 8
ENDMDL
MODEL 7
REMARK VINA RESULT:      -7.4      1.505      1.851
REMARK  Name = 
REMARK  8 active torsions:
REMARK  status: ('A' for Active; 'I' for Inactive)
REMARK    1  A    between atoms: C_2  and  C_3
REMARK    2  A    between atoms: C_6  and  O_7
REMARK    3  A    between atoms: O_7  and  C_8
REMARK    4  A    between atoms: C_8  and  C_9
REMARK    5  A    between atoms: N_11  and  C_12
REMARK    6  A    between atoms: C_17  and  N_18
REMARK    7  A    between atoms: N_18  and  S_19
REMARK    8  A    between atoms: S_19  and  C_22
REMARK                            x       y       z     vdW  Elec       q    Type
REMARK                         _______ _______ _______ _____ _____    ______ ____
ROOT
ATOM      1  C   UNL     1       7.055   5.264  16.058  0.00  0.00    +0.000 A 
ATOM      2  C   UNL     1       7.199   5.450  14.675  0.00  0.00    +0.000 A 
ATOM      3  C   UNL     1       6.567   4.595  13.770  0.00  0.00    +0.000 A 
ATOM      4  C   UNL     1       5.753   3.565  14.232  0.00  0.00    +0.000 A 
ATOM      5  C   UNL     1       5.567   3.391  15.602  0.00  0.00    +0.000 A 
ATOM      6  C   UNL     1       6.214   4.226  16.521  0.00  0.00    +0.000 A 
ENDROOT
BRANCH   1   9
ATOM      7  C   UNL     1       7.249   7.381  17.329  0.00  0.00    +0.000 C 
ATOM      8  O   UNL     1       6.155   7.824  16.980  0.00  0.00    +0.000 OA
ATOM      9  N   UNL     1       7.768   6.172  16.889  0.00  0.00    +0.000 N 
ATOM     10  H   UNL     1       8.479   5.757  17.480  0.00  0.00    +0.000 HD
BRANCH   7  11
ATOM     11  C   UNL     1       8.154   8.151  18.305  0.00  0.00    +0.000 C 
BRANCH  11  12
ATOM     12  O   UNL     1       8.596   9.314  17.618  0.00  0.00    +0.000 OA
BRANCH  12  16
ATOM     13  C   UNL     1       9.623  12.562  20.036  0.00  0.00    +0.000 A 
ATOM     14  C   UNL     1       9.660  11.246  20.497  0.00  0.00    +0.000 A 
ATOM     15  C   UNL     1       9.293  10.198  19.645  0.00  0.00    +0.000 A 
ATOM     16  C   UNL     1       8.873  10.439  18.335  0.00  0.00    +0.000 A 
ATOM     17  C   UNL     1       8.836  11.757  17.868  0.00  0.00    +0.000 A 
ATOM     18  C   UNL     1       9.209  12.813  18.723  0.00  0.00    +0.000 A 
BRANCH  13  20
ATOM     19  N   UNL     1      10.340  14.516  21.595  0.00  0.00    +0.000 NA
ATOM     20  C   UNL     1      10.018  13.643  20.896  0.00  0.00    +0.000 C 
ENDBRANCH  13  20
ENDBRANCH  12  16
ENDBRANCH  11  12
ENDBRANCH   7  11
ENDBRANCH   1   9
BRANCH   6  21
ATOM     21  N   UNL     1       5.844   4.078  17.900  0.00  0.00    +0.000 N 
ATOM     22  H   UNL     1       6.616   4.327  18.528  0.00  0.00    +0.000 HD
BRANCH  21  23
ATOM     23  S   UNL     1       4.439   4.907  18.390  0.00  0.00    +0.000 S 
ATOM     24  O   UNL     1       4.807   5.653  19.576  0.00  0.00    +0.000 OA
ATOM     25  O   UNL     1       3.859   5.571  17.242  0.00  0.00    +0.000 OA
BRANCH  23  26
ATOM     26  C   UNL     1       3.224   3.734  19.007  0.00  0.00    +0.000 A 
ATOM     27  C   UNL     1       2.800   3.428  20.291  0.00  0.00    +0.000 A 
ATOM     28  C   UNL     1       1.683   2.539  20.307  0.00  0.00    +0.000 A 
ATOM     29  C   UNL     1       1.301   2.172  19.036  0.00  0.00    +0.000 A 
ATOM     30  S   UNL     1       2.301   2.879  17.840  0.00  0.00    +0.000 S 
ENDBRANCH  23  26
ENDBRANCH  21  23
ENDBRANCH   6  21
TORSDOF 8
ENDMDL
MODEL 8
REMARK VINA RESULT:      -7.4      5.073      8.153
REMARK  Name = 
REMARK  8 active torsions:
REMARK  status: ('A' for Active; 'I' for Inactive)
REMARK    1  A    between atoms: C_2  and  C_3
REMARK    2  A    between atoms: C_6  and  O_7
REMARK    3  A    between atoms: O_7  and  C_8
REMARK    4  A    between atoms: C_8  and  C_9
REMARK    5  A    between atoms: N_11  and  C_12
REMARK    6  A    between atoms: C_17  and  N_18
REMARK    7  A    between atoms: N_18  and  S_19
REMARK    8  A    between atoms: S_19  and  C_22
REMARK                            x       y       z     vdW  Elec       q    Type
REMARK                         _______ _______ _______ _____ _____    ______ ____
ROOT
ATOM      1  C   UNL     1       1.927   4.816  19.686  0.00  0.00    +0.000 A 
ATOM      2  C   UNL     1       1.061   3.847  20.212  0.00  0.00    +0.000 A 
ATOM      3  C   UNL     1       0.884   2.621  19.567  0.00  0.00    +0.000 A 
ATOM      4  C   UNL     1       1.596   2.332  18.407  0.00  0.00    +0.000 A 
ATOM      5  C   UNL     1       2.490   3.268  17.892  0.00  0.00    +0.000 A 
ATOM      6  C   UNL     1       2.659   4.510  18.515  0.00  0.00    +0.000 A 
ENDROOT
BRANCH   1   9
ATOM      7  C   UNL     1       1.899   7.290  19.812  0.00  0.00    +0.000 C 
ATOM      8  O   UNL     1       1.804   7.463  18.597  0.00  0.00    +0.000 OA
ATOM      9  N   UNL     1       2.008   6.040  20.405  0.00  0.00    +0.000 N 
ATOM     10  H   UNL     1       1.738   5.992  21.381  0.00  0.00    +0.000 HD
BRANCH   7  11
ATOM     11  C   UNL     1       1.907   8.471  20.795  0.00  0.00    +0.000 C 
BRANCH  11  12
ATOM     12  O   UNL     1       1.005   9.439  20.275  0.00  0.00    +0.000 OA
BRANCH  12  16
ATOM     13  C   UNL     1      -1.701  11.586  22.623  0.00  0.00    +0.000 A 
ATOM     14  C   UNL     1      -1.420  11.932  21.302  0.00  0.00    +0.000 A 
ATOM     15  C   UNL     1      -0.494  11.182  20.567  0.00  0.00    +0.000 A 
ATOM     16  C   UNL     1       0.173  10.093  21.132  0.00  0.00    +0.000 A 
ATOM     17  C   UNL     1      -0.106   9.742  22.457  0.00  0.00    +0.000 A 
ATOM     18  C   UNL     1      -1.041  10.493  23.198  0.00  0.00    +0.000 A 
BRANCH  13  20
ATOM     19  N   UNL     1      -3.443  12.946  23.994  0.00  0.00    +0.000 NA
ATOM     20  C   UNL     1      -2.664  12.336  23.380  0.00  0.00    +0.000 C 
ENDBRANCH  13  20
ENDBRANCH  12  16
ENDBRANCH  11  12
ENDBRANCH   7  11
ENDBRANCH   1   9
BRANCH   6  21
ATOM     21  N   UNL     1       3.711   5.347  18.011  0.00  0.00    +0.000 N 
ATOM     22  H   UNL     1       3.752   6.244  18.509  0.00  0.00    +0.000 HD
BRANCH  21  23
ATOM     23  S   UNL     1       5.267   4.656  17.980  0.00  0.00    +0.000 S 
ATOM     24  O   UNL     1       5.464   4.054  19.283  0.00  0.00    +0.000 OA
ATOM     25  O   UNL     1       5.413   3.877  16.768  0.00  0.00    +0.000 OA
BRANCH  23  26
ATOM     26  C   UNL     1       6.509   5.956  17.939  0.00  0.00    +0.000 A 
ATOM     27  C   UNL     1       6.621   7.107  17.175  0.00  0.00    +0.000 A 
ATOM     28  C   UNL     1       7.697   7.946  17.595  0.00  0.00    +0.000 A 
ATOM     29  C   UNL     1       8.392   7.400  18.651  0.00  0.00    +0.000 A 
ATOM     30  S   UNL     1       7.760   5.877  19.111  0.00  0.00    +0.000 S 
ENDBRANCH  23  26
ENDBRANCH  21  23
ENDBRANCH   6  21
TORSDOF 8
ENDMDL
MODEL 9
REMARK VINA RESULT:      -7.3      5.194      8.019
REMARK  Name = 
REMARK  8 active torsions:
REMARK  status: ('A' for Active; 'I' for Inactive)
REMARK    1  A    between atoms: C_2  and  C_3
REMARK    2  A    between atoms: C_6  and  O_7
REMARK    3  A    between atoms: O_7  and  C_8
REMARK    4  A    between atoms: C_8  and  C_9
REMARK    5  A    between atoms: N_11  and  C_12
REMARK    6  A    between atoms: C_17  and  N_18
REMARK    7  A    between atoms: N_18  and  S_19
REMARK    8  A    between atoms: S_19  and  C_22
REMARK                            x       y       z     vdW  Elec       q    Type
REMARK                         _______ _______ _______ _____ _____    ______ ____
ROOT
ATOM      1  C   UNL     1       2.939   5.250  18.142  0.00  0.00    +0.000 A 
ATOM      2  C   UNL     1       1.908   4.329  17.901  0.00  0.00    +0.000 A 
ATOM      3  C   UNL     1       2.117   2.960  18.083  0.00  0.00    +0.000 A 
ATOM      4  C   UNL     1       3.345   2.494  18.540  0.00  0.00    +0.000 A 
ATOM      5  C   UNL     1       4.367   3.398  18.821  0.00  0.00    +0.000 A 
ATOM      6  C   UNL     1       4.180   4.771  18.621  0.00  0.00    +0.000 A 
ENDROOT
BRANCH   1   9
ATOM      7  C   UNL     1       2.235   7.506  18.883  0.00  0.00    +0.000 C 
ATOM      8  O   UNL     1       2.040   7.183  20.055  0.00  0.00    +0.000 OA
ATOM      9  N   UNL     1       2.628   6.615  17.894  0.00  0.00    +0.000 N 
ATOM     10  H   UNL     1       3.080   7.027  17.087  0.00  0.00    +0.000 HD
BRANCH   7  11
ATOM     11  C   UNL     1       2.055   8.956  18.408  0.00  0.00    +0.000 C 
BRANCH  11  12
ATOM     12  O   UNL     1       1.245   9.605  19.378  0.00  0.00    +0.000 OA
BRANCH  12  16
ATOM     13  C   UNL     1      -2.434  10.999  17.974  0.00  0.00    +0.000 A 
ATOM     14  C   UNL     1      -1.661  10.082  17.262  0.00  0.00    +0.000 A 
ATOM     15  C   UNL     1      -0.430   9.659  17.777  0.00  0.00    +0.000 A 
ATOM     16  C   UNL     1       0.057  10.148  18.991  0.00  0.00    +0.000 A 
ATOM     17  C   UNL     1      -0.714  11.068  19.708  0.00  0.00    +0.000 A 
ATOM     18  C   UNL     1      -1.956  11.492  19.194  0.00  0.00    +0.000 A 
BRANCH  13  20
ATOM     19  N   UNL     1      -4.742  11.764  17.052  0.00  0.00    +0.000 NA
ATOM     20  C   UNL     1      -3.708  11.424  17.465  0.00  0.00    +0.000 C 
ENDBRANCH  13  20
ENDBRANCH  12  16
ENDBRANCH  11  12
ENDBRANCH   7  11
ENDBRANCH   1   9
BRANCH   6  21
ATOM     21  N   UNL     1       5.225   5.640  19.084  0.00  0.00    +0.000 N 
ATOM     22  H   UNL     1       5.837   5.169  19.760  0.00  0.00    +0.000 HD
BRANCH  21  23
ATOM     23  S   UNL     1       6.183   6.363  17.876  0.00  0.00    +0.000 S 
ATOM     24  O   UNL     1       5.561   7.637  17.580  0.00  0.00    +0.000 OA
ATOM     25  O   UNL     1       7.575   6.286  18.269  0.00  0.00    +0.000 OA
BRANCH  23  26
ATOM     26  C   UNL     1       6.007   5.456  16.334  0.00  0.00    +0.000 A 
ATOM     27  C   UNL     1       5.209   5.668  15.220  0.00  0.00    +0.000 A 
ATOM     28  C   UNL     1       5.516   4.782  14.143  0.00  0.00    +0.000 A 
ATOM     29  C   UNL     1       6.522   3.901  14.474  0.00  0.00    +0.000 A 
ATOM     30  S   UNL     1       7.070   4.133  16.079  0.00  0.00    +0.000 S 
ENDBRANCH  23  26
ENDBRANCH  21  23
ENDBRANCH   6  21
TORSDOF 8
ENDMDL
