MODEL 1
REMARK VINA RESULT:      -7.4      0.000      0.000
REMARK  Name = 
REMARK  7 active torsions:
REMARK  status: ('A' for Active; 'I' for Inactive)
REMARK    1  A    between atoms: C_1  and  C_2
REMARK    2  A    between atoms: C_2  and  C_3
REMARK    3  A    between atoms: C_2  and  C_4
REMARK    4  A    between atoms: C_9  and  C_10
REMARK    5  A    between atoms: C_13  and  C_15
REMARK    6  A    between atoms: C_22  and  C_23
REMARK    7  A    between atoms: C_23  and  O_24
REMARK                            x       y       z     vdW  Elec       q    Type
REMARK                         _______ _______ _______ _____ _____    ______ ____
ROOT
ATOM      1  C   UNL     1       6.125   5.517  17.628  0.00  0.00    +0.000 C 
ATOM      2  C   UNL     1       4.739   5.038  18.007  0.00  0.00    +0.000 C 
ATOM      3  N   UNL     1       3.907   6.202  18.153  0.00  0.00    +0.000 N 
ATOM      4  C   UNL     1       2.646   6.254  18.728  0.00  0.00    +0.000 C 
ATOM      5  O   UNL     1       2.060   7.318  18.914  0.00  0.00    +0.000 OA
ATOM      6  C   UNL     1       4.515   7.358  17.519  0.00  0.00    +0.000 C 
ATOM      7  C   UNL     1       5.828   6.849  16.891  0.00  0.00    +0.000 C 
ENDROOT
BRANCH   1  13
ATOM      8  C   UNL     1       6.253   3.786  12.598  0.00  0.00    +0.000 C 
ATOM      9  O   UNL     1       7.023   4.317  11.788  0.00  0.00    +0.000 OA
ATOM     10  N   UNL     1       6.406   3.993  13.966  0.00  0.00    +0.000 N 
ATOM     11  C   UNL     1       7.275   5.102  14.352  0.00  0.00    +0.000 C 
ATOM     12  C   UNL     1       7.901   4.942  15.733  0.00  0.00    +0.000 C 
ATOM     13  C   UNL     1       6.968   4.451  16.860  0.00  0.00    +0.000 C 
ATOM     14  C   UNL     1       6.104   3.292  16.324  0.00  0.00    +0.000 C 
ATOM     15  C   UNL     1       5.447   3.546  14.970  0.00  0.00    +0.000 C 
BRANCH   8  17
ATOM     16  C   UNL     1       4.208   3.690  11.170  0.00  0.00    +0.000 C 
ATOM     17  C   UNL     1       5.128   2.880  12.090  0.00  0.00    +0.000 C 
ATOM     18  C   UNL     1       5.683   1.673  11.336  0.00  0.00    +0.000 C 
ENDBRANCH   8  17
ENDBRANCH   1  13
BRANCH   4  19
ATOM     19  C   UNL     1       1.966   4.981  19.151  0.00  0.00    +0.000 A 
ATOM     20  C   UNL     1       1.527   4.087  18.167  0.00  0.00    +0.000 A 
ATOM     21  C   UNL     1       0.910   2.884  18.530  0.00  0.00    +0.000 A 
ATOM     22  C   UNL     1       0.708   2.569  19.872  0.00  0.00    +0.000 A 
ATOM     23  C   UNL     1       1.167   3.433  20.861  0.00  0.00    +0.000 A 
ATOM     24  C   UNL     1       1.826   4.608  20.496  0.00  0.00    +0.000 A 
ENDBRANCH   4  19
BRANCH   7  25
ATOM     25  C   UNL     1       6.948   7.879  17.032  0.00  0.00    +0.000 C 
BRANCH  25  26
ATOM     26  O   UNL     1       7.858   7.509  18.059  0.00  0.00    +0.000 OA
ATOM     27  H   UNL     1       8.626   8.103  18.005  0.00  0.00    +0.000 HD
ENDBRANCH  25  26
ENDBRANCH   7  25
TORSDOF 5
ENDMDL
MODEL 2
REMARK VINA RESULT:      -6.8      5.175      8.975
REMARK  Name = 
REMARK  7 active torsions:
REMARK  status: ('A' for Active; 'I' for Inactive)
REMARK    1  A    between atoms: C_1  and  C_2
REMARK    2  A    between atoms: C_2  and  C_3
REMARK    3  A    between atoms: C_2  and  C_4
REMARK    4  A    between atoms: C_9  and  C_10
REMARK    5  A    between atoms: C_13  and  C_15
REMARK    6  A    between atoms: C_22  and  C_23
REMARK    7  A    between atoms: C_23  and  O_24
REMARK                            x       y       z     vdW  Elec       q    Type
REMARK                         _______ _______ _______ _____ _____    ______ ____
ROOT
ATOM      1  C   UNL     1       1.456   9.337  20.112  0.00  0.00    +0.000 C 
ATOM      2  C   UNL     1       1.907   8.038  19.477  0.00  0.00    +0.000 C 
ATOM      3  N   UNL     1       1.696   6.992  20.441  0.00  0.00    +0.000 N 
ATOM      4  C   UNL     1       2.191   5.697  20.383  0.00  0.00    +0.000 C 
ATOM      5  O   UNL     1       2.053   4.908  21.314  0.00  0.00    +0.000 OA
ATOM      6  C   UNL     1       0.784   7.424  21.485  0.00  0.00    +0.000 C 
ATOM      7  C   UNL     1       0.367   8.860  21.108  0.00  0.00    +0.000 C 
ENDROOT
BRANCH   1  13
ATOM      8  C   UNL     1      -3.170  11.508  18.627  0.00  0.00    +0.000 C 
ATOM      9  O   UNL     1      -3.573  12.533  19.190  0.00  0.00    +0.000 OA
ATOM     10  N   UNL     1      -1.849  11.092  18.766  0.00  0.00    +0.000 N 
ATOM     11  C   UNL     1      -1.092  11.718  19.846  0.00  0.00    +0.000 C 
ATOM     12  C   UNL     1       0.416  11.734  19.614  0.00  0.00    +0.000 C 
ATOM     13  C   UNL     1       1.044  10.430  19.077  0.00  0.00    +0.000 C 
ATOM     14  C   UNL     1       0.150   9.871  17.954  0.00  0.00    +0.000 C 
ATOM     15  C   UNL     1      -1.340   9.814  18.279  0.00  0.00    +0.000 C 
BRANCH   8  17
ATOM     16  C   UNL     1      -5.553  10.835  18.312  0.00  0.00    +0.000 C 
ATOM     17  C   UNL     1      -4.132  10.693  17.757  0.00  0.00    +0.000 C 
ATOM     18  C   UNL     1      -4.096  11.159  16.302  0.00  0.00    +0.000 C 
ENDBRANCH   8  17
ENDBRANCH   1  13
BRANCH   4  19
ATOM     19  C   UNL     1       2.930   5.235  19.157  0.00  0.00    +0.000 A 
ATOM     20  C   UNL     1       4.296   5.520  19.042  0.00  0.00    +0.000 A 
ATOM     21  C   UNL     1       5.016   5.085  17.923  0.00  0.00    +0.000 A 
ATOM     22  C   UNL     1       4.380   4.380  16.902  0.00  0.00    +0.000 A 
ATOM     23  C   UNL     1       3.031   4.063  17.019  0.00  0.00    +0.000 A 
ATOM     24  C   UNL     1       2.327   4.456  18.159  0.00  0.00    +0.000 A 
ENDBRANCH   4  19
BRANCH   7  25
ATOM     25  C   UNL     1       0.252   9.748  22.347  0.00  0.00    +0.000 C 
BRANCH  25  26
ATOM     26  O   UNL     1      -0.730   9.250  23.246  0.00  0.00    +0.000 OA
ATOM     27  H   UNL     1      -1.049   8.400  22.897  0.00  0.00    +0.000 HD
ENDBRANCH  25  26
ENDBRANCH   7  25
TORSDOF 5
ENDMDL
MODEL 3
REMARK VINA RESULT:      -6.6      1.955      7.186
REMARK  Name = 
REMARK  7 active torsions:
REMARK  status: ('A' for Active; 'I' for Inactive)
REMARK    1  A    between atoms: C_1  and  C_2
REMARK    2  A    between atoms: C_2  and  C_3
REMARK    3  A    between atoms: C_2  and  C_4
REMARK    4  A    between atoms: C_9  and  C_10
REMARK    5  A    between atoms: C_13  and  C_15
REMARK    6  A    between atoms: C_22  and  C_23
REMARK    7  A    between atoms: C_23  and  O_24
REMARK                            x       y       z     vdW  Elec       q    Type
REMARK                         _______ _______ _______ _____ _____    ______ ____
ROOT
ATOM      1  C   UNL     1       5.677   4.045  16.978  0.00  0.00    +0.000 C 
ATOM      2  C   UNL     1       5.789   3.632  15.525  0.00  0.00    +0.000 C 
ATOM      3  N   UNL     1       6.733   4.517  14.899  0.00  0.00    +0.000 N 
ATOM      4  C   UNL     1       6.955   4.665  13.537  0.00  0.00    +0.000 C 
ATOM      5  O   UNL     1       7.701   5.533  13.092  0.00  0.00    +0.000 OA
ATOM      6  C   UNL     1       7.539   5.205  15.891  0.00  0.00    +0.000 C 
ATOM      7  C   UNL     1       7.072   4.665  17.258  0.00  0.00    +0.000 C 
ENDROOT
BRANCH   1  13
ATOM      8  C   UNL     1       1.094   2.854  19.405  0.00  0.00    +0.000 C 
ATOM      9  O   UNL     1       0.279   2.112  18.843  0.00  0.00    +0.000 OA
ATOM     10  N   UNL     1       2.408   2.940  18.953  0.00  0.00    +0.000 N 
ATOM     11  C   UNL     1       2.664   2.391  17.625  0.00  0.00    +0.000 C 
ATOM     12  C   UNL     1       4.106   1.943  17.410  0.00  0.00    +0.000 C 
ATOM     13  C   UNL     1       5.207   2.895  17.922  0.00  0.00    +0.000 C 
ATOM     14  C   UNL     1       4.814   3.406  19.322  0.00  0.00    +0.000 C 
ATOM     15  C   UNL     1       3.379   3.909  19.450  0.00  0.00    +0.000 C 
BRANCH   8  17
ATOM     16  C   UNL     1       1.287   3.082  21.884  0.00  0.00    +0.000 C 
ATOM     17  C   UNL     1       0.656   3.677  20.620  0.00  0.00    +0.000 C 
ATOM     18  C   UNL     1       1.066   5.142  20.477  0.00  0.00    +0.000 C 
ENDBRANCH   8  17
ENDBRANCH   1  13
BRANCH   4  19
ATOM     19  C   UNL     1       6.260   3.752  12.565  0.00  0.00    +0.000 A 
ATOM     20  C   UNL     1       6.979   2.691  11.998  0.00  0.00    +0.000 A 
ATOM     21  C   UNL     1       6.354   1.812  11.107  0.00  0.00    +0.000 A 
ATOM     22  C   UNL     1       5.017   1.991  10.757  0.00  0.00    +0.000 A 
ATOM     23  C   UNL     1       4.283   3.020  11.335  0.00  0.00    +0.000 A 
ATOM     24  C   UNL     1       4.896   3.866  12.262  0.00  0.00    +0.000 A 
ENDBRANCH   4  19
BRANCH   7  25
ATOM     25  C   UNL     1       7.040   5.771  18.312  0.00  0.00    +0.000 C 
BRANCH  25  26
ATOM     26  O   UNL     1       7.765   5.392  19.474  0.00  0.00    +0.000 OA
ATOM     27  H   UNL     1       7.374   4.569  19.815  0.00  0.00    +0.000 HD
ENDBRANCH  25  26
ENDBRANCH   7  25
TORSDOF 5
ENDMDL
MODEL 4
REMARK VINA RESULT:      -6.5      5.099      8.934
REMARK  Name = 
REMARK  7 active torsions:
REMARK  status: ('A' for Active; 'I' for Inactive)
REMARK    1  A    between atoms: C_1  and  C_2
REMARK    2  A    between atoms: C_2  and  C_3
REMARK    3  A    between atoms: C_2  and  C_4
REMARK    4  A    between atoms: C_9  and  C_10
REMARK    5  A    between atoms: C_13  and  C_15
REMARK    6  A    between atoms: C_22  and  C_23
REMARK    7  A    between atoms: C_23  and  O_24
REMARK                            x       y       z     vdW  Elec       q    Type
REMARK                         _______ _______ _______ _____ _____    ______ ____
ROOT
ATOM      1  C   UNL     1       1.733   9.082  19.726  0.00  0.00    +0.000 C 
ATOM      2  C   UNL     1       2.165   7.752  19.144  0.00  0.00    +0.000 C 
ATOM      3  N   UNL     1       2.011   6.762  20.175  0.00  0.00    +0.000 N 
ATOM      4  C   UNL     1       2.516   5.469  20.167  0.00  0.00    +0.000 C 
ATOM      5  O   UNL     1       2.431   4.734  21.147  0.00  0.00    +0.000 OA
ATOM      6  C   UNL     1       1.148   7.247  21.237  0.00  0.00    +0.000 C 
ATOM      7  C   UNL     1       0.699   8.656  20.800  0.00  0.00    +0.000 C 
ENDROOT
BRANCH   1  13
ATOM      8  C   UNL     1      -2.486  12.287  19.239  0.00  0.00    +0.000 C 
ATOM      9  O   UNL     1      -2.427  13.446  19.667  0.00  0.00    +0.000 OA
ATOM     10  N   UNL     1      -1.330  11.530  19.069  0.00  0.00    +0.000 N 
ATOM     11  C   UNL     1      -0.130  12.042  19.725  0.00  0.00    +0.000 C 
ATOM     12  C   UNL     1       1.171  11.597  19.064  0.00  0.00    +0.000 C 
ATOM     13  C   UNL     1       1.261  10.111  18.652  0.00  0.00    +0.000 C 
ATOM     14  C   UNL     1      -0.064   9.697  17.983  0.00  0.00    +0.000 C 
ATOM     15  C   UNL     1      -1.327  10.111  18.733  0.00  0.00    +0.000 C 
BRANCH   8  17
ATOM     16  C   UNL     1      -4.952  12.481  19.578  0.00  0.00    +0.000 C 
ATOM     17  C   UNL     1      -3.847  11.682  18.879  0.00  0.00    +0.000 C 
ATOM     18  C   UNL     1      -4.077  11.690  17.369  0.00  0.00    +0.000 C 
ENDBRANCH   8  17
ENDBRANCH   1  13
BRANCH   4  19
ATOM     19  C   UNL     1       3.198   4.943  18.935  0.00  0.00    +0.000 A 
ATOM     20  C   UNL     1       2.492   4.083  18.084  0.00  0.00    +0.000 A 
ATOM     21  C   UNL     1       3.092   3.593  16.918  0.00  0.00    +0.000 A 
ATOM     22  C   UNL     1       4.404   3.939  16.600  0.00  0.00    +0.000 A 
ATOM     23  C   UNL     1       5.106   4.816  17.419  0.00  0.00    +0.000 A 
ATOM     24  C   UNL     1       4.487   5.342  18.554  0.00  0.00    +0.000 A 
ENDBRANCH   4  19
BRANCH   7  25
ATOM     25  C   UNL     1       0.637   9.613  21.990  0.00  0.00    +0.000 C 
BRANCH  25  26
ATOM     26  O   UNL     1       1.826   9.546  22.765  0.00  0.00    +0.000 OA
ATOM     27  H   UNL     1       2.048  10.449  23.050  0.00  0.00    +0.000 HD
ENDBRANCH  25  26
ENDBRANCH   7  25
TORSDOF 5
ENDMDL
MODEL 5
REMARK VINA RESULT:      -6.5      8.983     12.756
REMARK  Name = 
REMARK  7 active torsions:
REMARK  status: ('A' for Active; 'I' for Inactive)
REMARK    1  A    between atoms: C_1  and  C_2
REMARK    2  A    between atoms: C_2  and  C_3
REMARK    3  A    between atoms: C_2  and  C_4
REMARK    4  A    between atoms: C_9  and  C_10
REMARK    5  A    between atoms: C_13  and  C_15
REMARK    6  A    between atoms: C_22  and  C_23
REMARK    7  A    between atoms: C_23  and  O_24
REMARK                            x       y       z     vdW  Elec       q    Type
REMARK                         _______ _______ _______ _____ _____    ______ ____
ROOT
ATOM      1  C   UNL     1      -0.734  12.178  19.325  0.00  0.00    +0.000 C 
ATOM      2  C   UNL     1      -2.178  11.871  18.986  0.00  0.00    +0.000 C 
ATOM      3  N   UNL     1      -2.176  10.816  18.009  0.00  0.00    +0.000 N 
ATOM      4  C   UNL     1      -3.251  10.396  17.239  0.00  0.00    +0.000 C 
ATOM      5  O   UNL     1      -3.122   9.563  16.345  0.00  0.00    +0.000 OA
ATOM      6  C   UNL     1      -0.892  10.140  17.978  0.00  0.00    +0.000 C 
ATOM      7  C   UNL     1      -0.035  10.818  19.065  0.00  0.00    +0.000 C 
ENDROOT
BRANCH   1  13
ATOM      8  C   UNL     1      -3.925  13.010  23.501  0.00  0.00    +0.000 C 
ATOM      9  O   UNL     1      -3.994  12.160  24.397  0.00  0.00    +0.000 OA
ATOM     10  N   UNL     1      -2.893  12.977  22.567  0.00  0.00    +0.000 N 
ATOM     11  C   UNL     1      -2.130  11.734  22.500  0.00  0.00    +0.000 C 
ATOM     12  C   UNL     1      -0.711  11.909  21.971  0.00  0.00    +0.000 C 
ATOM     13  C   UNL     1      -0.544  12.818  20.735  0.00  0.00    +0.000 C 
ATOM     14  C   UNL     1      -1.400  14.085  20.927  0.00  0.00    +0.000 C 
ATOM     15  C   UNL     1      -2.834  13.835  21.388  0.00  0.00    +0.000 C 
BRANCH   8  17
ATOM     16  C   UNL     1      -6.317  13.577  23.936  0.00  0.00    +0.000 C 
ATOM     17  C   UNL     1      -4.978  14.120  23.428  0.00  0.00    +0.000 C 
ATOM     18  C   UNL     1      -4.564  15.335  24.257  0.00  0.00    +0.000 C 
ENDBRANCH   8  17
ENDBRANCH   1  13
BRANCH   4  19
ATOM     19  C   UNL     1      -4.617  10.973  17.486  0.00  0.00    +0.000 A 
ATOM     20  C   UNL     1      -5.444  10.373  18.445  0.00  0.00    +0.000 A 
ATOM     21  C   UNL     1      -6.712  10.900  18.712  0.00  0.00    +0.000 A 
ATOM     22  C   UNL     1      -7.176  12.016  18.017  0.00  0.00    +0.000 A 
ATOM     23  C   UNL     1      -6.353  12.641  17.087  0.00  0.00    +0.000 A 
ATOM     24  C   UNL     1      -5.070  12.142  16.858  0.00  0.00    +0.000 A 
ENDBRANCH   4  19
BRANCH   7  25
ATOM     25  C   UNL     1       1.419  10.963  18.617  0.00  0.00    +0.000 C 
BRANCH  25  26
ATOM     26  O   UNL     1       1.682  10.171  17.466  0.00  0.00    +0.000 OA
ATOM     27  H   UNL     1       0.876  10.157  16.923  0.00  0.00    +0.000 HD
ENDBRANCH  25  26
ENDBRANCH   7  25
TORSDOF 5
ENDMDL
MODEL 6
REMARK VINA RESULT:      -6.4      1.834      7.234
REMARK  Name = 
REMARK  7 active torsions:
REMARK  status: ('A' for Active; 'I' for Inactive)
REMARK    1  A    between atoms: C_1  and  C_2
REMARK    2  A    between atoms: C_2  and  C_3
REMARK    3  A    between atoms: C_2  and  C_4
REMARK    4  A    between atoms: C_9  and  C_10
REMARK    5  A    between atoms: C_13  and  C_15
REMARK    6  A    between atoms: C_22  and  C_23
REMARK    7  A    between atoms: C_23  and  O_24
REMARK                            x       y       z     vdW  Elec       q    Type
REMARK                         _______ _______ _______ _____ _____    ______ ____
ROOT
ATOM      1  C   UNL     1       5.614   4.111  16.876  0.00  0.00    +0.000 C 
ATOM      2  C   UNL     1       5.844   3.638  15.456  0.00  0.00    +0.000 C 
ATOM      3  N   UNL     1       6.745   4.570  14.833  0.00  0.00    +0.000 N 
ATOM      4  C   UNL     1       7.032   4.669  13.480  0.00  0.00    +0.000 C 
ATOM      5  O   UNL     1       7.728   5.576  13.029  0.00  0.00    +0.000 OA
ATOM      6  C   UNL     1       7.432   5.372  15.829  0.00  0.00    +0.000 C 
ATOM      7  C   UNL     1       6.933   4.861  17.196  0.00  0.00    +0.000 C 
ENDROOT
BRANCH   1  13
ATOM      8  C   UNL     1       1.109   2.880  19.426  0.00  0.00    +0.000 C 
ATOM      9  O   UNL     1       0.298   2.110  18.898  0.00  0.00    +0.000 OA
ATOM     10  N   UNL     1       2.411   2.982  18.945  0.00  0.00    +0.000 N 
ATOM     11  C   UNL     1       2.650   2.411  17.622  0.00  0.00    +0.000 C 
ATOM     12  C   UNL     1       4.096   1.987  17.386  0.00  0.00    +0.000 C 
ATOM     13  C   UNL     1       5.188   2.972  17.854  0.00  0.00    +0.000 C 
ATOM     14  C   UNL     1       4.815   3.505  19.251  0.00  0.00    +0.000 C 
ATOM     15  C   UNL     1       3.373   3.981  19.399  0.00  0.00    +0.000 C 
BRANCH   8  17
ATOM     16  C   UNL     1       1.315   3.138  21.901  0.00  0.00    +0.000 C 
ATOM     17  C   UNL     1       0.680   3.720  20.633  0.00  0.00    +0.000 C 
ATOM     18  C   UNL     1       1.096   5.181  20.470  0.00  0.00    +0.000 C 
ENDBRANCH   8  17
ENDBRANCH   1  13
BRANCH   4  19
ATOM     19  C   UNL     1       6.473   3.653  12.522  0.00  0.00    +0.000 A 
ATOM     20  C   UNL     1       5.106   3.687  12.219  0.00  0.00    +0.000 A 
ATOM     21  C   UNL     1       4.560   2.768  11.315  0.00  0.00    +0.000 A 
ATOM     22  C   UNL     1       5.365   1.798  10.720  0.00  0.00    +0.000 A 
ATOM     23  C   UNL     1       6.729   1.773  10.988  0.00  0.00    +0.000 A 
ATOM     24  C   UNL     1       7.279   2.722  11.852  0.00  0.00    +0.000 A 
ENDBRANCH   4  19
BRANCH   7  25
ATOM     25  C   UNL     1       6.749   6.011  18.186  0.00  0.00    +0.000 C 
BRANCH  25  26
ATOM     26  O   UNL     1       7.806   6.955  18.077  0.00  0.00    +0.000 OA
ATOM     27  H   UNL     1       8.618   6.469  17.854  0.00  0.00    +0.000 HD
ENDBRANCH  25  26
ENDBRANCH   7  25
TORSDOF 5
ENDMDL
MODEL 7
REMARK VINA RESULT:      -6.4      5.344      9.691
REMARK  Name = 
REMARK  7 active torsions:
REMARK  status: ('A' for Active; 'I' for Inactive)
REMARK    1  A    between atoms: C_1  and  C_2
REMARK    2  A    between atoms: C_2  and  C_3
REMARK    3  A    between atoms: C_2  and  C_4
REMARK    4  A    between atoms: C_9  and  C_10
REMARK    5  A    between atoms: C_13  and  C_15
REMARK    6  A    between atoms: C_22  and  C_23
REMARK    7  A    between atoms: C_23  and  O_24
REMARK                            x       y       z     vdW  Elec       q    Type
REMARK                         _______ _______ _______ _____ _____    ______ ____
ROOT
ATOM      1  C   UNL     1       1.263   8.758  20.096  0.00  0.00    +0.000 C 
ATOM      2  C   UNL     1       1.727   7.326  20.270  0.00  0.00    +0.000 C 
ATOM      3  N   UNL     1       2.123   6.842  18.976  0.00  0.00    +0.000 N 
ATOM      4  C   UNL     1       2.374   5.524  18.624  0.00  0.00    +0.000 C 
ATOM      5  O   UNL     1       2.594   5.193  17.462  0.00  0.00    +0.000 OA
ATOM      6  C   UNL     1       2.338   7.942  18.053  0.00  0.00    +0.000 C 
ATOM      7  C   UNL     1       2.086   9.227  18.867  0.00  0.00    +0.000 C 
ENDROOT
BRANCH   1  13
ATOM      8  C   UNL     1      -2.100  11.866  22.805  0.00  0.00    +0.000 C 
ATOM      9  O   UNL     1      -2.773  11.384  23.723  0.00  0.00    +0.000 OA
ATOM     10  N   UNL     1      -1.006  11.178  22.287  0.00  0.00    +0.000 N 
ATOM     11  C   UNL     1      -0.915   9.764  22.640  0.00  0.00    +0.000 C 
ATOM     12  C   UNL     1       0.505   9.210  22.605  0.00  0.00    +0.000 C 
ATOM     13  C   UNL     1       1.374   9.615  21.395  0.00  0.00    +0.000 C 
ATOM     14  C   UNL     1       1.183  11.121  21.125  0.00  0.00    +0.000 C 
ATOM     15  C   UNL     1      -0.267  11.596  21.100  0.00  0.00    +0.000 C 
BRANCH   8  17
ATOM     16  C   UNL     1      -3.959  13.268  21.904  0.00  0.00    +0.000 C 
ATOM     17  C   UNL     1      -2.464  13.243  22.240  0.00  0.00    +0.000 C 
ATOM     18  C   UNL     1      -2.139  14.356  23.235  0.00  0.00    +0.000 C 
ENDBRANCH   8  17
ENDBRANCH   1  13
BRANCH   4  19
ATOM     19  C   UNL     1       2.369   4.455  19.683  0.00  0.00    +0.000 A 
ATOM     20  C   UNL     1       1.163   4.140  20.323  0.00  0.00    +0.000 A 
ATOM     21  C   UNL     1       1.123   3.137  21.297  0.00  0.00    +0.000 A 
ATOM     22  C   UNL     1       2.282   2.451  21.655  0.00  0.00    +0.000 A 
ATOM     23  C   UNL     1       3.479   2.731  21.006  0.00  0.00    +0.000 A 
ATOM     24  C   UNL     1       3.506   3.699  20.000  0.00  0.00    +0.000 A 
ENDBRANCH   4  19
BRANCH   7  25
ATOM     25  C   UNL     1       1.368  10.284  18.028  0.00  0.00    +0.000 C 
BRANCH  25  26
ATOM     26  O   UNL     1       0.054   9.862  17.688  0.00  0.00    +0.000 OA
ATOM     27  H   UNL     1       0.082   8.904  17.521  0.00  0.00    +0.000 HD
ENDBRANCH  25  26
ENDBRANCH   7  25
TORSDOF 5
ENDMDL
MODEL 8
REMARK VINA RESULT:      -6.4      5.122      9.251
REMARK  Name = 
REMARK  7 active torsions:
REMARK  status: ('A' for Active; 'I' for Inactive)
REMARK    1  A    between atoms: C_1  and  C_2
REMARK    2  A    between atoms: C_2  and  C_3
REMARK    3  A    between atoms: C_2  and  C_4
REMARK    4  A    between atoms: C_9  and  C_10
REMARK    5  A    between atoms: C_13  and  C_15
REMARK    6  A    between atoms: C_22  and  C_23
REMARK    7  A    between atoms: C_23  and  O_24
REMARK                            x       y       z     vdW  Elec       q    Type
REMARK                         _______ _______ _______ _____ _____    ______ ____
ROOT
ATOM      1  C   UNL     1       1.854   9.240  19.312  0.00  0.00    +0.000 C 
ATOM      2  C   UNL     1       2.476   8.077  18.568  0.00  0.00    +0.000 C 
ATOM      3  N   UNL     1       2.547   6.970  19.483  0.00  0.00    +0.000 N 
ATOM      4  C   UNL     1       3.263   5.795  19.310  0.00  0.00    +0.000 C 
ATOM      5  O   UNL     1       3.356   4.954  20.201  0.00  0.00    +0.000 OA
ATOM      6  C   UNL     1       1.669   7.179  20.620  0.00  0.00    +0.000 C 
ATOM      7  C   UNL     1       0.964   8.526  20.363  0.00  0.00    +0.000 C 
ENDROOT
BRANCH   1  13
ATOM      8  C   UNL     1      -2.176  12.665  19.903  0.00  0.00    +0.000 C 
ATOM      9  O   UNL     1      -1.945  13.824  20.267  0.00  0.00    +0.000 OA
ATOM     10  N   UNL     1      -1.148  11.844  19.446  0.00  0.00    +0.000 N 
ATOM     11  C   UNL     1       0.209  12.297  19.737  0.00  0.00    +0.000 C 
ATOM     12  C   UNL     1       1.257  11.773  18.761  0.00  0.00    +0.000 C 
ATOM     13  C   UNL     1       1.158  10.281  18.380  0.00  0.00    +0.000 C 
ATOM     14  C   UNL     1      -0.318   9.931  18.106  0.00  0.00    +0.000 C 
ATOM     15  C   UNL     1      -1.306  10.422  19.160  0.00  0.00    +0.000 C 
BRANCH   8  17
ATOM     16  C   UNL     1      -4.456  13.028  20.853  0.00  0.00    +0.000 C 
ATOM     17  C   UNL     1      -3.611  12.131  19.942  0.00  0.00    +0.000 C 
ATOM     18  C   UNL     1      -4.225  12.086  18.544  0.00  0.00    +0.000 C 
ENDBRANCH   8  17
ENDBRANCH   1  13
BRANCH   4  19
ATOM     19  C   UNL     1       3.961   5.532  18.004  0.00  0.00    +0.000 A 
ATOM     20  C   UNL     1       4.669   6.574  17.392  0.00  0.00    +0.000 A 
ATOM     21  C   UNL     1       5.347   6.355  16.187  0.00  0.00    +0.000 A 
ATOM     22  C   UNL     1       5.311   5.105  15.573  0.00  0.00    +0.000 A 
ATOM     23  C   UNL     1       4.639   4.053  16.185  0.00  0.00    +0.000 A 
ATOM     24  C   UNL     1       4.006   4.262  17.412  0.00  0.00    +0.000 A 
ENDBRANCH   4  19
BRANCH   7  25
ATOM     25  C   UNL     1       0.800   9.324  21.657  0.00  0.00    +0.000 C 
BRANCH  25  26
ATOM     26  O   UNL     1       1.958   9.219  22.474  0.00  0.00    +0.000 OA
ATOM     27  H   UNL     1       2.292  10.118  22.634  0.00  0.00    +0.000 HD
ENDBRANCH  25  26
ENDBRANCH   7  25
TORSDOF 5
ENDMDL
MODEL 9
REMARK VINA RESULT:      -6.4      5.308      9.050
REMARK  Name = 
REMARK  7 active torsions:
REMARK  status: ('A' for Active; 'I' for Inactive)
REMARK    1  A    between atoms: C_1  and  C_2
REMARK    2  A    between atoms: C_2  and  C_3
REMARK    3  A    between atoms: C_2  and  C_4
REMARK    4  A    between atoms: C_9  and  C_10
REMARK    5  A    between atoms: C_13  and  C_15
REMARK    6  A    between atoms: C_22  and  C_23
REMARK    7  A    between atoms: C_23  and  O_24
REMARK                            x       y       z     vdW  Elec       q    Type
REMARK                         _______ _______ _______ _____ _____    ______ ____
ROOT
ATOM      1  C   UNL     1       1.692   9.213  19.487  0.00  0.00    +0.000 C 
ATOM      2  C   UNL     1       2.079   7.821  19.034  0.00  0.00    +0.000 C 
ATOM      3  N   UNL     1       1.909   6.940  20.158  0.00  0.00    +0.000 N 
ATOM      4  C   UNL     1       2.376   5.639  20.272  0.00  0.00    +0.000 C 
ATOM      5  O   UNL     1       2.281   5.005  21.319  0.00  0.00    +0.000 OA
ATOM      6  C   UNL     1       1.072   7.552  21.175  0.00  0.00    +0.000 C 
ATOM      7  C   UNL     1       0.658   8.924  20.607  0.00  0.00    +0.000 C 
ENDROOT
BRANCH   1  13
ATOM      8  C   UNL     1       1.018  14.466  18.968  0.00  0.00    +0.000 C 
ATOM      9  O   UNL     1       1.952  15.165  18.558  0.00  0.00    +0.000 OA
ATOM     10  N   UNL     1       1.049  13.081  18.827  0.00  0.00    +0.000 N 
ATOM     11  C   UNL     1       2.347  12.502  18.494  0.00  0.00    +0.000 C 
ATOM     12  C   UNL     1       2.258  11.163  17.769  0.00  0.00    +0.000 C 
ATOM     13  C   UNL     1       1.237  10.147  18.322  0.00  0.00    +0.000 C 
ATOM     14  C   UNL     1      -0.080  10.883  18.638  0.00  0.00    +0.000 C 
ATOM     15  C   UNL     1       0.075  12.178  19.430  0.00  0.00    +0.000 C 
BRANCH   8  17
ATOM     16  C   UNL     1       0.151  15.480  21.079  0.00  0.00    +0.000 C 
ATOM     17  C   UNL     1      -0.194  15.132  19.627  0.00  0.00    +0.000 C 
ATOM     18  C   UNL     1      -0.609  16.397  18.876  0.00  0.00    +0.000 C 
ENDBRANCH   8  17
ENDBRANCH   1  13
BRANCH   4  19
ATOM     19  C   UNL     1       3.029   4.975  19.091  0.00  0.00    +0.000 A 
ATOM     20  C   UNL     1       4.420   5.063  18.947  0.00  0.00    +0.000 A 
ATOM     21  C   UNL     1       5.059   4.438  17.871  0.00  0.00    +0.000 A 
ATOM     22  C   UNL     1       4.320   3.737  16.919  0.00  0.00    +0.000 A 
ATOM     23  C   UNL     1       2.943   3.615  17.066  0.00  0.00    +0.000 A 
ATOM     24  C   UNL     1       2.314   4.198  18.168  0.00  0.00    +0.000 A 
ENDBRANCH   4  19
BRANCH   7  25
ATOM     25  C   UNL     1       0.636   9.994  21.698  0.00  0.00    +0.000 C 
BRANCH  25  26
ATOM     26  O   UNL     1       1.361   9.571  22.845  0.00  0.00    +0.000 OA
ATOM     27  H   UNL     1       1.004   8.710  23.123  0.00  0.00    +0.000 HD
ENDBRANCH  25  26
ENDBRANCH   7  25
TORSDOF 5
ENDMDL
