MODEL 1
REMARK VINA RESULT:      -7.6      0.000      0.000
REMARK  Name = 
REMARK  15 active torsions:
REMARK  status: ('A' for Active; 'I' for Inactive)
REMARK    1  A    between atoms: C_2  and  O_3
REMARK    2  A    between atoms: C_2  and  C_4
REMARK    3  A    between atoms: C_4  and  C_5
REMARK    4  A    between atoms: C_5  and  O_6
REMARK    5  A    between atoms: C_5  and  C_7
REMARK    6  A    between atoms: C_5  and  C_29
REMARK    7  A    between atoms: C_7  and  C_8
REMARK    8  A    between atoms: C_8  and  O_9
REMARK    9  A    between atoms: C_8  and  C_10
REMARK   10  A    between atoms: C_10  and  C_11
REMARK   11  A    between atoms: C_11  and  C_12
REMARK   12  A    between atoms: C_12  and  C_13
REMARK   13  A    between atoms: C_13  and  C_14
REMARK   14  A    between atoms: C_14  and  N_15
REMARK   15  A    between atoms: C_29  and  O_31
REMARK                            x       y       z     vdW  Elec       q    Type
REMARK                         _______ _______ _______ _____ _____    ______ ____
ROOT
ATOM      1  C   UNL     1       0.470  10.085  18.925  0.00  0.00    +0.000 C 
ENDROOT
BRANCH   1   2
ATOM      2  C   UNL     1       0.624  11.574  18.562  0.00  0.00    +0.000 C 
BRANCH   2   3
ATOM      3  C   UNL     1      -0.266  12.524  19.397  0.00  0.00    +0.000 C 
BRANCH   3   4
ATOM      4  O   UNL     1      -1.132  13.263  18.537  0.00  0.00    +0.000 OA
ATOM      5  H   UNL     1      -1.935  12.725  18.398  0.00  0.00    +0.000 HD
ENDBRANCH   3   4
BRANCH   3   6
ATOM      6  C   UNL     1      -1.146  11.767  20.407  0.00  0.00    +0.000 C 
BRANCH   6   7
ATOM      7  C   UNL     1      -0.779  11.933  21.903  0.00  0.00    +0.000 C 
BRANCH   7   8
ATOM      8  O   UNL     1       0.668  12.108  21.962  0.00  0.00    +0.000 OA
ATOM      9  H   UNL     1       0.896  12.591  22.784  0.00  0.00    +0.000 HD
ENDBRANCH   7   8
BRANCH   7  10
ATOM     10  C   UNL     1      -1.338  13.262  22.444  0.00  0.00    +0.000 C 
ATOM     11  O   UNL     1      -2.279  13.878  21.967  0.00  0.00    +0.000 OA
BRANCH  10  12
ATOM     12  O   UNL     1      -0.675  13.677  23.552  0.00  0.00    +0.000 OA
ATOM     13  H   UNL     1      -0.023  12.971  23.786  0.00  0.00    +0.000 HD
ENDBRANCH  10  12
ENDBRANCH   7  10
BRANCH   7  14
ATOM     14  C   UNL     1      -1.241  10.854  22.891  0.00  0.00    +0.000 C 
BRANCH  14  16
ATOM     15  O   UNL     1       0.639   9.673  23.783  0.00  0.00    +0.000 OA
ATOM     16  C   UNL     1      -0.297   9.693  22.995  0.00  0.00    +0.000 C 
BRANCH  16  17
ATOM     17  O   UNL     1      -0.595   8.654  22.189  0.00  0.00    +0.000 OA
ATOM     18  H   UNL     1      -0.731   8.906  21.251  0.00  0.00    +0.000 HD
ENDBRANCH  16  17
ENDBRANCH  14  16
ENDBRANCH   7  14
ENDBRANCH   6   7
ENDBRANCH   3   6
ENDBRANCH   2   3
ENDBRANCH   1   2
BRANCH   1  19
ATOM     19  C   UNL     1       0.923   9.086  17.851  0.00  0.00    +0.000 C 
BRANCH  19  20
ATOM     20  C   UNL     1       2.342   8.529  18.021  0.00  0.00    +0.000 C 
BRANCH  20  21
ATOM     21  C   UNL     1       2.438   7.490  19.142  0.00  0.00    +0.000 C 
BRANCH  21  22
ATOM     22  N   UNL     1       2.797   6.157  18.674  0.00  0.00    +0.000 N 
ATOM     23  C   UNL     1       2.196   4.975  19.078  0.00  0.00    +0.000 A 
ATOM     24  C   UNL     1       1.204   4.721  20.045  0.00  0.00    +0.000 A 
ATOM     25  C   UNL     1       0.775   3.395  20.220  0.00  0.00    +0.000 A 
ATOM     26  C   UNL     1       1.311   2.366  19.460  0.00  0.00    +0.000 A 
ATOM     27  C   UNL     1       2.295   2.630  18.501  0.00  0.00    +0.000 A 
ATOM     28  C   UNL     1       2.743   3.955  18.308  0.00  0.00    +0.000 A 
ATOM     29  C   UNL     1       3.705   4.541  17.426  0.00  0.00    +0.000 A 
ATOM     30  C   UNL     1       4.556   4.016  16.429  0.00  0.00    +0.000 A 
ATOM     31  C   UNL     1       5.392   4.880  15.721  0.00  0.00    +0.000 A 
ATOM     32 CL   UNL     1       6.437   4.243  14.508  0.00  0.00    +0.000 Cl
ATOM     33  C   UNL     1       5.397   6.245  15.979  0.00  0.00    +0.000 A 
ATOM     34  C   UNL     1       4.569   6.786  16.967  0.00  0.00    +0.000 A 
ATOM     35  C   UNL     1       3.725   5.913  17.676  0.00  0.00    +0.000 A 
ENDBRANCH  21  22
ENDBRANCH  20  21
ENDBRANCH  19  20
ENDBRANCH   1  19
TORSDOF 15
ENDMDL
MODEL 2
REMARK VINA RESULT:      -7.6      5.256      9.365
REMARK  Name = 
REMARK  15 active torsions:
REMARK  status: ('A' for Active; 'I' for Inactive)
REMARK    1  A    between atoms: C_2  and  O_3
REMARK    2  A    between atoms: C_2  and  C_4
REMARK    3  A    between atoms: C_4  and  C_5
REMARK    4  A    between atoms: C_5  and  O_6
REMARK    5  A    between atoms: C_5  and  C_7
REMARK    6  A    between atoms: C_5  and  C_29
REMARK    7  A    between atoms: C_7  and  C_8
REMARK    8  A    between atoms: C_8  and  O_9
REMARK    9  A    between atoms: C_8  and  C_10
REMARK   10  A    between atoms: C_10  and  C_11
REMARK   11  A    between atoms: C_11  and  C_12
REMARK   12  A    between atoms: C_12  and  C_13
REMARK   13  A    between atoms: C_13  and  C_14
REMARK   14  A    between atoms: C_14  and  N_15
REMARK   15  A    between atoms: C_29  and  O_31
REMARK                            x       y       z     vdW  Elec       q    Type
REMARK                         _______ _______ _______ _____ _____    ______ ____
ROOT
ATOM      1  C   UNL     1       2.947   7.955  17.910  0.00  0.00    +0.000 C 
ENDROOT
BRANCH   1   2
ATOM      2  C   UNL     1       2.563   6.525  18.332  0.00  0.00    +0.000 C 
BRANCH   2   3
ATOM      3  C   UNL     1       3.414   5.419  17.664  0.00  0.00    +0.000 C 
BRANCH   3   4
ATOM      4  O   UNL     1       4.381   6.005  16.793  0.00  0.00    +0.000 OA
ATOM      5  H   UNL     1       3.896   6.540  16.135  0.00  0.00    +0.000 HD
ENDBRANCH   3   4
BRANCH   3   6
ATOM      6  C   UNL     1       4.171   4.561  18.692  0.00  0.00    +0.000 C 
BRANCH   6   7
ATOM      7  C   UNL     1       3.341   3.489  19.443  0.00  0.00    +0.000 C 
BRANCH   7   8
ATOM      8  O   UNL     1       2.306   3.040  18.520  0.00  0.00    +0.000 OA
ATOM      9  H   UNL     1       1.807   3.820  18.197  0.00  0.00    +0.000 HD
ENDBRANCH   7   8
BRANCH   7  10
ATOM     10  C   UNL     1       4.194   2.232  19.689  0.00  0.00    +0.000 C 
ATOM     11  O   UNL     1       4.895   2.035  20.670  0.00  0.00    +0.000 OA
BRANCH  10  12
ATOM     12  O   UNL     1       4.063   1.326  18.688  0.00  0.00    +0.000 OA
ATOM     13  H   UNL     1       4.073   0.428  19.102  0.00  0.00    +0.000 HD
ENDBRANCH  10  12
ENDBRANCH   7  10
BRANCH   7  14
ATOM     14  C   UNL     1       2.739   3.857  20.805  0.00  0.00    +0.000 C 
BRANCH  14  16
ATOM     15  O   UNL     1       1.586   2.213  22.107  0.00  0.00    +0.000 OA
ATOM     16  C   UNL     1       1.556   3.017  21.184  0.00  0.00    +0.000 C 
BRANCH  16  17
ATOM     17  O   UNL     1       0.443   3.256  20.461  0.00  0.00    +0.000 OA
ATOM     18  H   UNL     1       0.017   2.446  20.109  0.00  0.00    +0.000 HD
ENDBRANCH  16  17
ENDBRANCH  14  16
ENDBRANCH   7  14
ENDBRANCH   6   7
ENDBRANCH   3   6
ENDBRANCH   2   3
ENDBRANCH   1   2
BRANCH   1  19
ATOM     19  C   UNL     1       1.776   8.891  17.582  0.00  0.00    +0.000 C 
BRANCH  19  20
ATOM     20  C   UNL     1       1.540  10.033  18.580  0.00  0.00    +0.000 C 
BRANCH  20  21
ATOM     21  C   UNL     1       0.416   9.727  19.573  0.00  0.00    +0.000 C 
BRANCH  21  22
ATOM     22  N   UNL     1      -0.724  10.629  19.461  0.00  0.00    +0.000 N 
ATOM     23  C   UNL     1      -1.663  10.614  18.441  0.00  0.00    +0.000 A 
ATOM     24  C   UNL     1      -1.740   9.850  17.261  0.00  0.00    +0.000 A 
ATOM     25  C   UNL     1      -2.843  10.050  16.415  0.00  0.00    +0.000 A 
ATOM     26  C   UNL     1      -3.829  10.973  16.733  0.00  0.00    +0.000 A 
ATOM     27  C   UNL     1      -3.742  11.726  17.909  0.00  0.00    +0.000 A 
ATOM     28  C   UNL     1      -2.642  11.543  18.775  0.00  0.00    +0.000 A 
ATOM     29  C   UNL     1      -2.275  12.137  20.024  0.00  0.00    +0.000 A 
ATOM     30  C   UNL     1      -2.871  13.117  20.847  0.00  0.00    +0.000 A 
ATOM     31  C   UNL     1      -2.246  13.478  22.041  0.00  0.00    +0.000 A 
ATOM     32 CL   UNL     1      -2.966  14.678  23.045  0.00  0.00    +0.000 Cl
ATOM     33  C   UNL     1      -1.051  12.885  22.433  0.00  0.00    +0.000 A 
ATOM     34  C   UNL     1      -0.439  11.918  21.630  0.00  0.00    +0.000 A 
ATOM     35  C   UNL     1      -1.073  11.555  20.429  0.00  0.00    +0.000 A 
ENDBRANCH  21  22
ENDBRANCH  20  21
ENDBRANCH  19  20
ENDBRANCH   1  19
TORSDOF 15
ENDMDL
MODEL 3
REMARK VINA RESULT:      -7.5      8.339     11.562
REMARK  Name = 
REMARK  15 active torsions:
REMARK  status: ('A' for Active; 'I' for Inactive)
REMARK    1  A    between atoms: C_2  and  O_3
REMARK    2  A    between atoms: C_2  and  C_4
REMARK    3  A    between atoms: C_4  and  C_5
REMARK    4  A    between atoms: C_5  and  O_6
REMARK    5  A    between atoms: C_5  and  C_7
REMARK    6  A    between atoms: C_5  and  C_29
REMARK    7  A    between atoms: C_7  and  C_8
REMARK    8  A    between atoms: C_8  and  O_9
REMARK    9  A    between atoms: C_8  and  C_10
REMARK   10  A    between atoms: C_10  and  C_11
REMARK   11  A    between atoms: C_11  and  C_12
REMARK   12  A    between atoms: C_12  and  C_13
REMARK   13  A    between atoms: C_13  and  C_14
REMARK   14  A    between atoms: C_14  and  N_15
REMARK   15  A    between atoms: C_29  and  O_31
REMARK                            x       y       z     vdW  Elec       q    Type
REMARK                         _______ _______ _______ _____ _____    ______ ____
ROOT
ATOM      1  C   UNL     1       7.830   8.411  17.786  0.00  0.00    +0.000 C 
ENDROOT
BRANCH   1   2
ATOM      2  C   UNL     1       8.243   7.225  18.677  0.00  0.00    +0.000 C 
BRANCH   2   3
ATOM      3  C   UNL     1       7.378   5.957  18.483  0.00  0.00    +0.000 C 
BRANCH   3   4
ATOM      4  O   UNL     1       7.024   5.409  19.753  0.00  0.00    +0.000 OA
ATOM      5  H   UNL     1       6.258   5.914  20.086  0.00  0.00    +0.000 HD
ENDBRANCH   3   4
BRANCH   3   6
ATOM      6  C   UNL     1       6.074   6.248  17.721  0.00  0.00    +0.000 C 
BRANCH   6   7
ATOM      7  C   UNL     1       5.548   5.119  16.799  0.00  0.00    +0.000 C 
BRANCH   7   8
ATOM      8  O   UNL     1       6.362   3.941  17.073  0.00  0.00    +0.000 OA
ATOM      9  H   UNL     1       5.775   3.208  17.355  0.00  0.00    +0.000 HD
ENDBRANCH   7   8
BRANCH   7  10
ATOM     10  C   UNL     1       4.129   4.700  17.226  0.00  0.00    +0.000 C 
ATOM     11  O   UNL     1       3.609   3.622  16.984  0.00  0.00    +0.000 OA
BRANCH  10  12
ATOM     12  O   UNL     1       3.508   5.671  17.942  0.00  0.00    +0.000 OA
ATOM     13  H   UNL     1       2.575   5.724  17.617  0.00  0.00    +0.000 HD
ENDBRANCH  10  12
ENDBRANCH   7  10
BRANCH   7  14
ATOM     14  C   UNL     1       5.465   5.389  15.291  0.00  0.00    +0.000 C 
BRANCH  14  16
ATOM     15  O   UNL     1       6.373   3.783  13.767  0.00  0.00    +0.000 OA
ATOM     16  C   UNL     1       6.566   4.741  14.505  0.00  0.00    +0.000 C 
BRANCH  16  17
ATOM     17  O   UNL     1       7.771   5.330  14.635  0.00  0.00    +0.000 OA
ATOM     18  H   UNL     1       8.259   5.426  13.790  0.00  0.00    +0.000 HD
ENDBRANCH  16  17
ENDBRANCH  14  16
ENDBRANCH   7  14
ENDBRANCH   6   7
ENDBRANCH   3   6
ENDBRANCH   2   3
ENDBRANCH   1   2
BRANCH   1  19
ATOM     19  C   UNL     1       8.608   9.715  18.008  0.00  0.00    +0.000 C 
BRANCH  19  20
ATOM     20  C   UNL     1       8.909  10.067  19.471  0.00  0.00    +0.000 C 
BRANCH  20  21
ATOM     21  C   UNL     1      10.298  10.683  19.657  0.00  0.00    +0.000 C 
BRANCH  21  22
ATOM     22  N   UNL     1      10.287  12.139  19.716  0.00  0.00    +0.000 N 
ATOM     23  C   UNL     1      10.666  12.988  18.688  0.00  0.00    +0.000 A 
ATOM     24  C   UNL     1      11.214  12.721  17.418  0.00  0.00    +0.000 A 
ATOM     25  C   UNL     1      11.482  13.809  16.571  0.00  0.00    +0.000 A 
ATOM     26  C   UNL     1      11.212  15.110  16.974  0.00  0.00    +0.000 A 
ATOM     27  C   UNL     1      10.667  15.363  18.237  0.00  0.00    +0.000 A 
ATOM     28  C   UNL     1      10.391  14.285  19.106  0.00  0.00    +0.000 A 
ATOM     29  C   UNL     1       9.840  14.212  20.424  0.00  0.00    +0.000 A 
ATOM     30  C   UNL     1       9.373  15.182  21.338  0.00  0.00    +0.000 A 
ATOM     31  C   UNL     1       8.874  14.771  22.575  0.00  0.00    +0.000 A 
ATOM     32 CL   UNL     1       8.308  15.951  23.694  0.00  0.00    +0.000 Cl
ATOM     33  C   UNL     1       8.827  13.424  22.917  0.00  0.00    +0.000 A 
ATOM     34  C   UNL     1       9.291  12.447  22.032  0.00  0.00    +0.000 A 
ATOM     35  C   UNL     1       9.790  12.866  20.785  0.00  0.00    +0.000 A 
ENDBRANCH  21  22
ENDBRANCH  20  21
ENDBRANCH  19  20
ENDBRANCH   1  19
TORSDOF 15
ENDMDL
MODEL 4
REMARK VINA RESULT:      -7.5      7.670     10.853
REMARK  Name = 
REMARK  15 active torsions:
REMARK  status: ('A' for Active; 'I' for Inactive)
REMARK    1  A    between atoms: C_2  and  O_3
REMARK    2  A    between atoms: C_2  and  C_4
REMARK    3  A    between atoms: C_4  and  C_5
REMARK    4  A    between atoms: C_5  and  O_6
REMARK    5  A    between atoms: C_5  and  C_7
REMARK    6  A    between atoms: C_5  and  C_29
REMARK    7  A    between atoms: C_7  and  C_8
REMARK    8  A    between atoms: C_8  and  O_9
REMARK    9  A    between atoms: C_8  and  C_10
REMARK   10  A    between atoms: C_10  and  C_11
REMARK   11  A    between atoms: C_11  and  C_12
REMARK   12  A    between atoms: C_12  and  C_13
REMARK   13  A    between atoms: C_13  and  C_14
REMARK   14  A    between atoms: C_14  and  N_15
REMARK   15  A    between atoms: C_29  and  O_31
REMARK                            x       y       z     vdW  Elec       q    Type
REMARK                         _______ _______ _______ _____ _____    ______ ____
ROOT
ATOM      1  C   UNL     1       7.882   7.422  18.095  0.00  0.00    +0.000 C 
ENDROOT
BRANCH   1   2
ATOM      2  C   UNL     1       7.522   6.463  16.946  0.00  0.00    +0.000 C 
BRANCH   2   3
ATOM      3  C   UNL     1       6.804   5.171  17.401  0.00  0.00    +0.000 C 
BRANCH   3   4
ATOM      4  O   UNL     1       7.695   4.362  18.169  0.00  0.00    +0.000 OA
ATOM      5  H   UNL     1       7.556   4.586  19.110  0.00  0.00    +0.000 HD
ENDBRANCH   3   4
BRANCH   3   6
ATOM      6  C   UNL     1       5.570   5.461  18.272  0.00  0.00    +0.000 C 
BRANCH   6   7
ATOM      7  C   UNL     1       4.415   4.432  18.197  0.00  0.00    +0.000 C 
BRANCH   7   8
ATOM      8  O   UNL     1       4.803   3.439  17.202  0.00  0.00    +0.000 OA
ATOM      9  H   UNL     1       5.349   3.875  16.515  0.00  0.00    +0.000 HD
ENDBRANCH   7   8
BRANCH   7  10
ATOM     10  C   UNL     1       4.330   3.631  19.510  0.00  0.00    +0.000 C 
ATOM     11  O   UNL     1       3.472   3.773  20.368  0.00  0.00    +0.000 OA
BRANCH  10  12
ATOM     12  O   UNL     1       5.319   2.708  19.606  0.00  0.00    +0.000 OA
ATOM     13  H   UNL     1       5.781   2.681  18.732  0.00  0.00    +0.000 HD
ENDBRANCH  10  12
ENDBRANCH   7  10
BRANCH   7  14
ATOM     14  C   UNL     1       2.994   4.948  17.932  0.00  0.00    +0.000 C 
BRANCH  14  16
ATOM     15  O   UNL     1       2.086   3.076  16.748  0.00  0.00    +0.000 OA
ATOM     16  C   UNL     1       1.996   3.855  17.688  0.00  0.00    +0.000 C 
BRANCH  16  17
ATOM     17  O   UNL     1       1.023   3.767  18.617  0.00  0.00    +0.000 OA
ATOM     18  H   UNL     1       0.976   2.894  19.061  0.00  0.00    +0.000 HD
ENDBRANCH  16  17
ENDBRANCH  14  16
ENDBRANCH   7  14
ENDBRANCH   6   7
ENDBRANCH   3   6
ENDBRANCH   2   3
ENDBRANCH   1   2
BRANCH   1  19
ATOM     19  C   UNL     1       7.563   8.904  17.853  0.00  0.00    +0.000 C 
BRANCH  19  20
ATOM     20  C   UNL     1       8.742   9.871  18.020  0.00  0.00    +0.000 C 
BRANCH  20  21
ATOM     21  C   UNL     1       9.245   9.944  19.464  0.00  0.00    +0.000 C 
BRANCH  21  22
ATOM     22  N   UNL     1       9.727  11.265  19.850  0.00  0.00    +0.000 N 
ATOM     23  C   UNL     1      10.562  12.068  19.089  0.00  0.00    +0.000 A 
ATOM     24  C   UNL     1      11.212  11.834  17.862  0.00  0.00    +0.000 A 
ATOM     25  C   UNL     1      11.993  12.867  17.318  0.00  0.00    +0.000 A 
ATOM     26  C   UNL     1      12.118  14.085  17.971  0.00  0.00    +0.000 A 
ATOM     27  C   UNL     1      11.467  14.308  19.189  0.00  0.00    +0.000 A 
ATOM     28  C   UNL     1      10.678  13.284  19.755  0.00  0.00    +0.000 A 
ATOM     29  C   UNL     1       9.898  13.201  20.952  0.00  0.00    +0.000 A 
ATOM     30  C   UNL     1       9.632  14.107  22.002  0.00  0.00    +0.000 A 
ATOM     31  C   UNL     1       8.798  13.711  23.050  0.00  0.00    +0.000 A 
ATOM     32 CL   UNL     1       8.476  14.811  24.336  0.00  0.00    +0.000 Cl
ATOM     33  C   UNL     1       8.227  12.445  23.072  0.00  0.00    +0.000 A 
ATOM     34  C   UNL     1       8.483  11.529  22.047  0.00  0.00    +0.000 A 
ATOM     35  C   UNL     1       9.320  11.933  20.992  0.00  0.00    +0.000 A 
ENDBRANCH  21  22
ENDBRANCH  20  21
ENDBRANCH  19  20
ENDBRANCH   1  19
TORSDOF 15
ENDMDL
MODEL 5
REMARK VINA RESULT:      -7.5      1.928      2.790
REMARK  Name = 
REMARK  15 active torsions:
REMARK  status: ('A' for Active; 'I' for Inactive)
REMARK    1  A    between atoms: C_2  and  O_3
REMARK    2  A    between atoms: C_2  and  C_4
REMARK    3  A    between atoms: C_4  and  C_5
REMARK    4  A    between atoms: C_5  and  O_6
REMARK    5  A    between atoms: C_5  and  C_7
REMARK    6  A    between atoms: C_5  and  C_29
REMARK    7  A    between atoms: C_7  and  C_8
REMARK    8  A    between atoms: C_8  and  O_9
REMARK    9  A    between atoms: C_8  and  C_10
REMARK   10  A    between atoms: C_10  and  C_11
REMARK   11  A    between atoms: C_11  and  C_12
REMARK   12  A    between atoms: C_12  and  C_13
REMARK   13  A    between atoms: C_13  and  C_14
REMARK   14  A    between atoms: C_14  and  N_15
REMARK   15  A    between atoms: C_29  and  O_31
REMARK                            x       y       z     vdW  Elec       q    Type
REMARK                         _______ _______ _______ _____ _____    ______ ____
ROOT
ATOM      1  C   UNL     1      -0.007  10.076  17.922  0.00  0.00    +0.000 C 
ENDROOT
BRANCH   1   2
ATOM      2  C   UNL     1      -1.100  10.606  18.868  0.00  0.00    +0.000 C 
BRANCH   2   3
ATOM      3  C   UNL     1      -1.117  12.145  19.016  0.00  0.00    +0.000 C 
BRANCH   3   4
ATOM      4  O   UNL     1      -2.461  12.625  18.982  0.00  0.00    +0.000 OA
ATOM      5  H   UNL     1      -3.033  11.875  18.727  0.00  0.00    +0.000 HD
ENDBRANCH   3   4
BRANCH   3   6
ATOM      6  C   UNL     1      -0.488  12.614  20.339  0.00  0.00    +0.000 C 
BRANCH   6   7
ATOM      7  C   UNL     1       0.735  13.559  20.225  0.00  0.00    +0.000 C 
BRANCH   7   8
ATOM      8  O   UNL     1       0.314  14.691  19.408  0.00  0.00    +0.000 OA
ATOM      9  H   UNL     1      -0.070  15.379  19.992  0.00  0.00    +0.000 HD
ENDBRANCH   7   8
BRANCH   7  10
ATOM     10  C   UNL     1       1.054  14.185  21.594  0.00  0.00    +0.000 C 
ATOM     11  O   UNL     1       2.176  14.374  22.040  0.00  0.00    +0.000 OA
BRANCH  10  12
ATOM     12  O   UNL     1      -0.071  14.538  22.265  0.00  0.00    +0.000 OA
ATOM     13  H   UNL     1      -0.015  15.510  22.440  0.00  0.00    +0.000 HD
ENDBRANCH  10  12
ENDBRANCH   7  10
BRANCH   7  14
ATOM     14  C   UNL     1       2.060  12.977  19.714  0.00  0.00    +0.000 C 
BRANCH  14  16
ATOM     15  O   UNL     1       2.963  14.680  18.295  0.00  0.00    +0.000 OA
ATOM     16  C   UNL     1       2.499  13.552  18.400  0.00  0.00    +0.000 C 
BRANCH  16  17
ATOM     17  O   UNL     1       2.391  12.707  17.354  0.00  0.00    +0.000 OA
ATOM     18  H   UNL     1       2.923  12.972  16.574  0.00  0.00    +0.000 HD
ENDBRANCH  16  17
ENDBRANCH  14  16
ENDBRANCH   7  14
ENDBRANCH   6   7
ENDBRANCH   3   6
ENDBRANCH   2   3
ENDBRANCH   1   2
BRANCH   1  19
ATOM     19  C   UNL     1       1.270   9.561  18.601  0.00  0.00    +0.000 C 
BRANCH  19  20
ATOM     20  C   UNL     1       1.830   8.243  18.047  0.00  0.00    +0.000 C 
BRANCH  20  21
ATOM     21  C   UNL     1       2.527   7.401  19.119  0.00  0.00    +0.000 C 
BRANCH  21  22
ATOM     22  N   UNL     1       2.898   6.067  18.665  0.00  0.00    +0.000 N 
ATOM     23  C   UNL     1       2.325   4.882  19.100  0.00  0.00    +0.000 A 
ATOM     24  C   UNL     1       1.359   4.627  20.092  0.00  0.00    +0.000 A 
ATOM     25  C   UNL     1       0.956   3.297  20.297  0.00  0.00    +0.000 A 
ATOM     26  C   UNL     1       1.493   2.265  19.542  0.00  0.00    +0.000 A 
ATOM     27  C   UNL     1       2.451   2.530  18.557  0.00  0.00    +0.000 A 
ATOM     28  C   UNL     1       2.873   3.858  18.334  0.00  0.00    +0.000 A 
ATOM     29  C   UNL     1       3.805   4.446  17.422  0.00  0.00    +0.000 A 
ATOM     30  C   UNL     1       4.643   3.919  16.415  0.00  0.00    +0.000 A 
ATOM     31  C   UNL     1       5.450   4.785  15.675  0.00  0.00    +0.000 A 
ATOM     32 CL   UNL     1       6.478   4.145  14.450  0.00  0.00    +0.000 Cl
ATOM     33  C   UNL     1       5.437   6.154  15.913  0.00  0.00    +0.000 A 
ATOM     34  C   UNL     1       4.621   6.697  16.909  0.00  0.00    +0.000 A 
ATOM     35  C   UNL     1       3.808   5.822  17.651  0.00  0.00    +0.000 A 
ENDBRANCH  21  22
ENDBRANCH  20  21
ENDBRANCH  19  20
ENDBRANCH   1  19
TORSDOF 15
ENDMDL
MODEL 6
REMARK VINA RESULT:      -7.5      0.977      1.389
REMARK  Name = 
REMARK  15 active torsions:
REMARK  status: ('A' for Active; 'I' for Inactive)
REMARK    1  A    between atoms: C_2  and  O_3
REMARK    2  A    between atoms: C_2  and  C_4
REMARK    3  A    between atoms: C_4  and  C_5
REMARK    4  A    between atoms: C_5  and  O_6
REMARK    5  A    between atoms: C_5  and  C_7
REMARK    6  A    between atoms: C_5  and  C_29
REMARK    7  A    between atoms: C_7  and  C_8
REMARK    8  A    between atoms: C_8  and  O_9
REMARK    9  A    between atoms: C_8  and  C_10
REMARK   10  A    between atoms: C_10  and  C_11
REMARK   11  A    between atoms: C_11  and  C_12
REMARK   12  A    between atoms: C_12  and  C_13
REMARK   13  A    between atoms: C_13  and  C_14
REMARK   14  A    between atoms: C_14  and  N_15
REMARK   15  A    between atoms: C_29  and  O_31
REMARK                            x       y       z     vdW  Elec       q    Type
REMARK                         _______ _______ _______ _____ _____    ______ ____
ROOT
ATOM      1  C   UNL     1       1.551   9.877  18.036  0.00  0.00    +0.000 C 
ENDROOT
BRANCH   1   2
ATOM      2  C   UNL     1       0.022   9.964  17.878  0.00  0.00    +0.000 C 
BRANCH   2   3
ATOM      3  C   UNL     1      -0.597  11.270  18.427  0.00  0.00    +0.000 C 
BRANCH   3   4
ATOM      4  O   UNL     1      -1.643  11.716  17.564  0.00  0.00    +0.000 OA
ATOM      5  H   UNL     1      -2.481  11.652  18.062  0.00  0.00    +0.000 HD
ENDBRANCH   3   4
BRANCH   3   6
ATOM      6  C   UNL     1      -1.198  11.089  19.832  0.00  0.00    +0.000 C 
BRANCH   6   7
ATOM      7  C   UNL     1      -0.264  11.404  21.028  0.00  0.00    +0.000 C 
BRANCH   7   8
ATOM      8  O   UNL     1       0.618  12.482  20.598  0.00  0.00    +0.000 OA
ATOM      9  H   UNL     1       0.557  13.218  21.243  0.00  0.00    +0.000 HD
ENDBRANCH   7   8
BRANCH   7  10
ATOM     10  C   UNL     1      -1.070  12.019  22.186  0.00  0.00    +0.000 C 
ATOM     11  O   UNL     1      -0.599  12.426  23.236  0.00  0.00    +0.000 OA
BRANCH  10  12
ATOM     12  O   UNL     1      -2.395  12.089  21.901  0.00  0.00    +0.000 OA
ATOM     13  H   UNL     1      -2.878  12.142  22.762  0.00  0.00    +0.000 HD
ENDBRANCH  10  12
ENDBRANCH   7  10
BRANCH   7  14
ATOM     14  C   UNL     1       0.540  10.253  21.647  0.00  0.00    +0.000 C 
BRANCH  14  16
ATOM     15  O   UNL     1      -0.750   8.236  21.651  0.00  0.00    +0.000 OA
ATOM     16  C   UNL     1      -0.317   9.195  22.278  0.00  0.00    +0.000 C 
BRANCH  16  17
ATOM     17  O   UNL     1      -0.527   9.358  23.599  0.00  0.00    +0.000 OA
ATOM     18  H   UNL     1       0.293   9.517  24.114  0.00  0.00    +0.000 HD
ENDBRANCH  16  17
ENDBRANCH  14  16
ENDBRANCH   7  14
ENDBRANCH   6   7
ENDBRANCH   3   6
ENDBRANCH   2   3
ENDBRANCH   1   2
BRANCH   1  19
ATOM     19  C   UNL     1       2.141   8.460  18.053  0.00  0.00    +0.000 C 
BRANCH  19  20
ATOM     20  C   UNL     1       1.956   7.680  19.362  0.00  0.00    +0.000 C 
BRANCH  20  21
ATOM     21  C   UNL     1       3.174   6.823  19.715  0.00  0.00    +0.000 C 
BRANCH  21  22
ATOM     22  N   UNL     1       3.293   5.616  18.907  0.00  0.00    +0.000 N 
ATOM     23  C   UNL     1       2.496   4.488  19.025  0.00  0.00    +0.000 A 
ATOM     24  C   UNL     1       1.480   4.161  19.944  0.00  0.00    +0.000 A 
ATOM     25  C   UNL     1       0.826   2.927  19.796  0.00  0.00    +0.000 A 
ATOM     26  C   UNL     1       1.172   2.055  18.774  0.00  0.00    +0.000 A 
ATOM     27  C   UNL     1       2.183   2.390  17.866  0.00  0.00    +0.000 A 
ATOM     28  C   UNL     1       2.854   3.625  17.995  0.00  0.00    +0.000 A 
ATOM     29  C   UNL     1       3.900   4.250  17.245  0.00  0.00    +0.000 A 
ATOM     30  C   UNL     1       4.642   3.866  16.106  0.00  0.00    +0.000 A 
ATOM     31  C   UNL     1       5.613   4.732  15.601  0.00  0.00    +0.000 A 
ATOM     32 CL   UNL     1       6.525   4.265  14.216  0.00  0.00    +0.000 Cl
ATOM     33  C   UNL     1       5.858   5.963  16.198  0.00  0.00    +0.000 A 
ATOM     34  C   UNL     1       5.140   6.360  17.330  0.00  0.00    +0.000 A 
ATOM     35  C   UNL     1       4.160   5.487  17.835  0.00  0.00    +0.000 A 
ENDBRANCH  21  22
ENDBRANCH  20  21
ENDBRANCH  19  20
ENDBRANCH   1  19
TORSDOF 15
ENDMDL
MODEL 7
REMARK VINA RESULT:      -7.5      1.214      1.754
REMARK  Name = 
REMARK  15 active torsions:
REMARK  status: ('A' for Active; 'I' for Inactive)
REMARK    1  A    between atoms: C_2  and  O_3
REMARK    2  A    between atoms: C_2  and  C_4
REMARK    3  A    between atoms: C_4  and  C_5
REMARK    4  A    between atoms: C_5  and  O_6
REMARK    5  A    between atoms: C_5  and  C_7
REMARK    6  A    between atoms: C_5  and  C_29
REMARK    7  A    between atoms: C_7  and  C_8
REMARK    8  A    between atoms: C_8  and  O_9
REMARK    9  A    between atoms: C_8  and  C_10
REMARK   10  A    between atoms: C_10  and  C_11
REMARK   11  A    between atoms: C_11  and  C_12
REMARK   12  A    between atoms: C_12  and  C_13
REMARK   13  A    between atoms: C_13  and  C_14
REMARK   14  A    between atoms: C_14  and  N_15
REMARK   15  A    between atoms: C_29  and  O_31
REMARK                            x       y       z     vdW  Elec       q    Type
REMARK                         _______ _______ _______ _____ _____    ______ ____
ROOT
ATOM      1  C   UNL     1      -0.028   9.791  19.270  0.00  0.00    +0.000 C 
ENDROOT
BRANCH   1   2
ATOM      2  C   UNL     1      -1.037  10.421  18.292  0.00  0.00    +0.000 C 
BRANCH   2   3
ATOM      3  C   UNL     1      -1.283  11.930  18.523  0.00  0.00    +0.000 C 
BRANCH   3   4
ATOM      4  O   UNL     1      -1.561  12.575  17.281  0.00  0.00    +0.000 OA
ATOM      5  H   UNL     1      -0.718  12.646  16.793  0.00  0.00    +0.000 HD
ENDBRANCH   3   4
BRANCH   3   6
ATOM      6  C   UNL     1      -2.473  12.193  19.462  0.00  0.00    +0.000 C 
BRANCH   6   7
ATOM      7  C   UNL     1      -2.185  13.052  20.719  0.00  0.00    +0.000 C 
BRANCH   7   8
ATOM      8  O   UNL     1      -0.830  13.569  20.570  0.00  0.00    +0.000 OA
ATOM      9  H   UNL     1      -0.835  14.286  19.901  0.00  0.00    +0.000 HD
ENDBRANCH   7   8
BRANCH   7  10
ATOM     10  C   UNL     1      -3.068  14.312  20.717  0.00  0.00    +0.000 C 
ATOM     11  O   UNL     1      -4.257  14.341  20.998  0.00  0.00    +0.000 OA
BRANCH  10  12
ATOM     12  O   UNL     1      -2.365  15.424  20.385  0.00  0.00    +0.000 OA
ATOM     13  H   UNL     1      -2.756  16.179  20.890  0.00  0.00    +0.000 HD
ENDBRANCH  10  12
ENDBRANCH   7  10
BRANCH   7  14
ATOM     14  C   UNL     1      -2.378  12.411  22.099  0.00  0.00    +0.000 C 
BRANCH  14  16
ATOM     15  O   UNL     1      -0.361  11.405  22.905  0.00  0.00    +0.000 OA
ATOM     16  C   UNL     1      -1.122  12.364  22.919  0.00  0.00    +0.000 C 
BRANCH  16  17
ATOM     17  O   UNL     1      -0.874  13.482  23.629  0.00  0.00    +0.000 OA
ATOM     18  H   UNL     1      -0.363  14.159  23.136  0.00  0.00    +0.000 HD
ENDBRANCH  16  17
ENDBRANCH  14  16
ENDBRANCH   7  14
ENDBRANCH   6   7
ENDBRANCH   3   6
ENDBRANCH   2   3
ENDBRANCH   1   2
BRANCH   1  19
ATOM     19  C   UNL     1       1.396   9.598  18.727  0.00  0.00    +0.000 C 
BRANCH  19  20
ATOM     20  C   UNL     1       1.717   8.195  18.193  0.00  0.00    +0.000 C 
BRANCH  20  21
ATOM     21  C   UNL     1       2.613   7.393  19.141  0.00  0.00    +0.000 C 
BRANCH  21  22
ATOM     22  N   UNL     1       2.929   6.056  18.655  0.00  0.00    +0.000 N 
ATOM     23  C   UNL     1       2.313   4.885  19.067  0.00  0.00    +0.000 A 
ATOM     24  C   UNL     1       1.342   4.646  20.058  0.00  0.00    +0.000 A 
ATOM     25  C   UNL     1       0.888   3.328  20.235  0.00  0.00    +0.000 A 
ATOM     26  C   UNL     1       1.381   2.293  19.454  0.00  0.00    +0.000 A 
ATOM     27  C   UNL     1       2.344   2.543  18.471  0.00  0.00    +0.000 A 
ATOM     28  C   UNL     1       2.816   3.858  18.275  0.00  0.00    +0.000 A 
ATOM     29  C   UNL     1       3.767   4.430  17.372  0.00  0.00    +0.000 A 
ATOM     30  C   UNL     1       4.579   3.893  16.349  0.00  0.00    +0.000 A 
ATOM     31  C   UNL     1       5.415   4.744  15.624  0.00  0.00    +0.000 A 
ATOM     32 CL   UNL     1       6.412   4.093  14.379  0.00  0.00    +0.000 Cl
ATOM     33  C   UNL     1       5.458   6.107  15.892  0.00  0.00    +0.000 A 
ATOM     34  C   UNL     1       4.668   6.659  16.905  0.00  0.00    +0.000 A 
ATOM     35  C   UNL     1       3.825   5.799  17.631  0.00  0.00    +0.000 A 
ENDBRANCH  21  22
ENDBRANCH  20  21
ENDBRANCH  19  20
ENDBRANCH   1  19
TORSDOF 15
ENDMDL
MODEL 8
REMARK VINA RESULT:      -7.4      7.694     10.877
REMARK  Name = 
REMARK  15 active torsions:
REMARK  status: ('A' for Active; 'I' for Inactive)
REMARK    1  A    between atoms: C_2  and  O_3
REMARK    2  A    between atoms: C_2  and  C_4
REMARK    3  A    between atoms: C_4  and  C_5
REMARK    4  A    between atoms: C_5  and  O_6
REMARK    5  A    between atoms: C_5  and  C_7
REMARK    6  A    between atoms: C_5  and  C_29
REMARK    7  A    between atoms: C_7  and  C_8
REMARK    8  A    between atoms: C_8  and  O_9
REMARK    9  A    between atoms: C_8  and  C_10
REMARK   10  A    between atoms: C_10  and  C_11
REMARK   11  A    between atoms: C_11  and  C_12
REMARK   12  A    between atoms: C_12  and  C_13
REMARK   13  A    between atoms: C_13  and  C_14
REMARK   14  A    between atoms: C_14  and  N_15
REMARK   15  A    between atoms: C_29  and  O_31
REMARK                            x       y       z     vdW  Elec       q    Type
REMARK                         _______ _______ _______ _____ _____    ______ ____
ROOT
ATOM      1  C   UNL     1       7.086   7.641  17.888  0.00  0.00    +0.000 C 
ENDROOT
BRANCH   1   2
ATOM      2  C   UNL     1       7.422   6.184  18.258  0.00  0.00    +0.000 C 
BRANCH   2   3
ATOM      3  C   UNL     1       7.341   5.196  17.071  0.00  0.00    +0.000 C 
BRANCH   3   4
ATOM      4  O   UNL     1       8.086   4.015  17.366  0.00  0.00    +0.000 OA
ATOM      5  H   UNL     1       8.318   3.595  16.516  0.00  0.00    +0.000 HD
ENDBRANCH   3   4
BRANCH   3   6
ATOM      6  C   UNL     1       5.896   4.770  16.760  0.00  0.00    +0.000 C 
BRANCH   6   7
ATOM      7  C   UNL     1       5.060   4.242  17.953  0.00  0.00    +0.000 C 
BRANCH   7   8
ATOM      8  O   UNL     1       6.011   3.806  18.969  0.00  0.00    +0.000 OA
ATOM      9  H   UNL     1       5.574   3.150  19.552  0.00  0.00    +0.000 HD
ENDBRANCH   7   8
BRANCH   7  10
ATOM     10  C   UNL     1       4.300   5.399  18.625  0.00  0.00    +0.000 C 
ATOM     11  O   UNL     1       3.630   6.237  18.040  0.00  0.00    +0.000 OA
BRANCH  10  12
ATOM     12  O   UNL     1       4.433   5.378  19.974  0.00  0.00    +0.000 OA
ATOM     13  H   UNL     1       4.205   6.282  20.306  0.00  0.00    +0.000 HD
ENDBRANCH  10  12
ENDBRANCH   7  10
BRANCH   7  14
ATOM     14  C   UNL     1       4.010   3.156  17.683  0.00  0.00    +0.000 C 
BRANCH  14  16
ATOM     15  O   UNL     1       3.632   2.424  19.930  0.00  0.00    +0.000 OA
ATOM     16  C   UNL     1       3.913   2.132  18.775  0.00  0.00    +0.000 C 
BRANCH  16  17
ATOM     17  O   UNL     1       4.107   0.860  18.371  0.00  0.00    +0.000 OA
ATOM     18  H   UNL     1       5.010   0.685  18.033  0.00  0.00    +0.000 HD
ENDBRANCH  16  17
ENDBRANCH  14  16
ENDBRANCH   7  14
ENDBRANCH   6   7
ENDBRANCH   3   6
ENDBRANCH   2   3
ENDBRANCH   1   2
BRANCH   1  19
ATOM     19  C   UNL     1       8.283   8.527  17.514  0.00  0.00    +0.000 C 
BRANCH  19  20
ATOM     20  C   UNL     1       8.321   9.908  18.183  0.00  0.00    +0.000 C 
BRANCH  20  21
ATOM     21  C   UNL     1       9.320   9.975  19.341  0.00  0.00    +0.000 C 
BRANCH  21  22
ATOM     22  N   UNL     1       9.727  11.332  19.684  0.00  0.00    +0.000 N 
ATOM     23  C   UNL     1      10.442  12.189  18.861  0.00  0.00    +0.000 A 
ATOM     24  C   UNL     1      11.019  11.990  17.591  0.00  0.00    +0.000 A 
ATOM     25  C   UNL     1      11.678  13.073  16.988  0.00  0.00    +0.000 A 
ATOM     26  C   UNL     1      11.757  14.304  17.623  0.00  0.00    +0.000 A 
ATOM     27  C   UNL     1      11.179  14.490  18.884  0.00  0.00    +0.000 A 
ATOM     28  C   UNL     1      10.512  13.416  19.511  0.00  0.00    +0.000 A 
ATOM     29  C   UNL     1       9.828  13.288  20.761  0.00  0.00    +0.000 A 
ATOM     30  C   UNL     1       9.568  14.182  21.823  0.00  0.00    +0.000 A 
ATOM     31  C   UNL     1       8.844  13.736  22.929  0.00  0.00    +0.000 A 
ATOM     32 CL   UNL     1       8.531  14.822  24.229  0.00  0.00    +0.000 Cl
ATOM     33  C   UNL     1       8.373  12.430  22.999  0.00  0.00    +0.000 A 
ATOM     34  C   UNL     1       8.624  11.526  21.963  0.00  0.00    +0.000 A 
ATOM     35  C   UNL     1       9.352  11.980  20.849  0.00  0.00    +0.000 A 
ENDBRANCH  21  22
ENDBRANCH  20  21
ENDBRANCH  19  20
ENDBRANCH   1  19
TORSDOF 15
ENDMDL
MODEL 9
REMARK VINA RESULT:      -7.4      8.469     11.308
REMARK  Name = 
REMARK  15 active torsions:
REMARK  status: ('A' for Active; 'I' for Inactive)
REMARK    1  A    between atoms: C_2  and  O_3
REMARK    2  A    between atoms: C_2  and  C_4
REMARK    3  A    between atoms: C_4  and  C_5
REMARK    4  A    between atoms: C_5  and  O_6
REMARK    5  A    between atoms: C_5  and  C_7
REMARK    6  A    between atoms: C_5  and  C_29
REMARK    7  A    between atoms: C_7  and  C_8
REMARK    8  A    between atoms: C_8  and  O_9
REMARK    9  A    between atoms: C_8  and  C_10
REMARK   10  A    between atoms: C_10  and  C_11
REMARK   11  A    between atoms: C_11  and  C_12
REMARK   12  A    between atoms: C_12  and  C_13
REMARK   13  A    between atoms: C_13  and  C_14
REMARK   14  A    between atoms: C_14  and  N_15
REMARK   15  A    between atoms: C_29  and  O_31
REMARK                            x       y       z     vdW  Elec       q    Type
REMARK                         _______ _______ _______ _____ _____    ______ ____
ROOT
ATOM      1  C   UNL     1       7.951   8.990  17.829  0.00  0.00    +0.000 C 
ENDROOT
BRANCH   1   2
ATOM      2  C   UNL     1       8.391   7.754  18.635  0.00  0.00    +0.000 C 
BRANCH   2   3
ATOM      3  C   UNL     1       7.797   6.421  18.123  0.00  0.00    +0.000 C 
BRANCH   3   4
ATOM      4  O   UNL     1       7.769   5.461  19.179  0.00  0.00    +0.000 OA
ATOM      5  H   UNL     1       8.522   4.853  19.042  0.00  0.00    +0.000 HD
ENDBRANCH   3   4
BRANCH   3   6
ATOM      6  C   UNL     1       6.359   6.582  17.601  0.00  0.00    +0.000 C 
BRANCH   6   7
ATOM      7  C   UNL     1       5.948   5.669  16.418  0.00  0.00    +0.000 C 
BRANCH   7   8
ATOM      8  O   UNL     1       5.438   6.546  15.371  0.00  0.00    +0.000 OA
ATOM      9  H   UNL     1       5.254   7.428  15.756  0.00  0.00    +0.000 HD
ENDBRANCH   7   8
BRANCH   7  10
ATOM     10  C   UNL     1       7.194   5.020  15.789  0.00  0.00    +0.000 C 
ATOM     11  O   UNL     1       7.724   5.375  14.747  0.00  0.00    +0.000 OA
BRANCH  10  12
ATOM     12  O   UNL     1       7.670   3.999  16.544  0.00  0.00    +0.000 OA
ATOM     13  H   UNL     1       8.421   3.591  16.046  0.00  0.00    +0.000 HD
ENDBRANCH  10  12
ENDBRANCH   7  10
BRANCH   7  14
ATOM     14  C   UNL     1       4.972   4.517  16.692  0.00  0.00    +0.000 C 
BRANCH  14  16
ATOM     15  O   UNL     1       3.663   4.755  18.681  0.00  0.00    +0.000 OA
ATOM     16  C   UNL     1       4.674   4.317  18.148  0.00  0.00    +0.000 C 
BRANCH  16  17
ATOM     17  O   UNL     1       5.583   3.573  18.809  0.00  0.00    +0.000 OA
ATOM     18  H   UNL     1       6.358   4.082  19.127  0.00  0.00    +0.000 HD
ENDBRANCH  16  17
ENDBRANCH  14  16
ENDBRANCH   7  14
ENDBRANCH   6   7
ENDBRANCH   3   6
ENDBRANCH   2   3
ENDBRANCH   1   2
BRANCH   1  19
ATOM     19  C   UNL     1       8.447  10.343  18.359  0.00  0.00    +0.000 C 
BRANCH  19  20
ATOM     20  C   UNL     1       9.823  10.792  17.846  0.00  0.00    +0.000 C 
BRANCH  20  21
ATOM     21  C   UNL     1      10.714  11.350  18.959  0.00  0.00    +0.000 C 
BRANCH  21  22
ATOM     22  N   UNL     1      10.311  12.671  19.423  0.00  0.00    +0.000 N 
ATOM     23  C   UNL     1       9.752  12.951  20.661  0.00  0.00    +0.000 A 
ATOM     24  C   UNL     1       9.357  12.104  21.714  0.00  0.00    +0.000 A 
ATOM     25  C   UNL     1       8.830  12.694  22.875  0.00  0.00    +0.000 A 
ATOM     26  C   UNL     1       8.704  14.072  22.981  0.00  0.00    +0.000 A 
ATOM     27  C   UNL     1       9.101  14.904  21.928  0.00  0.00    +0.000 A 
ATOM     28  C   UNL     1       9.632  14.333  20.752  0.00  0.00    +0.000 A 
ATOM     29  C   UNL     1      10.125  14.895  19.531  0.00  0.00    +0.000 A 
ATOM     30  C   UNL     1      10.260  16.218  19.055  0.00  0.00    +0.000 A 
ATOM     31  C   UNL     1      10.801  16.436  17.788  0.00  0.00    +0.000 A 
ATOM     32 CL   UNL     1      10.962  18.047  17.201  0.00  0.00    +0.000 Cl
ATOM     33  C   UNL     1      11.211  15.373  16.991  0.00  0.00    +0.000 A 
ATOM     34  C   UNL     1      11.079  14.056  17.438  0.00  0.00    +0.000 A 
ATOM     35  C   UNL     1      10.536  13.840  18.717  0.00  0.00    +0.000 A 
ENDBRANCH  21  22
ENDBRANCH  20  21
ENDBRANCH  19  20
ENDBRANCH   1  19
TORSDOF 15
ENDMDL
