MODEL 1
REMARK VINA RESULT:      -8.3      0.000      0.000
REMARK  Name = 
REMARK  4 active torsions:
REMARK  status: ('A' for Active; 'I' for Inactive)
REMARK    1  A    between atoms: C_1  and  N_2
REMARK    2  A    between atoms: C_6  and  C_7
REMARK    3  A    between atoms: C_13  and  N_14
REMARK    4  A    between atoms: C_15  and  C_17
REMARK                            x       y       z     vdW  Elec       q    Type
REMARK                         _______ _______ _______ _____ _____    ______ ____
ROOT
ATOM      1  C   UNL     1       6.704   4.871  16.337  0.00  0.00    +0.000 A 
ATOM      2  C   UNL     1       7.374   5.108  15.123  0.00  0.00    +0.000 A 
ATOM      3  C   UNL     1       6.823   4.723  13.901  0.00  0.00    +0.000 A 
ATOM      4 BR   UNL     1       7.741   5.126  12.298  0.00  0.00    +0.000 Br
ATOM      5  C   UNL     1       5.610   4.050  13.855  0.00  0.00    +0.000 A 
ATOM      6  C   UNL     1       4.948   3.757  15.045  0.00  0.00    +0.000 A 
ATOM      7  C   UNL     1       5.480   4.167  16.277  0.00  0.00    +0.000 A 
ENDROOT
BRANCH   1  13
ATOM      8  C   UNL     1       7.415   7.853  17.326  0.00  0.00    +0.000 C 
ATOM      9  N   UNL     1       7.614   6.597  17.995  0.00  0.00    +0.000 N 
ATOM     10  N   UNL     1       8.200   6.591  19.204  0.00  0.00    +0.000 NA
ATOM     11  N   UNL     1       8.221   5.321  19.571  0.00  0.00    +0.000 NA
ATOM     12  N   UNL     1       7.677   4.520  18.604  0.00  0.00    +0.000 NA
ATOM     13  C   UNL     1       7.304   5.308  17.608  0.00  0.00    +0.000 A 
ENDBRANCH   1  13
BRANCH   7  14
ATOM     14  N   UNL     1       4.757   3.777  17.421  0.00  0.00    +0.000 N 
ATOM     15  C   UNL     1       3.777   4.578  17.979  0.00  0.00    +0.000 C 
ATOM     16  O   UNL     1       3.525   5.714  17.592  0.00  0.00    +0.000 OA
ATOM     17  H   UNL     1       4.955   2.863  17.801  0.00  0.00    +0.000 HD
BRANCH  15  18
ATOM     18  C   UNL     1       3.003   3.996  19.119  0.00  0.00    +0.000 A 
ATOM     19  C   UNL     1       1.631   4.274  19.190  0.00  0.00    +0.000 A 
ATOM     20  C   UNL     1       0.847   3.738  20.215  0.00  0.00    +0.000 A 
ATOM     21  C   UNL     1       1.425   2.909  21.173  0.00  0.00    +0.000 A 
ATOM     22  C   UNL     1       2.788   2.613  21.106  0.00  0.00    +0.000 A 
ATOM     23  C   UNL     1       3.577   3.150  20.080  0.00  0.00    +0.000 A 
ENDBRANCH  15  18
ENDBRANCH   7  14
TORSDOF 3
ENDMDL
MODEL 2
REMARK VINA RESULT:      -8.3      0.088      1.032
REMARK  Name = 
REMARK  4 active torsions:
REMARK  status: ('A' for Active; 'I' for Inactive)
REMARK    1  A    between atoms: C_1  and  N_2
REMARK    2  A    between atoms: C_6  and  C_7
REMARK    3  A    between atoms: C_13  and  N_14
REMARK    4  A    between atoms: C_15  and  C_17
REMARK                            x       y       z     vdW  Elec       q    Type
REMARK                         _______ _______ _______ _____ _____    ______ ____
ROOT
ATOM      1  C   UNL     1       6.699   4.857  16.325  0.00  0.00    +0.000 A 
ATOM      2  C   UNL     1       7.382   5.103  15.121  0.00  0.00    +0.000 A 
ATOM      3  C   UNL     1       6.844   4.731  13.889  0.00  0.00    +0.000 A 
ATOM      4 BR   UNL     1       7.781   5.145  12.300  0.00  0.00    +0.000 Br
ATOM      5  C   UNL     1       5.631   4.061  13.824  0.00  0.00    +0.000 A 
ATOM      6  C   UNL     1       4.954   3.759  15.004  0.00  0.00    +0.000 A 
ATOM      7  C   UNL     1       5.474   4.157  16.245  0.00  0.00    +0.000 A 
ENDROOT
BRANCH   1  13
ATOM      8  C   UNL     1       7.369   7.831  17.364  0.00  0.00    +0.000 C 
ATOM      9  N   UNL     1       7.578   6.567  18.016  0.00  0.00    +0.000 N 
ATOM     10  N   UNL     1       8.157   6.549  19.228  0.00  0.00    +0.000 NA
ATOM     11  N   UNL     1       8.190   5.274  19.576  0.00  0.00    +0.000 NA
ATOM     12  N   UNL     1       7.661   4.482  18.593  0.00  0.00    +0.000 NA
ATOM     13  C   UNL     1       7.285   5.280  17.606  0.00  0.00    +0.000 A 
ENDBRANCH   1  13
BRANCH   7  14
ATOM     14  N   UNL     1       4.737   3.758  17.378  0.00  0.00    +0.000 N 
ATOM     15  C   UNL     1       3.758   4.559  17.936  0.00  0.00    +0.000 C 
ATOM     16  O   UNL     1       3.517   5.701  17.560  0.00  0.00    +0.000 OA
ATOM     17  H   UNL     1       4.925   2.838  17.748  0.00  0.00    +0.000 HD
BRANCH  15  18
ATOM     18  C   UNL     1       2.969   3.969  19.062  0.00  0.00    +0.000 A 
ATOM     19  C   UNL     1       3.643   3.149  19.976  0.00  0.00    +0.000 A 
ATOM     20  C   UNL     1       2.969   2.589  21.065  0.00  0.00    +0.000 A 
ATOM     21  C   UNL     1       1.615   2.854  21.255  0.00  0.00    +0.000 A 
ATOM     22  C   UNL     1       0.935   3.681  20.359  0.00  0.00    +0.000 A 
ATOM     23  C   UNL     1       1.608   4.242  19.267  0.00  0.00    +0.000 A 
ENDBRANCH  15  18
ENDBRANCH   7  14
TORSDOF 3
ENDMDL
MODEL 3
REMARK VINA RESULT:      -7.9      3.555      5.139
REMARK  Name = 
REMARK  4 active torsions:
REMARK  status: ('A' for Active; 'I' for Inactive)
REMARK    1  A    between atoms: C_1  and  N_2
REMARK    2  A    between atoms: C_6  and  C_7
REMARK    3  A    between atoms: C_13  and  N_14
REMARK    4  A    between atoms: C_15  and  C_17
REMARK                            x       y       z     vdW  Elec       q    Type
REMARK                         _______ _______ _______ _____ _____    ______ ____
ROOT
ATOM      1  C   UNL     1       3.622   4.685  17.434  0.00  0.00    +0.000 A 
ATOM      2  C   UNL     1       4.361   4.122  16.377  0.00  0.00    +0.000 A 
ATOM      3  C   UNL     1       5.311   4.866  15.677  0.00  0.00    +0.000 A 
ATOM      4 BR   UNL     1       6.317   4.036  14.308  0.00  0.00    +0.000 Br
ATOM      5  C   UNL     1       5.521   6.204  15.978  0.00  0.00    +0.000 A 
ATOM      6  C   UNL     1       4.769   6.802  16.986  0.00  0.00    +0.000 A 
ATOM      7  C   UNL     1       3.833   6.054  17.717  0.00  0.00    +0.000 A 
ENDROOT
BRANCH   1  13
ATOM      8  C   UNL     1       4.107   2.626  19.863  0.00  0.00    +0.000 C 
ATOM      9  N   UNL     1       2.884   2.978  19.194  0.00  0.00    +0.000 N 
ATOM     10  N   UNL     1       1.742   2.379  19.570  0.00  0.00    +0.000 NA
ATOM     11  N   UNL     1       0.804   2.916  18.809  0.00  0.00    +0.000 NA
ATOM     12  N   UNL     1       1.337   3.830  17.941  0.00  0.00    +0.000 NA
ATOM     13  C   UNL     1       2.641   3.868  18.166  0.00  0.00    +0.000 A 
ENDBRANCH   1  13
BRANCH   7  14
ATOM     14  N   UNL     1       3.091   6.766  18.679  0.00  0.00    +0.000 N 
ATOM     15  C   UNL     1       2.413   7.931  18.370  0.00  0.00    +0.000 C 
ATOM     16  O   UNL     1       2.477   8.485  17.277  0.00  0.00    +0.000 OA
ATOM     17  H   UNL     1       3.038   6.368  19.606  0.00  0.00    +0.000 HD
BRANCH  15  18
ATOM     18  C   UNL     1       1.566   8.523  19.452  0.00  0.00    +0.000 A 
ATOM     19  C   UNL     1       0.793   9.649  19.137  0.00  0.00    +0.000 A 
ATOM     20  C   UNL     1      -0.040  10.233  20.095  0.00  0.00    +0.000 A 
ATOM     21  C   UNL     1      -0.115   9.689  21.375  0.00  0.00    +0.000 A 
ATOM     22  C   UNL     1       0.639   8.559  21.697  0.00  0.00    +0.000 A 
ATOM     23  C   UNL     1       1.475   7.973  20.738  0.00  0.00    +0.000 A 
ENDBRANCH  15  18
ENDBRANCH   7  14
TORSDOF 3
ENDMDL
MODEL 4
REMARK VINA RESULT:      -7.9      3.578      5.244
REMARK  Name = 
REMARK  4 active torsions:
REMARK  status: ('A' for Active; 'I' for Inactive)
REMARK    1  A    between atoms: C_1  and  N_2
REMARK    2  A    between atoms: C_6  and  C_7
REMARK    3  A    between atoms: C_13  and  N_14
REMARK    4  A    between atoms: C_15  and  C_17
REMARK                            x       y       z     vdW  Elec       q    Type
REMARK                         _______ _______ _______ _____ _____    ______ ____
ROOT
ATOM      1  C   UNL     1       3.578   4.687  17.463  0.00  0.00    +0.000 A 
ATOM      2  C   UNL     1       4.338   4.119  16.424  0.00  0.00    +0.000 A 
ATOM      3  C   UNL     1       5.280   4.868  15.718  0.00  0.00    +0.000 A 
ATOM      4 BR   UNL     1       6.316   4.033  14.375  0.00  0.00    +0.000 Br
ATOM      5  C   UNL     1       5.459   6.216  15.995  0.00  0.00    +0.000 A 
ATOM      6  C   UNL     1       4.686   6.818  16.985  0.00  0.00    +0.000 A 
ATOM      7  C   UNL     1       3.758   6.065  17.721  0.00  0.00    +0.000 A 
ENDROOT
BRANCH   1  13
ATOM      8  C   UNL     1       4.092   2.625  19.884  0.00  0.00    +0.000 C 
ATOM      9  N   UNL     1       2.863   2.974  19.225  0.00  0.00    +0.000 N 
ATOM     10  N   UNL     1       1.726   2.368  19.610  0.00  0.00    +0.000 NA
ATOM     11  N   UNL     1       0.779   2.902  18.858  0.00  0.00    +0.000 NA
ATOM     12  N   UNL     1       1.302   3.820  17.987  0.00  0.00    +0.000 NA
ATOM     13  C   UNL     1       2.607   3.864  18.201  0.00  0.00    +0.000 A 
ENDBRANCH   1  13
BRANCH   7  14
ATOM     14  N   UNL     1       2.992   6.780  18.662  0.00  0.00    +0.000 N 
ATOM     15  C   UNL     1       2.369   7.974  18.348  0.00  0.00    +0.000 C 
ATOM     16  O   UNL     1       2.506   8.550  17.274  0.00  0.00    +0.000 OA
ATOM     17  H   UNL     1       2.880   6.364  19.576  0.00  0.00    +0.000 HD
BRANCH  15  18
ATOM     18  C   UNL     1       1.489   8.570  19.401  0.00  0.00    +0.000 A 
ATOM     19  C   UNL     1       1.542   8.019  20.688  0.00  0.00    +0.000 A 
ATOM     20  C   UNL     1       0.765   8.548  21.722  0.00  0.00    +0.000 A 
ATOM     21  C   UNL     1      -0.064   9.640  21.481  0.00  0.00    +0.000 A 
ATOM     22  C   UNL     1      -0.115  10.207  20.206  0.00  0.00    +0.000 A 
ATOM     23  C   UNL     1       0.662   9.678  19.168  0.00  0.00    +0.000 A 
ENDBRANCH  15  18
ENDBRANCH   7  14
TORSDOF 3
ENDMDL
MODEL 5
REMARK VINA RESULT:      -7.2      4.203      5.730
REMARK  Name = 
REMARK  4 active torsions:
REMARK  status: ('A' for Active; 'I' for Inactive)
REMARK    1  A    between atoms: C_1  and  N_2
REMARK    2  A    between atoms: C_6  and  C_7
REMARK    3  A    between atoms: C_13  and  N_14
REMARK    4  A    between atoms: C_15  and  C_17
REMARK                            x       y       z     vdW  Elec       q    Type
REMARK                         _______ _______ _______ _____ _____    ______ ____
ROOT
ATOM      1  C   UNL     1       3.320   4.884  18.863  0.00  0.00    +0.000 A 
ATOM      2  C   UNL     1       3.967   4.185  17.827  0.00  0.00    +0.000 A 
ATOM      3  C   UNL     1       4.654   4.856  16.815  0.00  0.00    +0.000 A 
ATOM      4 BR   UNL     1       5.557   3.860  15.486  0.00  0.00    +0.000 Br
ATOM      5  C   UNL     1       4.677   6.242  16.778  0.00  0.00    +0.000 A 
ATOM      6  C   UNL     1       4.003   6.962  17.762  0.00  0.00    +0.000 A 
ATOM      7  C   UNL     1       3.336   6.296  18.802  0.00  0.00    +0.000 A 
ENDROOT
BRANCH   1  13
ATOM      8  C   UNL     1       0.979   2.686  18.606  0.00  0.00    +0.000 C 
ATOM      9  N   UNL     1       1.606   3.220  19.784  0.00  0.00    +0.000 N 
ATOM     10  N   UNL     1       1.184   2.803  20.990  0.00  0.00    +0.000 NA
ATOM     11  N   UNL     1       1.950   3.437  21.861  0.00  0.00    +0.000 NA
ATOM     12  N   UNL     1       2.836   4.265  21.227  0.00  0.00    +0.000 NA
ATOM     13  C   UNL     1       2.621   4.146  19.926  0.00  0.00    +0.000 A 
ENDBRANCH   1  13
BRANCH   7  14
ATOM     14  N   UNL     1       2.645   7.115  19.716  0.00  0.00    +0.000 N 
ATOM     15  C   UNL     1       1.851   8.169  19.302  0.00  0.00    +0.000 C 
ATOM     16  O   UNL     1       1.758   8.534  18.135  0.00  0.00    +0.000 OA
ATOM     17  H   UNL     1       2.719   6.878  20.694  0.00  0.00    +0.000 HD
BRANCH  15  18
ATOM     18  C   UNL     1       1.078   8.885  20.365  0.00  0.00    +0.000 A 
ATOM     19  C   UNL     1       0.216   9.916  19.966  0.00  0.00    +0.000 A 
ATOM     20  C   UNL     1      -0.555  10.604  20.907  0.00  0.00    +0.000 A 
ATOM     21  C   UNL     1      -0.478  10.261  22.255  0.00  0.00    +0.000 A 
ATOM     22  C   UNL     1       0.365   9.226  22.662  0.00  0.00    +0.000 A 
ATOM     23  C   UNL     1       1.140   8.535  21.721  0.00  0.00    +0.000 A 
ENDBRANCH  15  18
ENDBRANCH   7  14
TORSDOF 3
ENDMDL
MODEL 6
REMARK VINA RESULT:      -7.2      4.095      5.666
REMARK  Name = 
REMARK  4 active torsions:
REMARK  status: ('A' for Active; 'I' for Inactive)
REMARK    1  A    between atoms: C_1  and  N_2
REMARK    2  A    between atoms: C_6  and  C_7
REMARK    3  A    between atoms: C_13  and  N_14
REMARK    4  A    between atoms: C_15  and  C_17
REMARK                            x       y       z     vdW  Elec       q    Type
REMARK                         _______ _______ _______ _____ _____    ______ ____
ROOT
ATOM      1  C   UNL     1       3.441   4.987  18.542  0.00  0.00    +0.000 A 
ATOM      2  C   UNL     1       4.136   4.289  17.538  0.00  0.00    +0.000 A 
ATOM      3  C   UNL     1       4.862   4.960  16.554  0.00  0.00    +0.000 A 
ATOM      4 BR   UNL     1       5.827   3.966  15.268  0.00  0.00    +0.000 Br
ATOM      5  C   UNL     1       4.879   6.347  16.514  0.00  0.00    +0.000 A 
ATOM      6  C   UNL     1       4.160   7.066  17.466  0.00  0.00    +0.000 A 
ATOM      7  C   UNL     1       3.452   6.399  18.478  0.00  0.00    +0.000 A 
ENDROOT
BRANCH   1  13
ATOM      8  C   UNL     1       1.644   2.330  18.245  0.00  0.00    +0.000 C 
ATOM      9  N   UNL     1       1.923   3.119  19.414  0.00  0.00    +0.000 N 
ATOM     10  N   UNL     1       1.362   2.767  20.583  0.00  0.00    +0.000 NA
ATOM     11  N   UNL     1       1.816   3.645  21.461  0.00  0.00    +0.000 NA
ATOM     12  N   UNL     1       2.637   4.562  20.862  0.00  0.00    +0.000 NA
ATOM     13  C   UNL     1       2.701   4.248  19.577  0.00  0.00    +0.000 A 
ENDBRANCH   1  13
BRANCH   7  14
ATOM     14  N   UNL     1       2.718   7.217  19.358  0.00  0.00    +0.000 N 
ATOM     15  C   UNL     1       1.892   8.229  18.904  0.00  0.00    +0.000 C 
ATOM     16  O   UNL     1       1.803   8.557  17.726  0.00  0.00    +0.000 OA
ATOM     17  H   UNL     1       2.787   7.010  20.344  0.00  0.00    +0.000 HD
BRANCH  15  18
ATOM     18  C   UNL     1       1.077   8.944  19.935  0.00  0.00    +0.000 A 
ATOM     19  C   UNL     1       1.200   8.533  21.269  0.00  0.00    +0.000 A 
ATOM     20  C   UNL     1       0.487   9.178  22.283  0.00  0.00    +0.000 A 
ATOM     21  C   UNL     1      -0.348  10.249  21.973  0.00  0.00    +0.000 A 
ATOM     22  C   UNL     1      -0.468  10.678  20.650  0.00  0.00    +0.000 A 
ATOM     23  C   UNL     1       0.245  10.031  19.632  0.00  0.00    +0.000 A 
ENDBRANCH  15  18
ENDBRANCH   7  14
TORSDOF 3
ENDMDL
MODEL 7
REMARK VINA RESULT:      -7.2      3.311      4.604
REMARK  Name = 
REMARK  4 active torsions:
REMARK  status: ('A' for Active; 'I' for Inactive)
REMARK    1  A    between atoms: C_1  and  N_2
REMARK    2  A    between atoms: C_6  and  C_7
REMARK    3  A    between atoms: C_13  and  N_14
REMARK    4  A    between atoms: C_15  and  C_17
REMARK                            x       y       z     vdW  Elec       q    Type
REMARK                         _______ _______ _______ _____ _____    ______ ____
ROOT
ATOM      1  C   UNL     1       4.385   4.611  17.539  0.00  0.00    +0.000 A 
ATOM      2  C   UNL     1       5.040   4.051  16.427  0.00  0.00    +0.000 A 
ATOM      3  C   UNL     1       5.520   4.848  15.387  0.00  0.00    +0.000 A 
ATOM      4 BR   UNL     1       6.448   4.043  13.950  0.00  0.00    +0.000 Br
ATOM      5  C   UNL     1       5.323   6.221  15.403  0.00  0.00    +0.000 A 
ATOM      6  C   UNL     1       4.634   6.799  16.467  0.00  0.00    +0.000 A 
ATOM      7  C   UNL     1       4.174   6.009  17.532  0.00  0.00    +0.000 A 
ENDROOT
BRANCH   1  13
ATOM      8  C   UNL     1       1.379   3.671  18.213  0.00  0.00    +0.000 C 
ATOM      9  N   UNL     1       2.606   3.374  18.901  0.00  0.00    +0.000 N 
ATOM     10  N   UNL     1       2.561   2.618  20.012  0.00  0.00    +0.000 NA
ATOM     11  N   UNL     1       3.819   2.497  20.397  0.00  0.00    +0.000 NA
ATOM     12  N   UNL     1       4.659   3.182  19.561  0.00  0.00    +0.000 NA
ATOM     13  C   UNL     1       3.908   3.744  18.627  0.00  0.00    +0.000 A 
ENDBRANCH   1  13
BRANCH   7  14
ATOM     14  N   UNL     1       3.447   6.684  18.531  0.00  0.00    +0.000 N 
ATOM     15  C   UNL     1       2.646   7.774  18.246  0.00  0.00    +0.000 C 
ATOM     16  O   UNL     1       2.576   8.297  17.139  0.00  0.00    +0.000 OA
ATOM     17  H   UNL     1       3.500   6.313  19.469  0.00  0.00    +0.000 HD
BRANCH  15  18
ATOM     18  C   UNL     1       1.834   8.325  19.376  0.00  0.00    +0.000 A 
ATOM     19  C   UNL     1       1.109   9.503  19.149  0.00  0.00    +0.000 A 
ATOM     20  C   UNL     1       0.310  10.053  20.155  0.00  0.00    +0.000 A 
ATOM     21  C   UNL     1       0.220   9.424  21.395  0.00  0.00    +0.000 A 
ATOM     22  C   UNL     1       0.927   8.243  21.629  0.00  0.00    +0.000 A 
ATOM     23  C   UNL     1       1.729   7.690  20.622  0.00  0.00    +0.000 A 
ENDBRANCH  15  18
ENDBRANCH   7  14
TORSDOF 3
ENDMDL
MODEL 8
REMARK VINA RESULT:      -7.1      3.308      4.680
REMARK  Name = 
REMARK  4 active torsions:
REMARK  status: ('A' for Active; 'I' for Inactive)
REMARK    1  A    between atoms: C_1  and  N_2
REMARK    2  A    between atoms: C_6  and  C_7
REMARK    3  A    between atoms: C_13  and  N_14
REMARK    4  A    between atoms: C_15  and  C_17
REMARK                            x       y       z     vdW  Elec       q    Type
REMARK                         _______ _______ _______ _____ _____    ______ ____
ROOT
ATOM      1  C   UNL     1       4.383   4.637  17.541  0.00  0.00    +0.000 A 
ATOM      2  C   UNL     1       5.049   4.068  16.440  0.00  0.00    +0.000 A 
ATOM      3  C   UNL     1       5.531   4.857  15.395  0.00  0.00    +0.000 A 
ATOM      4 BR   UNL     1       6.473   4.042  13.973  0.00  0.00    +0.000 Br
ATOM      5  C   UNL     1       5.324   6.229  15.393  0.00  0.00    +0.000 A 
ATOM      6  C   UNL     1       4.625   6.814  16.446  0.00  0.00    +0.000 A 
ATOM      7  C   UNL     1       4.162   6.033  17.517  0.00  0.00    +0.000 A 
ENDROOT
BRANCH   1  13
ATOM      8  C   UNL     1       1.374   3.710  18.224  0.00  0.00    +0.000 C 
ATOM      9  N   UNL     1       2.601   3.414  18.913  0.00  0.00    +0.000 N 
ATOM     10  N   UNL     1       2.554   2.667  20.029  0.00  0.00    +0.000 NA
ATOM     11  N   UNL     1       3.812   2.544  20.415  0.00  0.00    +0.000 NA
ATOM     12  N   UNL     1       4.653   3.221  19.574  0.00  0.00    +0.000 NA
ATOM     13  C   UNL     1       3.904   3.779  18.636  0.00  0.00    +0.000 A 
ENDBRANCH   1  13
BRANCH   7  14
ATOM     14  N   UNL     1       3.424   6.714  18.504  0.00  0.00    +0.000 N 
ATOM     15  C   UNL     1       2.620   7.798  18.202  0.00  0.00    +0.000 C 
ATOM     16  O   UNL     1       2.557   8.309  17.088  0.00  0.00    +0.000 OA
ATOM     17  H   UNL     1       3.472   6.354  19.446  0.00  0.00    +0.000 HD
BRANCH  15  18
ATOM     18  C   UNL     1       1.797   8.356  19.320  0.00  0.00    +0.000 A 
ATOM     19  C   UNL     1       1.769   7.649  20.529  0.00  0.00    +0.000 A 
ATOM     20  C   UNL     1       1.041   8.131  21.620  0.00  0.00    +0.000 A 
ATOM     21  C   UNL     1       0.343   9.332  21.515  0.00  0.00    +0.000 A 
ATOM     22  C   UNL     1       0.375  10.053  20.320  0.00  0.00    +0.000 A 
ATOM     23  C   UNL     1       1.102   9.571  19.224  0.00  0.00    +0.000 A 
ENDBRANCH  15  18
ENDBRANCH   7  14
TORSDOF 3
ENDMDL
MODEL 9
REMARK VINA RESULT:      -7.0      2.871      6.093
REMARK  Name = 
REMARK  4 active torsions:
REMARK  status: ('A' for Active; 'I' for Inactive)
REMARK    1  A    between atoms: C_1  and  N_2
REMARK    2  A    between atoms: C_6  and  C_7
REMARK    3  A    between atoms: C_13  and  N_14
REMARK    4  A    between atoms: C_15  and  C_17
REMARK                            x       y       z     vdW  Elec       q    Type
REMARK                         _______ _______ _______ _____ _____    ______ ____
ROOT
ATOM      1  C   UNL     1       4.840   5.468  18.109  0.00  0.00    +0.000 A 
ATOM      2  C   UNL     1       4.170   5.410  19.344  0.00  0.00    +0.000 A 
ATOM      3  C   UNL     1       3.075   4.567  19.539  0.00  0.00    +0.000 A 
ATOM      4 BR   UNL     1       2.256   4.485  21.241  0.00  0.00    +0.000 Br
ATOM      5  C   UNL     1       2.588   3.792  18.497  0.00  0.00    +0.000 A 
ATOM      6  C   UNL     1       3.200   3.866  17.248  0.00  0.00    +0.000 A 
ATOM      7  C   UNL     1       4.321   4.688  17.051  0.00  0.00    +0.000 A 
ENDROOT
BRANCH   1  13
ATOM      8  C   UNL     1       7.660   5.426  19.665  0.00  0.00    +0.000 C 
ATOM      9  N   UNL     1       7.195   6.320  18.639  0.00  0.00    +0.000 N 
ATOM     10  N   UNL     1       7.994   7.325  18.242  0.00  0.00    +0.000 NA
ATOM     11  N   UNL     1       7.320   7.947  17.291  0.00  0.00    +0.000 NA
ATOM     12  N   UNL     1       6.096   7.366  17.094  0.00  0.00    +0.000 NA
ATOM     13  C   UNL     1       6.003   6.353  17.942  0.00  0.00    +0.000 A 
ENDBRANCH   1  13
BRANCH   7  14
ATOM     14  N   UNL     1       4.833   4.729  15.739  0.00  0.00    +0.000 N 
ATOM     15  C   UNL     1       6.075   4.212  15.420  0.00  0.00    +0.000 C 
ATOM     16  O   UNL     1       6.862   3.770  16.250  0.00  0.00    +0.000 OA
ATOM     17  H   UNL     1       4.236   5.118  15.024  0.00  0.00    +0.000 HD
BRANCH  15  18
ATOM     18  C   UNL     1       6.449   4.210  13.971  0.00  0.00    +0.000 A 
ATOM     19  C   UNL     1       7.418   5.127  13.543  0.00  0.00    +0.000 A 
ATOM     20  C   UNL     1       7.832   5.157  12.209  0.00  0.00    +0.000 A 
ATOM     21  C   UNL     1       7.287   4.262  11.291  0.00  0.00    +0.000 A 
ATOM     22  C   UNL     1       6.331   3.334  11.708  0.00  0.00    +0.000 A 
ATOM     23  C   UNL     1       5.915   3.303  13.045  0.00  0.00    +0.000 A 
ENDBRANCH  15  18
ENDBRANCH   7  14
TORSDOF 3
ENDMDL
