MODEL 1
REMARK VINA RESULT:      -7.6      0.000      0.000
REMARK  Name = 
REMARK  4 active torsions:
REMARK  status: ('A' for Active; 'I' for Inactive)
REMARK    1  A    between atoms: C_2  and  C_3
REMARK    2  A    between atoms: C_2  and  C_4
REMARK    3  A    between atoms: C_12  and  C_13
REMARK    4  A    between atoms: C_15  and  O_16
REMARK                            x       y       z     vdW  Elec       q    Type
REMARK                         _______ _______ _______ _____ _____    ______ ____
ROOT
ATOM      1  C   UNL     1       5.223   5.123  17.849  0.00  0.00    +0.000 C 
ATOM      2  C   UNL     1       4.125   5.579  18.844  0.00  0.00    +0.000 C 
ATOM      3  C   UNL     1       3.322   4.433  19.499  0.00  0.00    +0.000 C 
ATOM      4  C   UNL     1       2.228   4.874  20.475  0.00  0.00    +0.000 C 
ATOM      5  C   UNL     1       1.852   6.143  20.708  0.00  0.00    +0.000 C 
ATOM      6  C   UNL     1       1.532   3.727  21.175  0.00  0.00    +0.000 C 
ATOM      7  C   UNL     1       0.988   2.697  20.186  0.00  0.00    +0.000 C 
ATOM      8  C   UNL     1       2.023   2.291  19.136  0.00  0.00    +0.000 C 
ATOM      9  C   UNL     1       2.699   3.498  18.427  0.00  0.00    +0.000 C 
ATOM     10  C   UNL     1       1.658   4.229  17.544  0.00  0.00    +0.000 C 
ATOM     11  C   UNL     1       3.829   2.944  17.545  0.00  0.00    +0.000 C 
ATOM     12  C   UNL     1       4.728   3.999  16.900  0.00  0.00    +0.000 C 
ENDROOT
BRANCH   1  14
ATOM     13  C   UNL     1       6.948   6.978  17.390  0.00  0.00    +0.000 C 
ATOM     14  C   UNL     1       5.833   6.304  17.046  0.00  0.00    +0.000 C 
ATOM     15  C   UNL     1       5.119   6.716  15.778  0.00  0.00    +0.000 C 
ENDBRANCH   1  14
BRANCH  12  16
ATOM     16  O   UNL     1       5.850   3.270  16.363  0.00  0.00    +0.000 OA
ATOM     17  H   UNL     1       5.933   2.437  16.865  0.00  0.00    +0.000 HD
ENDBRANCH  12  16
TORSDOF 2
ENDMDL
MODEL 2
REMARK VINA RESULT:      -7.4      0.789      1.202
REMARK  Name = 
REMARK  4 active torsions:
REMARK  status: ('A' for Active; 'I' for Inactive)
REMARK    1  A    between atoms: C_2  and  C_3
REMARK    2  A    between atoms: C_2  and  C_4
REMARK    3  A    between atoms: C_12  and  C_13
REMARK    4  A    between atoms: C_15  and  O_16
REMARK                            x       y       z     vdW  Elec       q    Type
REMARK                         _______ _______ _______ _____ _____    ______ ____
ROOT
ATOM      1  C   UNL     1       5.538   4.771  18.366  0.00  0.00    +0.000 C 
ATOM      2  C   UNL     1       4.399   5.100  19.365  0.00  0.00    +0.000 C 
ATOM      3  C   UNL     1       3.348   3.982  19.547  0.00  0.00    +0.000 C 
ATOM      4  C   UNL     1       2.213   4.302  20.523  0.00  0.00    +0.000 C 
ATOM      5  C   UNL     1       2.008   5.486  21.124  0.00  0.00    +0.000 C 
ATOM      6  C   UNL     1       1.260   3.149  20.755  0.00  0.00    +0.000 C 
ATOM      7  C   UNL     1       0.704   2.592  19.445  0.00  0.00    +0.000 C 
ATOM      8  C   UNL     1       1.797   2.338  18.406  0.00  0.00    +0.000 C 
ATOM      9  C   UNL     1       2.740   3.554  18.183  0.00  0.00    +0.000 C 
ATOM     10  C   UNL     1       1.953   4.702  17.505  0.00  0.00    +0.000 C 
ATOM     11  C   UNL     1       3.880   3.093  17.262  0.00  0.00    +0.000 C 
ATOM     12  C   UNL     1       5.009   4.104  17.068  0.00  0.00    +0.000 C 
ENDROOT
BRANCH   1  14
ATOM     13  C   UNL     1       6.101   6.981  17.172  0.00  0.00    +0.000 C 
ATOM     14  C   UNL     1       6.425   6.004  18.041  0.00  0.00    +0.000 C 
ATOM     15  C   UNL     1       7.747   6.112  18.768  0.00  0.00    +0.000 C 
ENDBRANCH   1  14
BRANCH  12  16
ATOM     16  O   UNL     1       6.069   3.377  16.414  0.00  0.00    +0.000 OA
ATOM     17  H   UNL     1       6.803   3.285  17.050  0.00  0.00    +0.000 HD
ENDBRANCH  12  16
TORSDOF 2
ENDMDL
MODEL 3
REMARK VINA RESULT:      -7.2      1.849      3.182
REMARK  Name = 
REMARK  4 active torsions:
REMARK  status: ('A' for Active; 'I' for Inactive)
REMARK    1  A    between atoms: C_2  and  C_3
REMARK    2  A    between atoms: C_2  and  C_4
REMARK    3  A    between atoms: C_12  and  C_13
REMARK    4  A    between atoms: C_15  and  O_16
REMARK                            x       y       z     vdW  Elec       q    Type
REMARK                         _______ _______ _______ _____ _____    ______ ____
ROOT
ATOM      1  C   UNL     1       4.785   4.801  15.832  0.00  0.00    +0.000 C 
ATOM      2  C   UNL     1       4.231   3.758  16.836  0.00  0.00    +0.000 C 
ATOM      3  C   UNL     1       3.109   4.276  17.763  0.00  0.00    +0.000 C 
ATOM      4  C   UNL     1       2.563   3.256  18.765  0.00  0.00    +0.000 C 
ATOM      5  C   UNL     1       3.050   2.020  18.968  0.00  0.00    +0.000 C 
ATOM      6  C   UNL     1       1.397   3.765  19.586  0.00  0.00    +0.000 C 
ATOM      7  C   UNL     1       1.720   5.086  20.283  0.00  0.00    +0.000 C 
ATOM      8  C   UNL     1       2.350   6.108  19.337  0.00  0.00    +0.000 C 
ATOM      9  C   UNL     1       3.556   5.552  18.529  0.00  0.00    +0.000 C 
ATOM     10  C   UNL     1       4.739   5.274  19.489  0.00  0.00    +0.000 C 
ATOM     11  C   UNL     1       3.961   6.622  17.503  0.00  0.00    +0.000 C 
ATOM     12  C   UNL     1       5.022   6.185  16.493  0.00  0.00    +0.000 C 
ENDROOT
BRANCH   1  14
ATOM     13  C   UNL     1       6.088   3.825  13.838  0.00  0.00    +0.000 C 
ATOM     14  C   UNL     1       6.060   4.307  15.096  0.00  0.00    +0.000 C 
ATOM     15  C   UNL     1       7.367   4.385  15.854  0.00  0.00    +0.000 C 
ENDBRANCH   1  14
BRANCH  12  16
ATOM     16  O   UNL     1       5.043   7.219  15.488  0.00  0.00    +0.000 OA
ATOM     17  H   UNL     1       5.119   8.078  15.945  0.00  0.00    +0.000 HD
ENDBRANCH  12  16
TORSDOF 2
ENDMDL
MODEL 4
REMARK VINA RESULT:      -6.7      1.737      2.975
REMARK  Name = 
REMARK  4 active torsions:
REMARK  status: ('A' for Active; 'I' for Inactive)
REMARK    1  A    between atoms: C_2  and  C_3
REMARK    2  A    between atoms: C_2  and  C_4
REMARK    3  A    between atoms: C_12  and  C_13
REMARK    4  A    between atoms: C_15  and  O_16
REMARK                            x       y       z     vdW  Elec       q    Type
REMARK                         _______ _______ _______ _____ _____    ______ ____
ROOT
ATOM      1  C   UNL     1       4.807   5.149  16.421  0.00  0.00    +0.000 C 
ATOM      2  C   UNL     1       4.476   3.758  17.021  0.00  0.00    +0.000 C 
ATOM      3  C   UNL     1       3.070   3.637  17.650  0.00  0.00    +0.000 C 
ATOM      4  C   UNL     1       2.739   2.271  18.255  0.00  0.00    +0.000 C 
ATOM      5  C   UNL     1       3.593   1.240  18.377  0.00  0.00    +0.000 C 
ATOM      6  C   UNL     1       1.320   2.156  18.771  0.00  0.00    +0.000 C 
ATOM      7  C   UNL     1       0.973   3.277  19.749  0.00  0.00    +0.000 C 
ATOM      8  C   UNL     1       1.368   4.657  19.222  0.00  0.00    +0.000 C 
ATOM      9  C   UNL     1       2.837   4.737  18.723  0.00  0.00    +0.000 C 
ATOM     10  C   UNL     1       3.802   4.597  19.926  0.00  0.00    +0.000 C 
ATOM     11  C   UNL     1       3.028   6.112  18.062  0.00  0.00    +0.000 C 
ATOM     12  C   UNL     1       4.366   6.311  17.351  0.00  0.00    +0.000 C 
ENDROOT
BRANCH   1  14
ATOM     13  C   UNL     1       6.835   4.848  14.864  0.00  0.00    +0.000 C 
ATOM     14  C   UNL     1       6.300   5.289  16.019  0.00  0.00    +0.000 C 
ATOM     15  C   UNL     1       7.216   5.984  17.003  0.00  0.00    +0.000 C 
ENDBRANCH   1  14
BRANCH  12  16
ATOM     16  O   UNL     1       4.219   7.528  16.591  0.00  0.00    +0.000 OA
ATOM     17  H   UNL     1       4.787   7.456  15.800  0.00  0.00    +0.000 HD
ENDBRANCH  12  16
TORSDOF 2
ENDMDL
MODEL 5
REMARK VINA RESULT:      -6.7      1.714      2.756
REMARK  Name = 
REMARK  4 active torsions:
REMARK  status: ('A' for Active; 'I' for Inactive)
REMARK    1  A    between atoms: C_2  and  C_3
REMARK    2  A    between atoms: C_2  and  C_4
REMARK    3  A    between atoms: C_12  and  C_13
REMARK    4  A    between atoms: C_15  and  O_16
REMARK                            x       y       z     vdW  Elec       q    Type
REMARK                         _______ _______ _______ _____ _____    ______ ____
ROOT
ATOM      1  C   UNL     1       5.780   5.516  17.701  0.00  0.00    +0.000 C 
ATOM      2  C   UNL     1       5.440   4.313  18.618  0.00  0.00    +0.000 C 
ATOM      3  C   UNL     1       4.045   3.690  18.386  0.00  0.00    +0.000 C 
ATOM      4  C   UNL     1       3.697   2.508  19.294  0.00  0.00    +0.000 C 
ATOM      5  C   UNL     1       4.442   2.061  20.319  0.00  0.00    +0.000 C 
ATOM      6  C   UNL     1       2.368   1.858  18.971  0.00  0.00    +0.000 C 
ATOM      7  C   UNL     1       1.225   2.872  18.943  0.00  0.00    +0.000 C 
ATOM      8  C   UNL     1       1.564   4.113  18.117  0.00  0.00    +0.000 C 
ATOM      9  C   UNL     1       2.926   4.761  18.494  0.00  0.00    +0.000 C 
ATOM     10  C   UNL     1       2.833   5.372  19.914  0.00  0.00    +0.000 C 
ATOM     11  C   UNL     1       3.210   5.871  17.470  0.00  0.00    +0.000 C 
ATOM     12  C   UNL     1       4.595   6.510  17.571  0.00  0.00    +0.000 C 
ENDROOT
BRANCH   1  14
ATOM     13  C   UNL     1       7.593   7.336  17.522  0.00  0.00    +0.000 C 
ATOM     14  C   UNL     1       7.080   6.249  18.132  0.00  0.00    +0.000 C 
ATOM     15  C   UNL     1       7.815   5.700  19.335  0.00  0.00    +0.000 C 
ENDBRANCH   1  14
BRANCH  12  16
ATOM     16  O   UNL     1       4.740   7.303  16.375  0.00  0.00    +0.000 OA
ATOM     17  H   UNL     1       5.695   7.420  16.209  0.00  0.00    +0.000 HD
ENDBRANCH  12  16
TORSDOF 2
ENDMDL
MODEL 6
REMARK VINA RESULT:      -6.7      1.684      2.906
REMARK  Name = 
REMARK  4 active torsions:
REMARK  status: ('A' for Active; 'I' for Inactive)
REMARK    1  A    between atoms: C_2  and  C_3
REMARK    2  A    between atoms: C_2  and  C_4
REMARK    3  A    between atoms: C_12  and  C_13
REMARK    4  A    between atoms: C_15  and  O_16
REMARK                            x       y       z     vdW  Elec       q    Type
REMARK                         _______ _______ _______ _____ _____    ______ ____
ROOT
ATOM      1  C   UNL     1       4.675   4.985  16.406  0.00  0.00    +0.000 C 
ATOM      2  C   UNL     1       3.868   3.772  16.936  0.00  0.00    +0.000 C 
ATOM      3  C   UNL     1       2.725   4.126  17.913  0.00  0.00    +0.000 C 
ATOM      4  C   UNL     1       1.929   2.933  18.449  0.00  0.00    +0.000 C 
ATOM      5  C   UNL     1       2.215   1.639  18.231  0.00  0.00    +0.000 C 
ATOM      6  C   UNL     1       0.753   3.323  19.321  0.00  0.00    +0.000 C 
ATOM      7  C   UNL     1       1.168   4.252  20.461  0.00  0.00    +0.000 C 
ATOM      8  C   UNL     1       2.040   5.413  19.983  0.00  0.00    +0.000 C 
ATOM      9  C   UNL     1       3.247   4.968  19.109  0.00  0.00    +0.000 C 
ATOM     10  C   UNL     1       4.257   4.184  19.982  0.00  0.00    +0.000 C 
ATOM     11  C   UNL     1       3.913   6.239  18.559  0.00  0.00    +0.000 C 
ATOM     12  C   UNL     1       5.018   6.000  17.530  0.00  0.00    +0.000 C 
ENDROOT
BRANCH   1  14
ATOM     13  C   UNL     1       7.191   4.501  16.148  0.00  0.00    +0.000 C 
ATOM     14  C   UNL     1       5.950   4.563  15.626  0.00  0.00    +0.000 C 
ATOM     15  C   UNL     1       5.774   4.183  14.172  0.00  0.00    +0.000 C 
ENDBRANCH   1  14
BRANCH  12  16
ATOM     16  O   UNL     1       5.300   7.295  16.962  0.00  0.00    +0.000 OA
ATOM     17  H   UNL     1       5.956   7.736  17.535  0.00  0.00    +0.000 HD
ENDBRANCH  12  16
TORSDOF 2
ENDMDL
MODEL 7
REMARK VINA RESULT:      -6.5      1.619      4.921
REMARK  Name = 
REMARK  4 active torsions:
REMARK  status: ('A' for Active; 'I' for Inactive)
REMARK    1  A    between atoms: C_2  and  C_3
REMARK    2  A    between atoms: C_2  and  C_4
REMARK    3  A    between atoms: C_12  and  C_13
REMARK    4  A    between atoms: C_15  and  O_16
REMARK                            x       y       z     vdW  Elec       q    Type
REMARK                         _______ _______ _______ _____ _____    ______ ____
ROOT
ATOM      1  C   UNL     1       2.223   3.905  18.830  0.00  0.00    +0.000 C 
ATOM      2  C   UNL     1       2.925   5.217  18.397  0.00  0.00    +0.000 C 
ATOM      3  C   UNL     1       3.806   5.099  17.133  0.00  0.00    +0.000 C 
ATOM      4  C   UNL     1       4.512   6.387  16.704  0.00  0.00    +0.000 C 
ATOM      5  C   UNL     1       4.514   7.544  17.387  0.00  0.00    +0.000 C 
ATOM      6  C   UNL     1       5.282   6.261  15.406  0.00  0.00    +0.000 C 
ATOM      7  C   UNL     1       6.265   5.091  15.434  0.00  0.00    +0.000 C 
ATOM      8  C   UNL     1       5.623   3.800  15.941  0.00  0.00    +0.000 C 
ATOM      9  C   UNL     1       4.860   3.968  17.285  0.00  0.00    +0.000 C 
ATOM     10  C   UNL     1       5.871   4.258  18.421  0.00  0.00    +0.000 C 
ATOM     11  C   UNL     1       4.125   2.649  17.569  0.00  0.00    +0.000 C 
ATOM     12  C   UNL     1       3.173   2.679  18.764  0.00  0.00    +0.000 C 
ENDROOT
BRANCH   1  14
ATOM     13  C   UNL     1       1.043   2.983  20.925  0.00  0.00    +0.000 C 
ATOM     14  C   UNL     1       1.550   4.017  20.225  0.00  0.00    +0.000 C 
ATOM     15  C   UNL     1       1.472   5.396  20.843  0.00  0.00    +0.000 C 
ENDBRANCH   1  14
BRANCH  12  16
ATOM     16  O   UNL     1       2.408   1.460  18.677  0.00  0.00    +0.000 OA
ATOM     17  H   UNL     1       1.613   1.645  18.140  0.00  0.00    +0.000 HD
ENDBRANCH  12  16
TORSDOF 2
ENDMDL
MODEL 8
REMARK VINA RESULT:      -6.4      1.807      2.875
REMARK  Name = 
REMARK  4 active torsions:
REMARK  status: ('A' for Active; 'I' for Inactive)
REMARK    1  A    between atoms: C_2  and  C_3
REMARK    2  A    between atoms: C_2  and  C_4
REMARK    3  A    between atoms: C_12  and  C_13
REMARK    4  A    between atoms: C_15  and  O_16
REMARK                            x       y       z     vdW  Elec       q    Type
REMARK                         _______ _______ _______ _____ _____    ______ ____
ROOT
ATOM      1  C   UNL     1       5.189   4.995  18.004  0.00  0.00    +0.000 C 
ATOM      2  C   UNL     1       4.235   6.205  17.836  0.00  0.00    +0.000 C 
ATOM      3  C   UNL     1       3.350   6.513  19.065  0.00  0.00    +0.000 C 
ATOM      4  C   UNL     1       2.396   7.700  18.904  0.00  0.00    +0.000 C 
ATOM      5  C   UNL     1       2.197   8.397  17.773  0.00  0.00    +0.000 C 
ATOM      6  C   UNL     1       1.619   8.036  20.159  0.00  0.00    +0.000 C 
ATOM      7  C   UNL     1       0.879   6.822  20.719  0.00  0.00    +0.000 C 
ATOM      8  C   UNL     1       1.773   5.585  20.815  0.00  0.00    +0.000 C 
ATOM      9  C   UNL     1       2.536   5.263  19.499  0.00  0.00    +0.000 C 
ATOM     10  C   UNL     1       1.528   4.812  18.414  0.00  0.00    +0.000 C 
ATOM     11  C   UNL     1       3.519   4.121  19.801  0.00  0.00    +0.000 C 
ATOM     12  C   UNL     1       4.488   3.781  18.670  0.00  0.00    +0.000 C 
ENDROOT
BRANCH   1  14
ATOM     13  C   UNL     1       5.229   4.278  15.531  0.00  0.00    +0.000 C 
ATOM     14  C   UNL     1       5.876   4.584  16.673  0.00  0.00    +0.000 C 
ATOM     15  C   UNL     1       7.388   4.536  16.664  0.00  0.00    +0.000 C 
ENDBRANCH   1  14
BRANCH  12  16
ATOM     16  O   UNL     1       5.468   2.900  19.256  0.00  0.00    +0.000 OA
ATOM     17  H   UNL     1       5.208   1.983  19.047  0.00  0.00    +0.000 HD
ENDBRANCH  12  16
TORSDOF 2
ENDMDL
MODEL 9
REMARK VINA RESULT:      -6.4      0.979      1.142
REMARK  Name = 
REMARK  4 active torsions:
REMARK  status: ('A' for Active; 'I' for Inactive)
REMARK    1  A    between atoms: C_2  and  C_3
REMARK    2  A    between atoms: C_2  and  C_4
REMARK    3  A    between atoms: C_12  and  C_13
REMARK    4  A    between atoms: C_15  and  O_16
REMARK                            x       y       z     vdW  Elec       q    Type
REMARK                         _______ _______ _______ _____ _____    ______ ____
ROOT
ATOM      1  C   UNL     1       5.109   4.872  17.073  0.00  0.00    +0.000 C 
ATOM      2  C   UNL     1       4.186   5.741  17.965  0.00  0.00    +0.000 C 
ATOM      3  C   UNL     1       3.424   4.967  19.063  0.00  0.00    +0.000 C 
ATOM      4  C   UNL     1       2.501   5.816  19.942  0.00  0.00    +0.000 C 
ATOM      5  C   UNL     1       2.228   7.119  19.762  0.00  0.00    +0.000 C 
ATOM      6  C   UNL     1       1.849   5.045  21.071  0.00  0.00    +0.000 C 
ATOM      7  C   UNL     1       1.120   3.799  20.569  0.00  0.00    +0.000 C 
ATOM      8  C   UNL     1       1.976   2.965  19.615  0.00  0.00    +0.000 C 
ATOM      9  C   UNL     1       2.609   3.790  18.460  0.00  0.00    +0.000 C 
ATOM     10  C   UNL     1       1.494   4.279  17.502  0.00  0.00    +0.000 C 
ATOM     11  C   UNL     1       3.574   2.864  17.703  0.00  0.00    +0.000 C 
ATOM     12  C   UNL     1       4.428   3.548  16.636  0.00  0.00    +0.000 C 
ENDROOT
BRANCH   1  14
ATOM     13  C   UNL     1       6.690   5.244  15.075  0.00  0.00    +0.000 C 
ATOM     14  C   UNL     1       5.662   5.648  15.847  0.00  0.00    +0.000 C 
ATOM     15  C   UNL     1       4.982   6.952  15.493  0.00  0.00    +0.000 C 
ENDBRANCH   1  14
BRANCH  12  16
ATOM     16  O   UNL     1       5.425   2.575  16.262  0.00  0.00    +0.000 OA
ATOM     17  H   UNL     1       5.596   2.009  17.038  0.00  0.00    +0.000 HD
ENDBRANCH  12  16
TORSDOF 2
ENDMDL
