MODEL 1
REMARK VINA RESULT:      -7.2      0.000      0.000
REMARK  Name = 
REMARK  4 active torsions:
REMARK  status: ('A' for Active; 'I' for Inactive)
REMARK    1  A    between atoms: C_2  and  C_20
REMARK    2  A    between atoms: N_3  and  C_4
REMARK    3  A    between atoms: N_10  and  C_11
REMARK    4  A    between atoms: C_11  and  C_12
REMARK                            x       y       z     vdW  Elec       q    Type
REMARK                         _______ _______ _______ _____ _____    ______ ____
ROOT
ATOM      1  C   UNL     1       8.167   7.309  17.901  0.00  0.00    +0.000 C 
ATOM      2  C   UNL     1       7.244   7.677  16.737  0.00  0.00    +0.000 C 
ATOM      3  O   UNL     1       6.332   6.593  16.511  0.00  0.00    +0.000 OA
ATOM      4  C   UNL     1       6.248   5.781  17.693  0.00  0.00    +0.000 C 
ATOM      5  C   UNL     1       6.475   4.333  17.239  0.00  0.00    +0.000 C 
ATOM      6  C   UNL     1       5.235   3.737  16.566  0.00  0.00    +0.000 C 
ATOM      7  N   UNL     1       4.035   3.778  17.415  0.00  0.00    +0.000 NA
ATOM      8  C   UNL     1       3.720   5.191  17.689  0.00  0.00    +0.000 C 
ATOM      9  C   UNL     1       4.862   5.967  18.356  0.00  0.00    +0.000 C 
ATOM     10  C   UNL     1       7.347   6.276  18.651  0.00  0.00    +0.000 C 
ENDROOT
BRANCH   1  13
ATOM     11  O   UNL     1       8.040  10.175  17.496  0.00  0.00    +0.000 OA
ATOM     12  C   UNL     1       8.647   9.730  18.467  0.00  0.00    +0.000 C 
ATOM     13  N   UNL     1       8.619   8.385  18.803  0.00  0.00    +0.000 N 
ATOM     14  H   UNL     1       9.172   8.149  19.626  0.00  0.00    +0.000 HD
BRANCH  12  15
ATOM     15  C   UNL     1       9.434  10.654  19.395  0.00  0.00    +0.000 A 
ATOM     16  C   UNL     1      10.662  11.174  18.990  0.00  0.00    +0.000 A 
ATOM     17  C   UNL     1      11.379  11.997  19.862  0.00  0.00    +0.000 A 
ATOM     18  C   UNL     1      10.847  12.279  21.110  0.00  0.00    +0.000 A 
ATOM     19  C   UNL     1       9.608  11.729  21.435  0.00  0.00    +0.000 A 
ATOM     20  N   UNL     1       8.881  10.926  20.613  0.00  0.00    +0.000 NA
ENDBRANCH  12  15
ENDBRANCH   1  13
BRANCH   7  21
ATOM     21  C   UNL     1       4.143   2.994  18.660  0.00  0.00    +0.000 C 
BRANCH  21  22
ATOM     22  C   UNL     1       2.873   2.954  19.473  0.00  0.00    +0.000 A 
ATOM     23  C   UNL     1       1.565   3.035  19.039  0.00  0.00    +0.000 A 
ATOM     24  C   UNL     1       0.633   2.992  20.117  0.00  0.00    +0.000 A 
ATOM     25  C   UNL     1       1.256   2.871  21.336  0.00  0.00    +0.000 A 
ATOM     26  S   UNL     1       2.956   2.828  21.186  0.00  0.00    +0.000 S 
ENDBRANCH  21  22
ENDBRANCH   7  21
TORSDOF 4
ENDMDL
MODEL 2
REMARK VINA RESULT:      -7.1      8.692     10.564
REMARK  Name = 
REMARK  4 active torsions:
REMARK  status: ('A' for Active; 'I' for Inactive)
REMARK    1  A    between atoms: C_2  and  C_20
REMARK    2  A    between atoms: N_3  and  C_4
REMARK    3  A    between atoms: N_10  and  C_11
REMARK    4  A    between atoms: C_11  and  C_12
REMARK                            x       y       z     vdW  Elec       q    Type
REMARK                         _______ _______ _______ _____ _____    ______ ____
ROOT
ATOM      1  C   UNL     1       0.596  10.260  19.251  0.00  0.00    +0.000 C 
ATOM      2  C   UNL     1       1.247  11.624  19.496  0.00  0.00    +0.000 C 
ATOM      3  O   UNL     1       0.271  12.504  20.072  0.00  0.00    +0.000 OA
ATOM      4  C   UNL     1      -0.785  11.729  20.664  0.00  0.00    +0.000 C 
ATOM      5  C   UNL     1      -2.099  12.298  20.112  0.00  0.00    +0.000 C 
ATOM      6  C   UNL     1      -2.488  13.615  20.791  0.00  0.00    +0.000 C 
ATOM      7  N   UNL     1      -2.603  13.505  22.253  0.00  0.00    +0.000 NA
ATOM      8  C   UNL     1      -1.280  13.140  22.786  0.00  0.00    +0.000 C 
ATOM      9  C   UNL     1      -0.710  11.840  22.206  0.00  0.00    +0.000 C 
ATOM     10  C   UNL     1      -0.554  10.267  20.241  0.00  0.00    +0.000 C 
ENDROOT
BRANCH   1  13
ATOM     11  O   UNL     1       2.300   8.972  17.293  0.00  0.00    +0.000 OA
ATOM     12  C   UNL     1       2.103   8.423  18.375  0.00  0.00    +0.000 C 
ATOM     13  N   UNL     1       1.426   9.051  19.409  0.00  0.00    +0.000 N 
ATOM     14  H   UNL     1       1.325   8.481  20.248  0.00  0.00    +0.000 HD
BRANCH  12  15
ATOM     15  C   UNL     1       2.643   7.022  18.656  0.00  0.00    +0.000 A 
ATOM     16  C   UNL     1       3.470   6.390  17.730  0.00  0.00    +0.000 A 
ATOM     17  C   UNL     1       3.933   5.098  17.994  0.00  0.00    +0.000 A 
ATOM     18  C   UNL     1       3.559   4.478  19.174  0.00  0.00    +0.000 A 
ATOM     19  C   UNL     1       2.737   5.181  20.053  0.00  0.00    +0.000 A 
ATOM     20  N   UNL     1       2.269   6.439  19.833  0.00  0.00    +0.000 NA
ENDBRANCH  12  15
ENDBRANCH   1  13
BRANCH   7  21
ATOM     21  C   UNL     1      -3.652  12.575  22.713  0.00  0.00    +0.000 C 
BRANCH  21  22
ATOM     22  C   UNL     1      -5.057  13.036  22.413  0.00  0.00    +0.000 A 
ATOM     23  C   UNL     1      -5.950  12.542  21.482  0.00  0.00    +0.000 A 
ATOM     24  C   UNL     1      -7.178  13.265  21.473  0.00  0.00    +0.000 A 
ATOM     25  C   UNL     1      -7.188  14.280  22.399  0.00  0.00    +0.000 A 
ATOM     26  S   UNL     1      -5.719  14.375  23.264  0.00  0.00    +0.000 S 
ENDBRANCH  21  22
ENDBRANCH   7  21
TORSDOF 4
ENDMDL
MODEL 3
REMARK VINA RESULT:      -6.9      6.954     10.392
REMARK  Name = 
REMARK  4 active torsions:
REMARK  status: ('A' for Active; 'I' for Inactive)
REMARK    1  A    between atoms: C_2  and  C_20
REMARK    2  A    between atoms: N_3  and  C_4
REMARK    3  A    between atoms: N_10  and  C_11
REMARK    4  A    between atoms: C_11  and  C_12
REMARK                            x       y       z     vdW  Elec       q    Type
REMARK                         _______ _______ _______ _____ _____    ______ ____
ROOT
ATOM      1  C   UNL     1       1.233   8.154  21.334  0.00  0.00    +0.000 C 
ATOM      2  C   UNL     1      -0.040   8.498  22.112  0.00  0.00    +0.000 C 
ATOM      3  O   UNL     1      -0.420   9.846  21.802  0.00  0.00    +0.000 OA
ATOM      4  C   UNL     1       0.182  10.242  20.559  0.00  0.00    +0.000 C 
ATOM      5  C   UNL     1       0.875  11.586  20.824  0.00  0.00    +0.000 C 
ATOM      6  C   UNL     1      -0.121  12.748  20.878  0.00  0.00    +0.000 C 
ATOM      7  N   UNL     1      -0.937  12.874  19.661  0.00  0.00    +0.000 NA
ATOM      8  C   UNL     1      -1.740  11.647  19.523  0.00  0.00    +0.000 C 
ATOM      9  C   UNL     1      -0.908  10.360  19.466  0.00  0.00    +0.000 C 
ATOM     10  C   UNL     1       1.178   9.133  20.175  0.00  0.00    +0.000 C 
ENDROOT
BRANCH   1  13
ATOM     11  O   UNL     1       3.045   7.165  19.301  0.00  0.00    +0.000 OA
ATOM     12  C   UNL     1       2.201   6.409  19.776  0.00  0.00    +0.000 C 
ATOM     13  N   UNL     1       1.407   6.770  20.853  0.00  0.00    +0.000 N 
ATOM     14  H   UNL     1       0.743   6.054  21.141  0.00  0.00    +0.000 HD
BRANCH  12  15
ATOM     15  C   UNL     1       2.013   4.995  19.227  0.00  0.00    +0.000 A 
ATOM     16  C   UNL     1       1.247   4.066  19.928  0.00  0.00    +0.000 A 
ATOM     17  C   UNL     1       1.109   2.771  19.423  0.00  0.00    +0.000 A 
ATOM     18  C   UNL     1       1.737   2.443  18.232  0.00  0.00    +0.000 A 
ATOM     19  C   UNL     1       2.477   3.432  17.587  0.00  0.00    +0.000 A 
ATOM     20  N   UNL     1       2.633   4.703  18.046  0.00  0.00    +0.000 NA
ENDBRANCH  12  15
ENDBRANCH   1  13
BRANCH   7  21
ATOM     21  C   UNL     1      -0.163  13.160  18.437  0.00  0.00    +0.000 C 
BRANCH  21  22
ATOM     22  C   UNL     1       0.755  14.351  18.555  0.00  0.00    +0.000 A 
ATOM     23  C   UNL     1       0.431  15.675  18.776  0.00  0.00    +0.000 A 
ATOM     24  C   UNL     1       1.581  16.518  18.793  0.00  0.00    +0.000 A 
ATOM     25  C   UNL     1       2.743  15.813  18.595  0.00  0.00    +0.000 A 
ATOM     26  S   UNL     1       2.452  14.146  18.369  0.00  0.00    +0.000 S 
ENDBRANCH  21  22
ENDBRANCH   7  21
TORSDOF 4
ENDMDL
MODEL 4
REMARK VINA RESULT:      -6.9      7.151     10.493
REMARK  Name = 
REMARK  4 active torsions:
REMARK  status: ('A' for Active; 'I' for Inactive)
REMARK    1  A    between atoms: C_2  and  C_20
REMARK    2  A    between atoms: N_3  and  C_4
REMARK    3  A    between atoms: N_10  and  C_11
REMARK    4  A    between atoms: C_11  and  C_12
REMARK                            x       y       z     vdW  Elec       q    Type
REMARK                         _______ _______ _______ _____ _____    ______ ____
ROOT
ATOM      1  C   UNL     1       1.270   8.292  21.450  0.00  0.00    +0.000 C 
ATOM      2  C   UNL     1       0.033   8.653  22.277  0.00  0.00    +0.000 C 
ATOM      3  O   UNL     1      -0.351  10.001  21.966  0.00  0.00    +0.000 OA
ATOM      4  C   UNL     1       0.200  10.377  20.695  0.00  0.00    +0.000 C 
ATOM      5  C   UNL     1       0.913  11.719  20.914  0.00  0.00    +0.000 C 
ATOM      6  C   UNL     1      -0.073  12.889  20.996  0.00  0.00    +0.000 C 
ATOM      7  N   UNL     1      -0.939  13.006  19.813  0.00  0.00    +0.000 NA
ATOM      8  C   UNL     1      -1.754  11.783  19.723  0.00  0.00    +0.000 C 
ATOM      9  C   UNL     1      -0.934  10.490  19.647  0.00  0.00    +0.000 C 
ATOM     10  C   UNL     1       1.172   9.257  20.282  0.00  0.00    +0.000 C 
ENDROOT
BRANCH   1  13
ATOM     11  O   UNL     1       2.934   7.277  19.307  0.00  0.00    +0.000 OA
ATOM     12  C   UNL     1       2.130   6.525  19.853  0.00  0.00    +0.000 C 
ATOM     13  N   UNL     1       1.415   6.901  20.979  0.00  0.00    +0.000 N 
ATOM     14  H   UNL     1       0.776   6.187  21.325  0.00  0.00    +0.000 HD
BRANCH  12  15
ATOM     15  C   UNL     1       1.910   5.103  19.341  0.00  0.00    +0.000 A 
ATOM     16  C   UNL     1       2.399   4.722  18.093  0.00  0.00    +0.000 A 
ATOM     17  C   UNL     1       2.165   3.425  17.632  0.00  0.00    +0.000 A 
ATOM     18  C   UNL     1       1.453   2.545  18.431  0.00  0.00    +0.000 A 
ATOM     19  C   UNL     1       1.006   2.999  19.670  0.00  0.00    +0.000 A 
ATOM     20  N   UNL     1       1.216   4.253  20.154  0.00  0.00    +0.000 NA
ENDBRANCH  12  15
ENDBRANCH   1  13
BRANCH   7  21
ATOM     21  C   UNL     1      -0.216  13.272  18.553  0.00  0.00    +0.000 C 
BRANCH  21  22
ATOM     22  C   UNL     1       0.637  14.516  18.586  0.00  0.00    +0.000 A 
ATOM     23  C   UNL     1       2.014  14.623  18.551  0.00  0.00    +0.000 A 
ATOM     24  C   UNL     1       2.454  15.976  18.633  0.00  0.00    +0.000 A 
ATOM     25  C   UNL     1       1.404  16.858  18.719  0.00  0.00    +0.000 A 
ATOM     26  S   UNL     1      -0.106  16.061  18.720  0.00  0.00    +0.000 S 
ENDBRANCH  21  22
ENDBRANCH   7  21
TORSDOF 4
ENDMDL
MODEL 5
REMARK VINA RESULT:      -6.8      8.736     10.702
REMARK  Name = 
REMARK  4 active torsions:
REMARK  status: ('A' for Active; 'I' for Inactive)
REMARK    1  A    between atoms: C_2  and  C_20
REMARK    2  A    between atoms: N_3  and  C_4
REMARK    3  A    between atoms: N_10  and  C_11
REMARK    4  A    between atoms: C_11  and  C_12
REMARK                            x       y       z     vdW  Elec       q    Type
REMARK                         _______ _______ _______ _____ _____    ______ ____
ROOT
ATOM      1  C   UNL     1       0.716  10.057  19.280  0.00  0.00    +0.000 C 
ATOM      2  C   UNL     1       1.420  11.385  19.573  0.00  0.00    +0.000 C 
ATOM      3  O   UNL     1       0.451  12.321  20.066  0.00  0.00    +0.000 OA
ATOM      4  C   UNL     1      -0.690  11.611  20.573  0.00  0.00    +0.000 C 
ATOM      5  C   UNL     1      -1.922  12.248  19.915  0.00  0.00    +0.000 C 
ATOM      6  C   UNL     1      -2.290  13.589  20.556  0.00  0.00    +0.000 C 
ATOM      7  N   UNL     1      -2.528  13.497  22.005  0.00  0.00    +0.000 NA
ATOM      8  C   UNL     1      -1.275  13.063  22.645  0.00  0.00    +0.000 C 
ATOM      9  C   UNL     1      -0.734  11.728  22.116  0.00  0.00    +0.000 C 
ATOM     10  C   UNL     1      -0.508  10.136  20.174  0.00  0.00    +0.000 C 
ENDROOT
BRANCH   1  13
ATOM     11  O   UNL     1       2.448   8.630  17.449  0.00  0.00    +0.000 OA
ATOM     12  C   UNL     1       2.157   8.117  18.527  0.00  0.00    +0.000 C 
ATOM     13  N   UNL     1       1.462   8.805  19.509  0.00  0.00    +0.000 N 
ATOM     14  H   UNL     1       1.279   8.260  20.350  0.00  0.00    +0.000 HD
BRANCH  12  15
ATOM     15  C   UNL     1       2.595   6.692  18.864  0.00  0.00    +0.000 A 
ATOM     16  C   UNL     1       2.174   6.090  20.049  0.00  0.00    +0.000 A 
ATOM     17  C   UNL     1       2.606   4.797  20.351  0.00  0.00    +0.000 A 
ATOM     18  C   UNL     1       3.442   4.142  19.462  0.00  0.00    +0.000 A 
ATOM     19  C   UNL     1       3.810   4.809  18.295  0.00  0.00    +0.000 A 
ATOM     20  N   UNL     1       3.409   6.066  17.965  0.00  0.00    +0.000 NA
ENDBRANCH  12  15
ENDBRANCH   1  13
BRANCH   7  21
ATOM     21  C   UNL     1      -3.661  12.630  22.381  0.00  0.00    +0.000 C 
BRANCH  21  22
ATOM     22  C   UNL     1      -4.886  13.383  22.837  0.00  0.00    +0.000 A 
ATOM     23  C   UNL     1      -4.960  14.572  23.537  0.00  0.00    +0.000 A 
ATOM     24  C   UNL     1      -6.305  14.953  23.815  0.00  0.00    +0.000 A 
ATOM     25  C   UNL     1      -7.213  14.053  23.312  0.00  0.00    +0.000 A 
ATOM     26  S   UNL     1      -6.451  12.743  22.527  0.00  0.00    +0.000 S 
ENDBRANCH  21  22
ENDBRANCH   7  21
TORSDOF 4
ENDMDL
MODEL 6
REMARK VINA RESULT:      -6.8      6.994     10.193
REMARK  Name = 
REMARK  4 active torsions:
REMARK  status: ('A' for Active; 'I' for Inactive)
REMARK    1  A    between atoms: C_2  and  C_20
REMARK    2  A    between atoms: N_3  and  C_4
REMARK    3  A    between atoms: N_10  and  C_11
REMARK    4  A    between atoms: C_11  and  C_12
REMARK                            x       y       z     vdW  Elec       q    Type
REMARK                         _______ _______ _______ _____ _____    ______ ____
ROOT
ATOM      1  C   UNL     1       1.745   8.012  20.264  0.00  0.00    +0.000 C 
ATOM      2  C   UNL     1       0.531   8.078  21.193  0.00  0.00    +0.000 C 
ATOM      3  O   UNL     1       0.013   9.417  21.180  0.00  0.00    +0.000 OA
ATOM      4  C   UNL     1       0.457  10.093  19.993  0.00  0.00    +0.000 C 
ATOM      5  C   UNL     1       1.061  11.426  20.456  0.00  0.00    +0.000 C 
ATOM      6  C   UNL     1      -0.018  12.454  20.813  0.00  0.00    +0.000 C 
ATOM      7  N   UNL     1      -0.955  12.722  19.712  0.00  0.00    +0.000 NA
ATOM      8  C   UNL     1      -1.664  11.469  19.404  0.00  0.00    +0.000 C 
ATOM      9  C   UNL     1      -0.739  10.303  19.034  0.00  0.00    +0.000 C 
ATOM     10  C   UNL     1       1.498   9.178  19.324  0.00  0.00    +0.000 C 
ENDROOT
BRANCH   1  13
ATOM     11  O   UNL     1       2.047   5.319  21.288  0.00  0.00    +0.000 OA
ATOM     12  C   UNL     1       2.256   5.538  20.097  0.00  0.00    +0.000 C 
ATOM     13  N   UNL     1       1.985   6.765  19.513  0.00  0.00    +0.000 N 
ATOM     14  H   UNL     1       2.213   6.814  18.521  0.00  0.00    +0.000 HD
BRANCH  12  15
ATOM     15  C   UNL     1       2.787   4.440  19.177  0.00  0.00    +0.000 A 
ATOM     16  C   UNL     1       3.256   4.758  17.904  0.00  0.00    +0.000 A 
ATOM     17  C   UNL     1       3.714   3.736  17.068  0.00  0.00    +0.000 A 
ATOM     18  C   UNL     1       3.692   2.430  17.528  0.00  0.00    +0.000 A 
ATOM     19  C   UNL     1       3.217   2.196  18.818  0.00  0.00    +0.000 A 
ATOM     20  N   UNL     1       2.765   3.164  19.661  0.00  0.00    +0.000 NA
ENDBRANCH  12  15
ENDBRANCH   1  13
BRANCH   7  21
ATOM     21  C   UNL     1      -0.330  13.304  18.508  0.00  0.00    +0.000 C 
BRANCH  21  22
ATOM     22  C   UNL     1       0.406  14.596  18.763  0.00  0.00    +0.000 A 
ATOM     23  C   UNL     1       1.763  14.847  18.690  0.00  0.00    +0.000 A 
ATOM     24  C   UNL     1       2.083  16.193  19.034  0.00  0.00    +0.000 A 
ATOM     25  C   UNL     1       0.965  16.927  19.348  0.00  0.00    +0.000 A 
ATOM     26  S   UNL     1      -0.463  15.996  19.250  0.00  0.00    +0.000 S 
ENDBRANCH  21  22
ENDBRANCH   7  21
TORSDOF 4
ENDMDL
MODEL 7
REMARK VINA RESULT:      -6.8      5.060      6.881
REMARK  Name = 
REMARK  4 active torsions:
REMARK  status: ('A' for Active; 'I' for Inactive)
REMARK    1  A    between atoms: C_2  and  C_20
REMARK    2  A    between atoms: N_3  and  C_4
REMARK    3  A    between atoms: N_10  and  C_11
REMARK    4  A    between atoms: C_11  and  C_12
REMARK                            x       y       z     vdW  Elec       q    Type
REMARK                         _______ _______ _______ _____ _____    ______ ____
ROOT
ATOM      1  C   UNL     1       2.264   7.115  18.783  0.00  0.00    +0.000 C 
ATOM      2  C   UNL     1       2.768   6.018  19.724  0.00  0.00    +0.000 C 
ATOM      3  O   UNL     1       3.738   5.223  19.027  0.00  0.00    +0.000 OA
ATOM      4  C   UNL     1       4.263   5.968  17.917  0.00  0.00    +0.000 C 
ATOM      5  C   UNL     1       4.143   5.054  16.689  0.00  0.00    +0.000 C 
ATOM      6  C   UNL     1       5.230   3.975  16.665  0.00  0.00    +0.000 C 
ATOM      7  N   UNL     1       6.594   4.520  16.711  0.00  0.00    +0.000 NA
ATOM      8  C   UNL     1       6.754   5.239  17.987  0.00  0.00    +0.000 C 
ATOM      9  C   UNL     1       5.732   6.362  18.201  0.00  0.00    +0.000 C 
ATOM     10  C   UNL     1       3.405   7.239  17.789  0.00  0.00    +0.000 C 
ENDROOT
BRANCH   1  13
ATOM     11  O   UNL     1       0.647   9.223  17.627  0.00  0.00    +0.000 OA
ATOM     12  C   UNL     1       1.251   9.433  18.677  0.00  0.00    +0.000 C 
ATOM     13  N   UNL     1       1.917   8.427  19.360  0.00  0.00    +0.000 N 
ATOM     14  H   UNL     1       2.383   8.739  20.210  0.00  0.00    +0.000 HD
BRANCH  12  15
ATOM     15  C   UNL     1       1.260  10.821  19.315  0.00  0.00    +0.000 A 
ATOM     16  C   UNL     1       1.838  11.898  18.646  0.00  0.00    +0.000 A 
ATOM     17  C   UNL     1       1.859  13.154  19.257  0.00  0.00    +0.000 A 
ATOM     18  C   UNL     1       1.300  13.298  20.517  0.00  0.00    +0.000 A 
ATOM     19  C   UNL     1       0.732  12.174  21.115  0.00  0.00    +0.000 A 
ATOM     20  N   UNL     1       0.691  10.937  20.551  0.00  0.00    +0.000 NA
ENDBRANCH  12  15
ENDBRANCH   1  13
BRANCH   7  21
ATOM     21  C   UNL     1       6.949   5.370  15.558  0.00  0.00    +0.000 C 
BRANCH  21  22
ATOM     22  C   UNL     1       6.782   4.693  14.221  0.00  0.00    +0.000 A 
ATOM     23  C   UNL     1       5.844   3.754  13.838  0.00  0.00    +0.000 A 
ATOM     24  C   UNL     1       6.028   3.323  12.492  0.00  0.00    +0.000 A 
ATOM     25  C   UNL     1       7.090   3.951  11.888  0.00  0.00    +0.000 A 
ATOM     26  S   UNL     1       7.876   5.040  12.941  0.00  0.00    +0.000 S 
ENDBRANCH  21  22
ENDBRANCH   7  21
TORSDOF 4
ENDMDL
MODEL 8
REMARK VINA RESULT:      -6.8      7.242     10.186
REMARK  Name = 
REMARK  4 active torsions:
REMARK  status: ('A' for Active; 'I' for Inactive)
REMARK    1  A    between atoms: C_2  and  C_20
REMARK    2  A    between atoms: N_3  and  C_4
REMARK    3  A    between atoms: N_10  and  C_11
REMARK    4  A    between atoms: C_11  and  C_12
REMARK                            x       y       z     vdW  Elec       q    Type
REMARK                         _______ _______ _______ _____ _____    ______ ____
ROOT
ATOM      1  C   UNL     1       1.349   8.402  21.203  0.00  0.00    +0.000 C 
ATOM      2  C   UNL     1      -0.109   8.407  21.672  0.00  0.00    +0.000 C 
ATOM      3  O   UNL     1      -0.691   9.679  21.353  0.00  0.00    +0.000 OA
ATOM      4  C   UNL     1       0.073  10.311  20.314  0.00  0.00    +0.000 C 
ATOM      5  C   UNL     1       0.385  11.730  20.809  0.00  0.00    +0.000 C 
ATOM      6  C   UNL     1      -0.825  12.662  20.686  0.00  0.00    +0.000 C 
ATOM      7  N   UNL     1      -1.356  12.751  19.318  0.00  0.00    +0.000 NA
ATOM      8  C   UNL     1      -1.825  11.411  18.925  0.00  0.00    +0.000 C 
ATOM      9  C   UNL     1      -0.745  10.325  19.000  0.00  0.00    +0.000 C 
ATOM     10  C   UNL     1       1.344   9.465  20.119  0.00  0.00    +0.000 C 
ENDROOT
BRANCH   1  13
ATOM     11  O   UNL     1       2.623   7.879  18.655  0.00  0.00    +0.000 OA
ATOM     12  C   UNL     1       2.385   6.942  19.413  0.00  0.00    +0.000 C 
ATOM     13  N   UNL     1       1.919   7.136  20.704  0.00  0.00    +0.000 N 
ATOM     14  H   UNL     1       1.755   6.275  21.222  0.00  0.00    +0.000 HD
BRANCH  12  15
ATOM     15  C   UNL     1       2.640   5.498  18.984  0.00  0.00    +0.000 A 
ATOM     16  C   UNL     1       1.914   4.940  17.933  0.00  0.00    +0.000 A 
ATOM     17  C   UNL     1       2.144   3.610  17.573  0.00  0.00    +0.000 A 
ATOM     18  C   UNL     1       3.092   2.878  18.269  0.00  0.00    +0.000 A 
ATOM     19  C   UNL     1       3.782   3.512  19.300  0.00  0.00    +0.000 A 
ATOM     20  N   UNL     1       3.588   4.804  19.679  0.00  0.00    +0.000 NA
ENDBRANCH  12  15
ENDBRANCH   1  13
BRANCH   7  21
ATOM     21  C   UNL     1      -0.410  13.307  18.332  0.00  0.00    +0.000 C 
BRANCH  21  22
ATOM     22  C   UNL     1       0.168  14.645  18.722  0.00  0.00    +0.000 A 
ATOM     23  C   UNL     1      -0.487  15.845  18.921  0.00  0.00    +0.000 A 
ATOM     24  C   UNL     1       0.410  16.902  19.253  0.00  0.00    +0.000 A 
ATOM     25  C   UNL     1       1.715  16.477  19.305  0.00  0.00    +0.000 A 
ATOM     26  S   UNL     1       1.865  14.817  18.938  0.00  0.00    +0.000 S 
ENDBRANCH  21  22
ENDBRANCH   7  21
TORSDOF 4
ENDMDL
MODEL 9
REMARK VINA RESULT:      -6.8      7.392     10.361
REMARK  Name = 
REMARK  4 active torsions:
REMARK  status: ('A' for Active; 'I' for Inactive)
REMARK    1  A    between atoms: C_2  and  C_20
REMARK    2  A    between atoms: N_3  and  C_4
REMARK    3  A    between atoms: N_10  and  C_11
REMARK    4  A    between atoms: C_11  and  C_12
REMARK                            x       y       z     vdW  Elec       q    Type
REMARK                         _______ _______ _______ _____ _____    ______ ____
ROOT
ATOM      1  C   UNL     1       1.664   8.471  20.192  0.00  0.00    +0.000 C 
ATOM      2  C   UNL     1       0.389   8.474  21.039  0.00  0.00    +0.000 C 
ATOM      3  O   UNL     1      -0.150   9.803  21.055  0.00  0.00    +0.000 OA
ATOM      4  C   UNL     1       0.361  10.543  19.934  0.00  0.00    +0.000 C 
ATOM      5  C   UNL     1       0.908  11.861  20.500  0.00  0.00    +0.000 C 
ATOM      6  C   UNL     1      -0.210  12.854  20.832  0.00  0.00    +0.000 C 
ATOM      7  N   UNL     1      -1.076  13.162  19.684  0.00  0.00    +0.000 NA
ATOM      8  C   UNL     1      -1.741  11.916  19.269  0.00  0.00    +0.000 C 
ATOM      9  C   UNL     1      -0.772  10.783  18.907  0.00  0.00    +0.000 C 
ATOM     10  C   UNL     1       1.460   9.677  19.294  0.00  0.00    +0.000 C 
ENDROOT
BRANCH   1  13
ATOM     11  O   UNL     1       1.886   5.727  21.095  0.00  0.00    +0.000 OA
ATOM     12  C   UNL     1       2.199   6.009  19.940  0.00  0.00    +0.000 C 
ATOM     13  N   UNL     1       1.976   7.265  19.400  0.00  0.00    +0.000 N 
ATOM     14  H   UNL     1       2.291   7.367  18.437  0.00  0.00    +0.000 HD
BRANCH  12  15
ATOM     15  C   UNL     1       2.816   4.961  19.014  0.00  0.00    +0.000 A 
ATOM     16  C   UNL     1       2.022   4.296  18.081  0.00  0.00    +0.000 A 
ATOM     17  C   UNL     1       2.599   3.324  17.261  0.00  0.00    +0.000 A 
ATOM     18  C   UNL     1       3.950   3.046  17.394  0.00  0.00    +0.000 A 
ATOM     19  C   UNL     1       4.676   3.762  18.344  0.00  0.00    +0.000 A 
ATOM     20  N   UNL     1       4.151   4.717  19.159  0.00  0.00    +0.000 NA
ENDBRANCH  12  15
ENDBRANCH   1  13
BRANCH   7  21
ATOM     21  C   UNL     1      -0.382  13.812  18.555  0.00  0.00    +0.000 C 
BRANCH  21  22
ATOM     22  C   UNL     1       0.110  15.206  18.856  0.00  0.00    +0.000 A 
ATOM     23  C   UNL     1      -0.626  16.345  19.116  0.00  0.00    +0.000 A 
ATOM     24  C   UNL     1       0.200  17.488  19.324  0.00  0.00    +0.000 A 
ATOM     25  C   UNL     1       1.537  17.185  19.225  0.00  0.00    +0.000 A 
ATOM     26  S   UNL     1       1.797  15.537  18.864  0.00  0.00    +0.000 S 
ENDBRANCH  21  22
ENDBRANCH   7  21
TORSDOF 4
ENDMDL
