MODEL 1
REMARK VINA RESULT:      -8.3      0.000      0.000
REMARK  Name = 
REMARK  5 active torsions:
REMARK  status: ('A' for Active; 'I' for Inactive)
REMARK    1  A    between atoms: N_6  and  C_7
REMARK    2  A    between atoms: C_7  and  C_8
REMARK    3  A    between atoms: C_8  and  C_9
REMARK    4  A    between atoms: C_15  and  N_16
REMARK    5  A    between atoms: N_16  and  C_17
REMARK                            x       y       z     vdW  Elec       q    Type
REMARK                         _______ _______ _______ _____ _____    ______ ____
ROOT
ATOM      1  C   UNL     1       3.446   3.125  17.731  0.00  0.00    +0.000 C 
ATOM      2  O   UNL     1       3.144   1.946  17.528  0.00  0.00    +0.000 OA
ATOM      3  N   UNL     1       3.435   3.677  19.007  0.00  0.00    +0.000 N 
ATOM      4  C   UNL     1       3.120   2.828  20.153  0.00  0.00    +0.000 C 
ATOM      5  C   UNL     1       1.827   3.285  20.810  0.00  0.00    +0.000 C 
ATOM      6  C   UNL     1       1.908   4.761  21.208  0.00  0.00    +0.000 C 
ATOM      7  C   UNL     1       2.282   5.659  20.010  0.00  0.00    +0.000 C 
ATOM      8  C   UNL     1       3.565   5.103  19.333  0.00  0.00    +0.000 C 
ENDROOT
BRANCH   7   9
ATOM      9  N   UNL     1       2.511   7.056  20.445  0.00  0.00    +0.000 N 
ATOM     10  H   UNL     1       3.494   7.322  20.397  0.00  0.00    +0.000 HD
BRANCH   9  11
ATOM     11  C   UNL     1       1.723   8.072  19.866  0.00  0.00    +0.000 A 
ATOM     12  C   UNL     1       0.812   8.830  20.607  0.00  0.00    +0.000 A 
ATOM     13  C   UNL     1       0.053   9.843  20.019  0.00  0.00    +0.000 A 
ATOM     14  C   UNL     1       0.232  10.128  18.676  0.00  0.00    +0.000 A 
ATOM     15  F   UNL     1      -0.508  11.084  18.106  0.00  0.00    +0.000 F 
ATOM     16  C   UNL     1       1.172   9.440  17.923  0.00  0.00    +0.000 A 
ATOM     17  C   UNL     1       1.931   8.430  18.526  0.00  0.00    +0.000 A 
ENDBRANCH   9  11
ENDBRANCH   7   9
BRANCH   1  18
ATOM     18  C   UNL     1       3.953   3.993  16.596  0.00  0.00    +0.000 C 
BRANCH  18  19
ATOM     19  C   UNL     1       5.451   3.837  16.376  0.00  0.00    +0.000 C 
BRANCH  19  25
ATOM     20  O   UNL     1       5.473   6.743  15.796  0.00  0.00    +0.000 OA
ATOM     21  C   UNL     1       6.192   6.236  16.641  0.00  0.00    +0.000 C 
ATOM     22  C   UNL     1       7.284   6.948  17.408  0.00  0.00    +0.000 C 
ATOM     23  C   UNL     1       7.605   5.973  18.533  0.00  0.00    +0.000 C 
ATOM     24  C   UNL     1       7.277   4.617  17.942  0.00  0.00    +0.000 C 
ATOM     25  N   UNL     1       6.198   4.903  17.036  0.00  0.00    +0.000 N 
ENDBRANCH  19  25
ENDBRANCH  18  19
ENDBRANCH   1  18
TORSDOF 5
ENDMDL
MODEL 2
REMARK VINA RESULT:      -8.2      1.151      1.711
REMARK  Name = 
REMARK  5 active torsions:
REMARK  status: ('A' for Active; 'I' for Inactive)
REMARK    1  A    between atoms: N_6  and  C_7
REMARK    2  A    between atoms: C_7  and  C_8
REMARK    3  A    between atoms: C_8  and  C_9
REMARK    4  A    between atoms: C_15  and  N_16
REMARK    5  A    between atoms: N_16  and  C_17
REMARK                            x       y       z     vdW  Elec       q    Type
REMARK                         _______ _______ _______ _____ _____    ______ ____
ROOT
ATOM      1  C   UNL     1       3.906   3.195  17.799  0.00  0.00    +0.000 C 
ATOM      2  O   UNL     1       3.849   2.023  17.421  0.00  0.00    +0.000 OA
ATOM      3  N   UNL     1       3.745   3.545  19.135  0.00  0.00    +0.000 N 
ATOM      4  C   UNL     1       3.565   2.495  20.134  0.00  0.00    +0.000 C 
ATOM      5  C   UNL     1       2.186   2.599  20.767  0.00  0.00    +0.000 C 
ATOM      6  C   UNL     1       1.962   3.990  21.365  0.00  0.00    +0.000 C 
ATOM      7  C   UNL     1       2.193   5.107  20.324  0.00  0.00    +0.000 C 
ATOM      8  C   UNL     1       3.582   4.908  19.658  0.00  0.00    +0.000 C 
ENDROOT
BRANCH   7   9
ATOM      9  N   UNL     1       2.129   6.444  20.958  0.00  0.00    +0.000 N 
ATOM     10  H   UNL     1       2.930   6.628  21.560  0.00  0.00    +0.000 HD
BRANCH   9  11
ATOM     11  C   UNL     1       1.898   7.563  20.131  0.00  0.00    +0.000 A 
ATOM     12  C   UNL     1       2.296   7.602  18.792  0.00  0.00    +0.000 A 
ATOM     13  C   UNL     1       2.044   8.714  17.986  0.00  0.00    +0.000 A 
ATOM     14  C   UNL     1       1.351   9.789  18.515  0.00  0.00    +0.000 A 
ATOM     15  F   UNL     1       1.125  10.862  17.750  0.00  0.00    +0.000 F 
ATOM     16  C   UNL     1       0.884   9.760  19.821  0.00  0.00    +0.000 A 
ATOM     17  C   UNL     1       1.139   8.637  20.618  0.00  0.00    +0.000 A 
ENDBRANCH   9  11
ENDBRANCH   7   9
BRANCH   1  18
ATOM     18  C   UNL     1       4.271   4.298  16.824  0.00  0.00    +0.000 C 
BRANCH  18  19
ATOM     19  C   UNL     1       5.741   4.260  16.433  0.00  0.00    +0.000 C 
BRANCH  19  25
ATOM     20  O   UNL     1       8.085   4.271  18.246  0.00  0.00    +0.000 OA
ATOM     21  C   UNL     1       7.521   5.294  17.895  0.00  0.00    +0.000 C 
ATOM     22  C   UNL     1       7.814   6.683  18.418  0.00  0.00    +0.000 C 
ATOM     23  C   UNL     1       7.097   7.584  17.420  0.00  0.00    +0.000 C 
ATOM     24  C   UNL     1       5.944   6.732  16.927  0.00  0.00    +0.000 C 
ATOM     25  N   UNL     1       6.469   5.395  16.992  0.00  0.00    +0.000 N 
ENDBRANCH  19  25
ENDBRANCH  18  19
ENDBRANCH   1  18
TORSDOF 5
ENDMDL
MODEL 3
REMARK VINA RESULT:      -8.1      0.805      1.308
REMARK  Name = 
REMARK  5 active torsions:
REMARK  status: ('A' for Active; 'I' for Inactive)
REMARK    1  A    between atoms: N_6  and  C_7
REMARK    2  A    between atoms: C_7  and  C_8
REMARK    3  A    between atoms: C_8  and  C_9
REMARK    4  A    between atoms: C_15  and  N_16
REMARK    5  A    between atoms: N_16  and  C_17
REMARK                            x       y       z     vdW  Elec       q    Type
REMARK                         _______ _______ _______ _____ _____    ______ ____
ROOT
ATOM      1  C   UNL     1       3.831   2.925  17.907  0.00  0.00    +0.000 C 
ATOM      2  O   UNL     1       3.795   1.726  17.621  0.00  0.00    +0.000 OA
ATOM      3  N   UNL     1       3.738   3.371  19.220  0.00  0.00    +0.000 N 
ATOM      4  C   UNL     1       3.657   2.395  20.304  0.00  0.00    +0.000 C 
ATOM      5  C   UNL     1       2.316   2.502  21.013  0.00  0.00    +0.000 C 
ATOM      6  C   UNL     1       2.078   3.927  21.519  0.00  0.00    +0.000 C 
ATOM      7  C   UNL     1       2.204   4.967  20.386  0.00  0.00    +0.000 C 
ATOM      8  C   UNL     1       3.556   4.763  19.650  0.00  0.00    +0.000 C 
ENDROOT
BRANCH   7   9
ATOM      9  N   UNL     1       2.129   6.346  20.921  0.00  0.00    +0.000 N 
ATOM     10  H   UNL     1       2.877   6.547  21.583  0.00  0.00    +0.000 HD
BRANCH   9  11
ATOM     11  C   UNL     1       2.015   7.412  20.005  0.00  0.00    +0.000 A 
ATOM     12  C   UNL     1       2.523   7.342  18.705  0.00  0.00    +0.000 A 
ATOM     13  C   UNL     1       2.386   8.402  17.808  0.00  0.00    +0.000 A 
ATOM     14  C   UNL     1       1.699   9.537  18.203  0.00  0.00    +0.000 A 
ATOM     15  F   UNL     1       1.583  10.561  17.351  0.00  0.00    +0.000 F 
ATOM     16  C   UNL     1       1.125   9.618  19.463  0.00  0.00    +0.000 A 
ATOM     17  C   UNL     1       1.265   8.545  20.353  0.00  0.00    +0.000 A 
ENDBRANCH   9  11
ENDBRANCH   7   9
BRANCH   1  18
ATOM     18  C   UNL     1       4.095   3.962  16.832  0.00  0.00    +0.000 C 
BRANCH  18  19
ATOM     19  C   UNL     1       5.556   3.991  16.405  0.00  0.00    +0.000 C 
BRANCH  19  25
ATOM     20  O   UNL     1       5.523   6.914  15.924  0.00  0.00    +0.000 OA
ATOM     21  C   UNL     1       6.258   6.391  16.745  0.00  0.00    +0.000 C 
ATOM     22  C   UNL     1       7.344   7.097  17.527  0.00  0.00    +0.000 C 
ATOM     23  C   UNL     1       7.691   6.090  18.616  0.00  0.00    +0.000 C 
ATOM     24  C   UNL     1       7.382   4.749  17.982  0.00  0.00    +0.000 C 
ATOM     25  N   UNL     1       6.290   5.047  17.095  0.00  0.00    +0.000 N 
ENDBRANCH  19  25
ENDBRANCH  18  19
ENDBRANCH   1  18
TORSDOF 5
ENDMDL
MODEL 4
REMARK VINA RESULT:      -8.1      1.123      1.395
REMARK  Name = 
REMARK  5 active torsions:
REMARK  status: ('A' for Active; 'I' for Inactive)
REMARK    1  A    between atoms: N_6  and  C_7
REMARK    2  A    between atoms: C_7  and  C_8
REMARK    3  A    between atoms: C_8  and  C_9
REMARK    4  A    between atoms: C_15  and  N_16
REMARK    5  A    between atoms: N_16  and  C_17
REMARK                            x       y       z     vdW  Elec       q    Type
REMARK                         _______ _______ _______ _____ _____    ______ ____
ROOT
ATOM      1  C   UNL     1       4.013   3.941  17.510  0.00  0.00    +0.000 C 
ATOM      2  O   UNL     1       3.913   2.780  17.105  0.00  0.00    +0.000 OA
ATOM      3  N   UNL     1       3.807   4.275  18.844  0.00  0.00    +0.000 N 
ATOM      4  C   UNL     1       3.525   3.218  19.811  0.00  0.00    +0.000 C 
ATOM      5  C   UNL     1       2.125   3.382  20.382  0.00  0.00    +0.000 C 
ATOM      6  C   UNL     1       1.945   4.773  20.997  0.00  0.00    +0.000 C 
ATOM      7  C   UNL     1       2.282   5.894  19.991  0.00  0.00    +0.000 C 
ATOM      8  C   UNL     1       3.688   5.635  19.386  0.00  0.00    +0.000 C 
ENDROOT
BRANCH   7   9
ATOM      9  N   UNL     1       2.256   7.221  20.648  0.00  0.00    +0.000 N 
ATOM     10  H   UNL     1       3.189   7.556  20.884  0.00  0.00    +0.000 HD
BRANCH   9  11
ATOM     11  C   UNL     1       1.530   8.259  20.027  0.00  0.00    +0.000 A 
ATOM     12  C   UNL     1       0.687   9.115  20.738  0.00  0.00    +0.000 A 
ATOM     13  C   UNL     1      -0.010  10.147  20.107  0.00  0.00    +0.000 A 
ATOM     14  C   UNL     1       0.165  10.348  18.749  0.00  0.00    +0.000 A 
ATOM     15  F   UNL     1      -0.517  11.323  18.139  0.00  0.00    +0.000 F 
ATOM     16  C   UNL     1       1.043   9.559  18.021  0.00  0.00    +0.000 A 
ATOM     17  C   UNL     1       1.740   8.530  18.667  0.00  0.00    +0.000 A 
ENDBRANCH   9  11
ENDBRANCH   7   9
BRANCH   1  18
ATOM     18  C   UNL     1       4.479   5.041  16.576  0.00  0.00    +0.000 C 
BRANCH  18  19
ATOM     19  C   UNL     1       5.954   4.912  16.224  0.00  0.00    +0.000 C 
BRANCH  19  25
ATOM     20  O   UNL     1       7.886   4.287  18.382  0.00  0.00    +0.000 OA
ATOM     21  C   UNL     1       7.602   5.430  18.065  0.00  0.00    +0.000 C 
ATOM     22  C   UNL     1       8.055   6.680  18.786  0.00  0.00    +0.000 C 
ATOM     23  C   UNL     1       7.719   7.788  17.796  0.00  0.00    +0.000 C 
ATOM     24  C   UNL     1       6.534   7.239  17.027  0.00  0.00    +0.000 C 
ATOM     25  N   UNL     1       6.772   5.821  17.021  0.00  0.00    +0.000 N 
ENDBRANCH  19  25
ENDBRANCH  18  19
ENDBRANCH   1  18
TORSDOF 5
ENDMDL
MODEL 5
REMARK VINA RESULT:      -7.8      1.429      1.980
REMARK  Name = 
REMARK  5 active torsions:
REMARK  status: ('A' for Active; 'I' for Inactive)
REMARK    1  A    between atoms: N_6  and  C_7
REMARK    2  A    between atoms: C_7  and  C_8
REMARK    3  A    between atoms: C_8  and  C_9
REMARK    4  A    between atoms: C_15  and  N_16
REMARK    5  A    between atoms: N_16  and  C_17
REMARK                            x       y       z     vdW  Elec       q    Type
REMARK                         _______ _______ _______ _____ _____    ______ ____
ROOT
ATOM      1  C   UNL     1       4.083   3.095  18.147  0.00  0.00    +0.000 C 
ATOM      2  O   UNL     1       3.798   2.010  17.635  0.00  0.00    +0.000 OA
ATOM      3  N   UNL     1       3.459   3.547  19.304  0.00  0.00    +0.000 N 
ATOM      4  C   UNL     1       2.483   2.692  19.973  0.00  0.00    +0.000 C 
ATOM      5  C   UNL     1       1.103   3.332  19.934  0.00  0.00    +0.000 C 
ATOM      6  C   UNL     1       1.135   4.735  20.544  0.00  0.00    +0.000 C 
ATOM      7  C   UNL     1       2.195   5.632  19.869  0.00  0.00    +0.000 C 
ATOM      8  C   UNL     1       3.564   4.898  19.871  0.00  0.00    +0.000 C 
ENDROOT
BRANCH   7   9
ATOM      9  N   UNL     1       2.321   6.928  20.574  0.00  0.00    +0.000 N 
ATOM     10  H   UNL     1       3.288   7.156  20.798  0.00  0.00    +0.000 HD
BRANCH   9  11
ATOM     11  C   UNL     1       1.692   8.058  20.010  0.00  0.00    +0.000 A 
ATOM     12  C   UNL     1       0.889   8.922  20.759  0.00  0.00    +0.000 A 
ATOM     13  C   UNL     1       0.289  10.044  20.185  0.00  0.00    +0.000 A 
ATOM     14  C   UNL     1       0.523  10.328  18.851  0.00  0.00    +0.000 A 
ATOM     15  F   UNL     1      -0.066  11.391  18.294  0.00  0.00    +0.000 F 
ATOM     16  C   UNL     1       1.366   9.529  18.092  0.00  0.00    +0.000 A 
ATOM     17  C   UNL     1       1.966   8.409  18.680  0.00  0.00    +0.000 A 
ENDBRANCH   9  11
ENDBRANCH   7   9
BRANCH   1  18
ATOM     18  C   UNL     1       5.217   3.933  17.588  0.00  0.00    +0.000 C 
BRANCH  18  19
ATOM     19  C   UNL     1       4.777   4.778  16.401  0.00  0.00    +0.000 C 
BRANCH  19  25
ATOM     20  O   UNL     1       7.506   5.834  15.931  0.00  0.00    +0.000 OA
ATOM     21  C   UNL     1       6.901   5.180  15.097  0.00  0.00    +0.000 C 
ATOM     22  C   UNL     1       7.360   4.927  13.678  0.00  0.00    +0.000 C 
ATOM     23  C   UNL     1       6.439   3.805  13.215  0.00  0.00    +0.000 C 
ATOM     24  C   UNL     1       5.174   4.019  14.021  0.00  0.00    +0.000 C 
ATOM     25  N   UNL     1       5.658   4.580  15.253  0.00  0.00    +0.000 N 
ENDBRANCH  19  25
ENDBRANCH  18  19
ENDBRANCH   1  18
TORSDOF 5
ENDMDL
MODEL 6
REMARK VINA RESULT:      -7.7      2.953      6.157
REMARK  Name = 
REMARK  5 active torsions:
REMARK  status: ('A' for Active; 'I' for Inactive)
REMARK    1  A    between atoms: N_6  and  C_7
REMARK    2  A    between atoms: C_7  and  C_8
REMARK    3  A    between atoms: C_8  and  C_9
REMARK    4  A    between atoms: C_15  and  N_16
REMARK    5  A    between atoms: N_16  and  C_17
REMARK                            x       y       z     vdW  Elec       q    Type
REMARK                         _______ _______ _______ _____ _____    ______ ____
ROOT
ATOM      1  C   UNL     1       1.736   4.983  19.991  0.00  0.00    +0.000 C 
ATOM      2  O   UNL     1       0.796   4.530  20.648  0.00  0.00    +0.000 OA
ATOM      3  N   UNL     1       2.162   4.386  18.809  0.00  0.00    +0.000 N 
ATOM      4  C   UNL     1       1.441   3.226  18.292  0.00  0.00    +0.000 C 
ATOM      5  C   UNL     1       2.338   1.998  18.301  0.00  0.00    +0.000 C 
ATOM      6  C   UNL     1       3.626   2.257  17.515  0.00  0.00    +0.000 C 
ATOM      7  C   UNL     1       4.372   3.507  18.030  0.00  0.00    +0.000 C 
ATOM      8  C   UNL     1       3.390   4.710  18.071  0.00  0.00    +0.000 C 
ENDROOT
BRANCH   7   9
ATOM      9  N   UNL     1       5.525   3.833  17.160  0.00  0.00    +0.000 N 
ATOM     10  H   UNL     1       5.258   3.933  16.182  0.00  0.00    +0.000 HD
BRANCH   9  11
ATOM     11  C   UNL     1       6.357   4.910  17.531  0.00  0.00    +0.000 A 
ATOM     12  C   UNL     1       6.497   6.055  16.744  0.00  0.00    +0.000 A 
ATOM     13  C   UNL     1       7.313   7.118  17.137  0.00  0.00    +0.000 A 
ATOM     14  C   UNL     1       7.971   7.050  18.352  0.00  0.00    +0.000 A 
ATOM     15  F   UNL     1       8.768   8.058  18.722  0.00  0.00    +0.000 F 
ATOM     16  C   UNL     1       7.806   5.957  19.191  0.00  0.00    +0.000 A 
ATOM     17  C   UNL     1       6.981   4.900  18.787  0.00  0.00    +0.000 A 
ENDBRANCH   9  11
ENDBRANCH   7   9
BRANCH   1  18
ATOM     18  C   UNL     1       2.397   6.287  20.395  0.00  0.00    +0.000 C 
BRANCH  18  19
ATOM     19  C   UNL     1       1.380   7.372  20.718  0.00  0.00    +0.000 C 
BRANCH  19  25
ATOM     20  O   UNL     1       0.256  10.106  20.925  0.00  0.00    +0.000 OA
ATOM     21  C   UNL     1       0.836   9.707  19.928  0.00  0.00    +0.000 C 
ATOM     22  C   UNL     1       0.951  10.457  18.619  0.00  0.00    +0.000 C 
ATOM     23  C   UNL     1       2.034   9.686  17.876  0.00  0.00    +0.000 C 
ATOM     24  C   UNL     1       1.910   8.276  18.416  0.00  0.00    +0.000 C 
ATOM     25  N   UNL     1       1.461   8.476  19.767  0.00  0.00    +0.000 N 
ENDBRANCH  19  25
ENDBRANCH  18  19
ENDBRANCH   1  18
TORSDOF 5
ENDMDL
MODEL 7
REMARK VINA RESULT:      -7.7      1.161      1.683
REMARK  Name = 
REMARK  5 active torsions:
REMARK  status: ('A' for Active; 'I' for Inactive)
REMARK    1  A    between atoms: N_6  and  C_7
REMARK    2  A    between atoms: C_7  and  C_8
REMARK    3  A    between atoms: C_8  and  C_9
REMARK    4  A    between atoms: C_15  and  N_16
REMARK    5  A    between atoms: N_16  and  C_17
REMARK                            x       y       z     vdW  Elec       q    Type
REMARK                         _______ _______ _______ _____ _____    ______ ____
ROOT
ATOM      1  C   UNL     1       3.778   2.525  18.483  0.00  0.00    +0.000 C 
ATOM      2  O   UNL     1       3.410   1.486  17.929  0.00  0.00    +0.000 OA
ATOM      3  N   UNL     1       3.066   3.088  19.536  0.00  0.00    +0.000 N 
ATOM      4  C   UNL     1       1.881   2.403  20.047  0.00  0.00    +0.000 C 
ATOM      5  C   UNL     1       0.637   3.244  19.805  0.00  0.00    +0.000 C 
ATOM      6  C   UNL     1       0.792   4.638  20.420  0.00  0.00    +0.000 C 
ATOM      7  C   UNL     1       2.066   5.350  19.915  0.00  0.00    +0.000 C 
ATOM      8  C   UNL     1       3.290   4.417  20.118  0.00  0.00    +0.000 C 
ENDROOT
BRANCH   7   9
ATOM      9  N   UNL     1       2.282   6.625  20.637  0.00  0.00    +0.000 N 
ATOM     10  H   UNL     1       3.249   6.742  20.938  0.00  0.00    +0.000 HD
BRANCH   9  11
ATOM     11  C   UNL     1       1.831   7.818  20.035  0.00  0.00    +0.000 A 
ATOM     12  C   UNL     1       2.044   8.104  18.684  0.00  0.00    +0.000 A 
ATOM     13  C   UNL     1       1.576   9.283  18.103  0.00  0.00    +0.000 A 
ATOM     14  C   UNL     1       0.851  10.175  18.874  0.00  0.00    +0.000 A 
ATOM     15  F   UNL     1       0.418  11.314  18.325  0.00  0.00    +0.000 F 
ATOM     16  C   UNL     1       0.564   9.895  20.203  0.00  0.00    +0.000 A 
ATOM     17  C   UNL     1       1.035   8.706  20.773  0.00  0.00    +0.000 A 
ENDBRANCH   9  11
ENDBRANCH   7   9
BRANCH   1  18
ATOM     18  C   UNL     1       5.097   3.170  18.104  0.00  0.00    +0.000 C 
BRANCH  18  19
ATOM     19  C   UNL     1       4.985   4.008  16.838  0.00  0.00    +0.000 C 
BRANCH  19  25
ATOM     20  O   UNL     1       7.904   4.461  16.605  0.00  0.00    +0.000 OA
ATOM     21  C   UNL     1       7.123   5.350  16.900  0.00  0.00    +0.000 C 
ATOM     22  C   UNL     1       7.505   6.750  17.327  0.00  0.00    +0.000 C 
ATOM     23  C   UNL     1       6.188   7.509  17.232  0.00  0.00    +0.000 C 
ATOM     24  C   UNL     1       5.139   6.448  17.490  0.00  0.00    +0.000 C 
ATOM     25  N   UNL     1       5.738   5.254  16.958  0.00  0.00    +0.000 N 
ENDBRANCH  19  25
ENDBRANCH  18  19
ENDBRANCH   1  18
TORSDOF 5
ENDMDL
MODEL 8
REMARK VINA RESULT:      -7.7      1.524      2.279
REMARK  Name = 
REMARK  5 active torsions:
REMARK  status: ('A' for Active; 'I' for Inactive)
REMARK    1  A    between atoms: N_6  and  C_7
REMARK    2  A    between atoms: C_7  and  C_8
REMARK    3  A    between atoms: C_8  and  C_9
REMARK    4  A    between atoms: C_15  and  N_16
REMARK    5  A    between atoms: N_16  and  C_17
REMARK                            x       y       z     vdW  Elec       q    Type
REMARK                         _______ _______ _______ _____ _____    ______ ____
ROOT
ATOM      1  C   UNL     1       4.242   3.408  18.086  0.00  0.00    +0.000 C 
ATOM      2  O   UNL     1       4.093   2.355  17.462  0.00  0.00    +0.000 OA
ATOM      3  N   UNL     1       3.529   3.682  19.248  0.00  0.00    +0.000 N 
ATOM      4  C   UNL     1       2.622   2.672  19.786  0.00  0.00    +0.000 C 
ATOM      5  C   UNL     1       1.186   3.171  19.738  0.00  0.00    +0.000 C 
ATOM      6  C   UNL     1       1.046   4.505  20.475  0.00  0.00    +0.000 C 
ATOM      7  C   UNL     1       2.033   5.565  19.939  0.00  0.00    +0.000 C 
ATOM      8  C   UNL     1       3.470   4.975  19.940  0.00  0.00    +0.000 C 
ENDROOT
BRANCH   7   9
ATOM      9  N   UNL     1       1.994   6.793  20.766  0.00  0.00    +0.000 N 
ATOM     10  H   UNL     1       2.826   6.896  21.346  0.00  0.00    +0.000 HD
BRANCH   9  11
ATOM     11  C   UNL     1       1.714   8.018  20.127  0.00  0.00    +0.000 A 
ATOM     12  C   UNL     1       1.984   8.240  18.775  0.00  0.00    +0.000 A 
ATOM     13  C   UNL     1       1.683   9.455  18.158  0.00  0.00    +0.000 A 
ATOM     14  C   UNL     1       1.069  10.453  18.894  0.00  0.00    +0.000 A 
ATOM     15  F   UNL     1       0.798  11.624  18.310  0.00  0.00    +0.000 F 
ATOM     16  C   UNL     1       0.726  10.247  20.223  0.00  0.00    +0.000 A 
ATOM     17  C   UNL     1       1.029   9.022  20.829  0.00  0.00    +0.000 A 
ENDBRANCH   9  11
ENDBRANCH   7   9
BRANCH   1  18
ATOM     18  C   UNL     1       5.303   4.406  17.663  0.00  0.00    +0.000 C 
BRANCH  18  19
ATOM     19  C   UNL     1       4.895   5.192  16.425  0.00  0.00    +0.000 C 
BRANCH  19  25
ATOM     20  O   UNL     1       7.682   5.920  15.730  0.00  0.00    +0.000 OA
ATOM     21  C   UNL     1       6.973   5.256  14.992  0.00  0.00    +0.000 C 
ATOM     22  C   UNL     1       7.325   4.829  13.585  0.00  0.00    +0.000 C 
ATOM     23  C   UNL     1       6.277   3.768  13.275  0.00  0.00    +0.000 C 
ATOM     24  C   UNL     1       5.085   4.181  14.114  0.00  0.00    +0.000 C 
ATOM     25  N   UNL     1       5.687   4.801  15.263  0.00  0.00    +0.000 N 
ENDBRANCH  19  25
ENDBRANCH  18  19
ENDBRANCH   1  18
TORSDOF 5
ENDMDL
MODEL 9
REMARK VINA RESULT:      -7.6      0.937      1.430
REMARK  Name = 
REMARK  5 active torsions:
REMARK  status: ('A' for Active; 'I' for Inactive)
REMARK    1  A    between atoms: N_6  and  C_7
REMARK    2  A    between atoms: C_7  and  C_8
REMARK    3  A    between atoms: C_8  and  C_9
REMARK    4  A    between atoms: C_15  and  N_16
REMARK    5  A    between atoms: N_16  and  C_17
REMARK                            x       y       z     vdW  Elec       q    Type
REMARK                         _______ _______ _______ _____ _____    ______ ____
ROOT
ATOM      1  C   UNL     1       3.958   4.249  17.455  0.00  0.00    +0.000 C 
ATOM      2  O   UNL     1       3.845   3.118  16.975  0.00  0.00    +0.000 OA
ATOM      3  N   UNL     1       3.671   4.513  18.789  0.00  0.00    +0.000 N 
ATOM      4  C   UNL     1       3.284   3.414  19.670  0.00  0.00    +0.000 C 
ATOM      5  C   UNL     1       1.854   3.601  20.153  0.00  0.00    +0.000 C 
ATOM      6  C   UNL     1       1.682   4.960  20.838  0.00  0.00    +0.000 C 
ATOM      7  C   UNL     1       2.130   6.123  19.927  0.00  0.00    +0.000 C 
ATOM      8  C   UNL     1       3.565   5.843  19.404  0.00  0.00    +0.000 C 
ENDROOT
BRANCH   7   9
ATOM      9  N   UNL     1       2.106   7.410  20.660  0.00  0.00    +0.000 N 
ATOM     10  H   UNL     1       3.037   7.712  20.943  0.00  0.00    +0.000 HD
BRANCH   9  11
ATOM     11  C   UNL     1       1.418   8.495  20.079  0.00  0.00    +0.000 A 
ATOM     12  C   UNL     1       1.566   8.845  18.734  0.00  0.00    +0.000 A 
ATOM     13  C   UNL     1       0.863   9.914  18.175  0.00  0.00    +0.000 A 
ATOM     14  C   UNL     1      -0.029  10.622  18.961  0.00  0.00    +0.000 A 
ATOM     15  F   UNL     1      -0.688  11.657  18.432  0.00  0.00    +0.000 F 
ATOM     16  C   UNL     1      -0.250  10.264  20.283  0.00  0.00    +0.000 A 
ATOM     17  C   UNL     1       0.458   9.187  20.832  0.00  0.00    +0.000 A 
ENDBRANCH   9  11
ENDBRANCH   7   9
BRANCH   1  18
ATOM     18  C   UNL     1       4.528   5.382  16.623  0.00  0.00    +0.000 C 
BRANCH  18  19
ATOM     19  C   UNL     1       6.010   5.192  16.331  0.00  0.00    +0.000 C 
BRANCH  19  25
ATOM     20  O   UNL     1       6.817   7.991  16.876  0.00  0.00    +0.000 OA
ATOM     21  C   UNL     1       7.217   7.050  17.542  0.00  0.00    +0.000 C 
ATOM     22  C   UNL     1       8.268   7.125  18.627  0.00  0.00    +0.000 C 
ATOM     23  C   UNL     1       8.124   5.785  19.337  0.00  0.00    +0.000 C 
ATOM     24  C   UNL     1       7.617   4.854  18.255  0.00  0.00    +0.000 C 
ATOM     25  N   UNL     1       6.836   5.720  17.413  0.00  0.00    +0.000 N 
ENDBRANCH  19  25
ENDBRANCH  18  19
ENDBRANCH   1  18
TORSDOF 5
ENDMDL
