MODEL 1
REMARK VINA RESULT:      -5.9      0.000      0.000
REMARK  Name = 
REMARK  3 active torsions:
REMARK  status: ('A' for Active; 'I' for Inactive)
REMARK    1  A    between atoms: C_1  and  C_2
REMARK    2  A    between atoms: C_2  and  N_3
REMARK    3  A    between atoms: C_7  and  C_8
REMARK                            x       y       z     vdW  Elec       q    Type
REMARK                         _______ _______ _______ _____ _____    ______ ____
ROOT
ATOM      1  N   UNL     1       6.653   4.732  17.614  0.00  0.00    +0.000 N 
ATOM      2  C   UNL     1       7.497   5.406  18.448  0.00  0.00    +0.000 A 
ATOM      3  N   UNL     1       7.007   5.415  19.663  0.00  0.00    +0.000 NA
ATOM      4  N   UNL     1       5.816   4.739  19.631  0.00  0.00    +0.000 NA
ATOM      5  C   UNL     1       5.595   4.331  18.393  0.00  0.00    +0.000 A 
ENDROOT
BRANCH   5   6
ATOM      6  C   UNL     1       4.405   3.540  17.963  0.00  0.00    +0.000 C 
ATOM      7  C   UNL     1       3.188   4.451  17.678  0.00  0.00    +0.000 C 
ATOM      8  N   UNL     1       1.955   3.696  17.356  0.00  0.00    +0.000 NA
ATOM      9  C   UNL     1       1.733   2.683  18.402  0.00  0.00    +0.000 C 
ATOM     10  C   UNL     1       2.965   1.790  18.618  0.00  0.00    +0.000 C 
ATOM     11  O   UNL     1       4.107   2.572  18.986  0.00  0.00    +0.000 OA
ATOM     12  H   UNL     1       2.094   3.222  16.463  0.00  0.00    +0.000 HD
ENDBRANCH   5   6
BRANCH   1  14
ATOM     13  C   UNL     1       6.066   5.276  15.269  0.00  0.00    +0.000 C 
ATOM     14  C   UNL     1       6.928   4.464  16.220  0.00  0.00    +0.000 C 
ENDBRANCH   1  14
TORSDOF 2
ENDMDL
MODEL 2
REMARK VINA RESULT:      -5.7      1.328      1.473
REMARK  Name = 
REMARK  3 active torsions:
REMARK  status: ('A' for Active; 'I' for Inactive)
REMARK    1  A    between atoms: C_1  and  C_2
REMARK    2  A    between atoms: C_2  and  N_3
REMARK    3  A    between atoms: C_7  and  C_8
REMARK                            x       y       z     vdW  Elec       q    Type
REMARK                         _______ _______ _______ _____ _____    ______ ____
ROOT
ATOM      1  N   UNL     1       5.954   4.418  16.764  0.00  0.00    +0.000 N 
ATOM      2  C   UNL     1       7.271   4.631  17.047  0.00  0.00    +0.000 A 
ATOM      3  N   UNL     1       7.462   4.578  18.343  0.00  0.00    +0.000 NA
ATOM      4  N   UNL     1       6.248   4.332  18.927  0.00  0.00    +0.000 NA
ATOM      5  C   UNL     1       5.332   4.242  17.978  0.00  0.00    +0.000 A 
ENDROOT
BRANCH   5   6
ATOM      6  C   UNL     1       3.887   3.959  18.220  0.00  0.00    +0.000 C 
ATOM      7  C   UNL     1       3.477   4.294  19.673  0.00  0.00    +0.000 C 
ATOM      8  N   UNL     1       2.078   3.922  19.986  0.00  0.00    +0.000 NA
ATOM      9  C   UNL     1       1.861   2.519  19.593  0.00  0.00    +0.000 C 
ATOM     10  C   UNL     1       2.258   2.256  18.132  0.00  0.00    +0.000 C 
ATOM     11  O   UNL     1       3.636   2.576  17.909  0.00  0.00    +0.000 OA
ATOM     12  H   UNL     1       1.458   4.517  19.436  0.00  0.00    +0.000 HD
ENDBRANCH   5   6
BRANCH   1  14
ATOM     13  C   UNL     1       6.477   4.185  14.354  0.00  0.00    +0.000 C 
ATOM     14  C   UNL     1       5.412   4.330  15.428  0.00  0.00    +0.000 C 
ENDBRANCH   1  14
TORSDOF 2
ENDMDL
MODEL 3
REMARK VINA RESULT:      -5.7      1.617      5.043
REMARK  Name = 
REMARK  3 active torsions:
REMARK  status: ('A' for Active; 'I' for Inactive)
REMARK    1  A    between atoms: C_1  and  C_2
REMARK    2  A    between atoms: C_2  and  N_3
REMARK    3  A    between atoms: C_7  and  C_8
REMARK                            x       y       z     vdW  Elec       q    Type
REMARK                         _______ _______ _______ _____ _____    ______ ____
ROOT
ATOM      1  N   UNL     1       2.762   3.276  19.231  0.00  0.00    +0.000 N 
ATOM      2  C   UNL     1       1.539   3.292  18.626  0.00  0.00    +0.000 A 
ATOM      3  N   UNL     1       1.645   3.798  17.422  0.00  0.00    +0.000 NA
ATOM      4  N   UNL     1       2.961   4.128  17.230  0.00  0.00    +0.000 NA
ATOM      5  C   UNL     1       3.638   3.821  18.323  0.00  0.00    +0.000 A 
ENDROOT
BRANCH   5   6
ATOM      6  C   UNL     1       5.108   4.013  18.490  0.00  0.00    +0.000 C 
ATOM      7  C   UNL     1       5.423   5.141  19.500  0.00  0.00    +0.000 C 
ATOM      8  N   UNL     1       6.871   5.439  19.609  0.00  0.00    +0.000 NA
ATOM      9  C   UNL     1       7.414   5.654  18.257  0.00  0.00    +0.000 C 
ATOM     10  C   UNL     1       7.095   4.487  17.310  0.00  0.00    +0.000 C 
ATOM     11  O   UNL     1       5.681   4.290  17.198  0.00  0.00    +0.000 OA
ATOM     12  H   UNL     1       7.333   4.630  20.026  0.00  0.00    +0.000 HD
ENDBRANCH   5   6
BRANCH   1  14
ATOM     13  C   UNL     1       1.988   3.107  21.579  0.00  0.00    +0.000 C 
ATOM     14  C   UNL     1       3.017   2.708  20.535  0.00  0.00    +0.000 C 
ENDBRANCH   1  14
TORSDOF 2
ENDMDL
MODEL 4
REMARK VINA RESULT:      -5.6      1.691      1.695
REMARK  Name = 
REMARK  3 active torsions:
REMARK  status: ('A' for Active; 'I' for Inactive)
REMARK    1  A    between atoms: C_1  and  C_2
REMARK    2  A    between atoms: C_2  and  N_3
REMARK    3  A    between atoms: C_7  and  C_8
REMARK                            x       y       z     vdW  Elec       q    Type
REMARK                         _______ _______ _______ _____ _____    ______ ____
ROOT
ATOM      1  N   UNL     1       6.217   4.476  17.477  0.00  0.00    +0.000 N 
ATOM      2  C   UNL     1       7.530   4.798  17.667  0.00  0.00    +0.000 A 
ATOM      3  N   UNL     1       7.737   5.097  18.926  0.00  0.00    +0.000 NA
ATOM      4  N   UNL     1       6.538   4.977  19.579  0.00  0.00    +0.000 NA
ATOM      5  C   UNL     1       5.616   4.609  18.707  0.00  0.00    +0.000 A 
ENDROOT
BRANCH   5   6
ATOM      6  C   UNL     1       4.185   4.354  19.044  0.00  0.00    +0.000 C 
ATOM      7  C   UNL     1       3.524   5.594  19.692  0.00  0.00    +0.000 C 
ATOM      8  N   UNL     1       2.135   5.346  20.144  0.00  0.00    +0.000 NA
ATOM      9  C   UNL     1       2.118   4.132  20.979  0.00  0.00    +0.000 C 
ATOM     10  C   UNL     1       2.759   2.930  20.270  0.00  0.00    +0.000 C 
ATOM     11  O   UNL     1       4.119   3.210  19.914  0.00  0.00    +0.000 OA
ATOM     12  H   UNL     1       1.554   5.188  19.321  0.00  0.00    +0.000 HD
ENDBRANCH   5   6
BRANCH   1  14
ATOM     13  C   UNL     1       5.622   5.096  15.153  0.00  0.00    +0.000 C 
ATOM     14  C   UNL     1       5.665   4.018  16.223  0.00  0.00    +0.000 C 
ENDBRANCH   1  14
TORSDOF 2
ENDMDL
MODEL 5
REMARK VINA RESULT:      -5.5      1.564      1.668
REMARK  Name = 
REMARK  3 active torsions:
REMARK  status: ('A' for Active; 'I' for Inactive)
REMARK    1  A    between atoms: C_1  and  C_2
REMARK    2  A    between atoms: C_2  and  N_3
REMARK    3  A    between atoms: C_7  and  C_8
REMARK                            x       y       z     vdW  Elec       q    Type
REMARK                         _______ _______ _______ _____ _____    ______ ____
ROOT
ATOM      1  N   UNL     1       6.339   5.912  17.671  0.00  0.00    +0.000 N 
ATOM      2  C   UNL     1       7.537   6.491  17.972  0.00  0.00    +0.000 A 
ATOM      3  N   UNL     1       7.915   6.131  19.174  0.00  0.00    +0.000 NA
ATOM      4  N   UNL     1       6.947   5.303  19.678  0.00  0.00    +0.000 NA
ATOM      5  C   UNL     1       5.989   5.174  18.776  0.00  0.00    +0.000 A 
ENDROOT
BRANCH   5   6
ATOM      6  C   UNL     1       4.770   4.331  18.951  0.00  0.00    +0.000 C 
ATOM      7  C   UNL     1       3.635   5.112  19.656  0.00  0.00    +0.000 C 
ATOM      8  N   UNL     1       2.447   4.277  19.949  0.00  0.00    +0.000 NA
ATOM      9  C   UNL     1       2.885   3.058  20.651  0.00  0.00    +0.000 C 
ATOM     10  C   UNL     1       3.990   2.312  19.888  0.00  0.00    +0.000 C 
ATOM     11  O   UNL     1       5.134   3.152  19.691  0.00  0.00    +0.000 OA
ATOM     12  H   UNL     1       2.018   4.009  19.062  0.00  0.00    +0.000 HD
ENDBRANCH   5   6
BRANCH   1  14
ATOM     13  C   UNL     1       6.279   5.154  15.312  0.00  0.00    +0.000 C 
ATOM     14  C   UNL     1       5.674   6.034  16.393  0.00  0.00    +0.000 C 
ENDBRANCH   1  14
TORSDOF 2
ENDMDL
MODEL 6
REMARK VINA RESULT:      -5.5      2.398      4.788
REMARK  Name = 
REMARK  3 active torsions:
REMARK  status: ('A' for Active; 'I' for Inactive)
REMARK    1  A    between atoms: C_1  and  C_2
REMARK    2  A    between atoms: C_2  and  N_3
REMARK    3  A    between atoms: C_7  and  C_8
REMARK                            x       y       z     vdW  Elec       q    Type
REMARK                         _______ _______ _______ _____ _____    ______ ____
ROOT
ATOM      1  N   UNL     1       2.851   4.407  20.176  0.00  0.00    +0.000 N 
ATOM      2  C   UNL     1       1.981   5.375  20.585  0.00  0.00    +0.000 A 
ATOM      3  N   UNL     1       2.214   6.487  19.932  0.00  0.00    +0.000 NA
ATOM      4  N   UNL     1       3.261   6.251  19.080  0.00  0.00    +0.000 NA
ATOM      5  C   UNL     1       3.653   4.998  19.229  0.00  0.00    +0.000 A 
ENDROOT
BRANCH   5   6
ATOM      6  C   UNL     1       4.759   4.360  18.456  0.00  0.00    +0.000 C 
ATOM      7  C   UNL     1       6.143   4.885  18.905  0.00  0.00    +0.000 C 
ATOM      8  N   UNL     1       7.260   4.360  18.085  0.00  0.00    +0.000 NA
ATOM      9  C   UNL     1       6.949   4.580  16.663  0.00  0.00    +0.000 C 
ATOM     10  C   UNL     1       5.577   4.010  16.272  0.00  0.00    +0.000 C 
ATOM     11  O   UNL     1       4.534   4.602  17.056  0.00  0.00    +0.000 OA
ATOM     12  H   UNL     1       7.337   3.356  18.254  0.00  0.00    +0.000 HD
ENDBRANCH   5   6
BRANCH   1  14
ATOM     13  C   UNL     1       1.658   2.740  21.569  0.00  0.00    +0.000 C 
ATOM     14  C   UNL     1       2.819   3.037  20.634  0.00  0.00    +0.000 C 
ENDBRANCH   1  14
TORSDOF 2
ENDMDL
MODEL 7
REMARK VINA RESULT:      -5.5      2.279      3.168
REMARK  Name = 
REMARK  3 active torsions:
REMARK  status: ('A' for Active; 'I' for Inactive)
REMARK    1  A    between atoms: C_1  and  C_2
REMARK    2  A    between atoms: C_2  and  N_3
REMARK    3  A    between atoms: C_7  and  C_8
REMARK                            x       y       z     vdW  Elec       q    Type
REMARK                         _______ _______ _______ _____ _____    ______ ____
ROOT
ATOM      1  N   UNL     1       5.438   4.647  18.370  0.00  0.00    +0.000 N 
ATOM      2  C   UNL     1       5.754   4.474  17.054  0.00  0.00    +0.000 A 
ATOM      3  N   UNL     1       4.776   3.856  16.439  0.00  0.00    +0.000 NA
ATOM      4  N   UNL     1       3.797   3.612  17.366  0.00  0.00    +0.000 NA
ATOM      5  C   UNL     1       4.196   4.081  18.536  0.00  0.00    +0.000 A 
ENDROOT
BRANCH   5   6
ATOM      6  C   UNL     1       3.390   4.021  19.791  0.00  0.00    +0.000 C 
ATOM      7  C   UNL     1       3.624   2.696  20.554  0.00  0.00    +0.000 C 
ATOM      8  N   UNL     1       2.759   2.550  21.748  0.00  0.00    +0.000 NA
ATOM      9  C   UNL     1       1.361   2.795  21.353  0.00  0.00    +0.000 C 
ATOM     10  C   UNL     1       1.188   4.138  20.627  0.00  0.00    +0.000 C 
ATOM     11  O   UNL     1       2.003   4.193  19.450  0.00  0.00    +0.000 OA
ATOM     12  H   UNL     1       3.036   3.255  22.432  0.00  0.00    +0.000 HD
ENDBRANCH   5   6
BRANCH   1  14
ATOM     13  C   UNL     1       7.658   5.658  18.801  0.00  0.00    +0.000 C 
ATOM     14  C   UNL     1       6.260   5.363  19.318  0.00  0.00    +0.000 C 
ENDBRANCH   1  14
TORSDOF 2
ENDMDL
MODEL 8
REMARK VINA RESULT:      -5.5      3.178      4.872
REMARK  Name = 
REMARK  3 active torsions:
REMARK  status: ('A' for Active; 'I' for Inactive)
REMARK    1  A    between atoms: C_1  and  C_2
REMARK    2  A    between atoms: C_2  and  N_3
REMARK    3  A    between atoms: C_7  and  C_8
REMARK                            x       y       z     vdW  Elec       q    Type
REMARK                         _______ _______ _______ _____ _____    ______ ____
ROOT
ATOM      1  N   UNL     1       6.061   5.683  17.166  0.00  0.00    +0.000 N 
ATOM      2  C   UNL     1       6.644   5.408  18.368  0.00  0.00    +0.000 A 
ATOM      3  N   UNL     1       7.712   4.670  18.187  0.00  0.00    +0.000 NA
ATOM      4  N   UNL     1       7.834   4.448  16.840  0.00  0.00    +0.000 NA
ATOM      5  C   UNL     1       6.835   5.052  16.220  0.00  0.00    +0.000 A 
ENDROOT
BRANCH   5   6
ATOM      6  C   UNL     1       6.636   5.057  14.741  0.00  0.00    +0.000 C 
ATOM      7  C   UNL     1       6.028   3.724  14.244  0.00  0.00    +0.000 C 
ATOM      8  N   UNL     1       5.919   3.646  12.769  0.00  0.00    +0.000 NA
ATOM      9  C   UNL     1       7.225   3.985  12.178  0.00  0.00    +0.000 C 
ATOM     10  C   UNL     1       7.761   5.332  12.686  0.00  0.00    +0.000 C 
ATOM     11  O   UNL     1       7.903   5.323  14.112  0.00  0.00    +0.000 OA
ATOM     12  H   UNL     1       5.230   4.334  12.462  0.00  0.00    +0.000 HD
ENDBRANCH   5   6
BRANCH   1  14
ATOM     13  C   UNL     1       3.810   6.280  18.010  0.00  0.00    +0.000 C 
ATOM     14  C   UNL     1       4.910   6.540  16.996  0.00  0.00    +0.000 C 
ENDBRANCH   1  14
TORSDOF 2
ENDMDL
MODEL 9
REMARK VINA RESULT:      -5.5      1.344      1.628
REMARK  Name = 
REMARK  3 active torsions:
REMARK  status: ('A' for Active; 'I' for Inactive)
REMARK    1  A    between atoms: C_1  and  C_2
REMARK    2  A    between atoms: C_2  and  N_3
REMARK    3  A    between atoms: C_7  and  C_8
REMARK                            x       y       z     vdW  Elec       q    Type
REMARK                         _______ _______ _______ _____ _____    ______ ____
ROOT
ATOM      1  N   UNL     1       6.270   4.509  17.519  0.00  0.00    +0.000 N 
ATOM      2  C   UNL     1       7.561   4.877  17.764  0.00  0.00    +0.000 A 
ATOM      3  N   UNL     1       7.701   5.195  19.027  0.00  0.00    +0.000 NA
ATOM      4  N   UNL     1       6.478   5.040  19.627  0.00  0.00    +0.000 NA
ATOM      5  C   UNL     1       5.610   4.633  18.718  0.00  0.00    +0.000 A 
ENDROOT
BRANCH   5   6
ATOM      6  C   UNL     1       4.174   4.333  18.994  0.00  0.00    +0.000 C 
ATOM      7  C   UNL     1       3.918   2.810  19.081  0.00  0.00    +0.000 C 
ATOM      8  N   UNL     1       2.486   2.467  19.243  0.00  0.00    +0.000 NA
ATOM      9  C   UNL     1       1.712   3.163  18.200  0.00  0.00    +0.000 C 
ATOM     10  C   UNL     1       1.986   4.674  18.183  0.00  0.00    +0.000 C 
ATOM     11  O   UNL     1       3.376   4.941  17.962  0.00  0.00    +0.000 OA
ATOM     12  H   UNL     1       2.178   2.799  20.157  0.00  0.00    +0.000 HD
ENDBRANCH   5   6
BRANCH   1  14
ATOM     13  C   UNL     1       6.675   4.418  15.076  0.00  0.00    +0.000 C 
ATOM     14  C   UNL     1       5.791   4.022  16.246  0.00  0.00    +0.000 C 
ENDBRANCH   1  14
TORSDOF 2
ENDMDL
