MODEL 1
REMARK VINA RESULT:      -8.6      0.000      0.000
REMARK  Name = 
REMARK  5 active torsions:
REMARK  status: ('A' for Active; 'I' for Inactive)
REMARK    1  A    between atoms: C_7  and  C_8
REMARK    2  A    between atoms: C_8  and  N_9
REMARK    3  A    between atoms: N_9  and  C_10
REMARK    4  A    between atoms: C_10  and  C_11
REMARK    5  A    between atoms: C_14  and  C_15
REMARK                            x       y       z     vdW  Elec       q    Type
REMARK                         _______ _______ _______ _____ _____    ______ ____
ROOT
ATOM      1  C   UNL     1       2.841   7.126  18.747  0.00  0.00    +0.000 A 
ATOM      2  C   UNL     1       2.666   8.018  17.683  0.00  0.00    +0.000 A 
ATOM      3  C   UNL     1       1.849   9.143  17.823  0.00  0.00    +0.000 A 
ATOM      4  C   UNL     1       1.154   9.397  19.018  0.00  0.00    +0.000 A 
ATOM      5  C   UNL     1       1.297   8.455  20.053  0.00  0.00    +0.000 A 
ATOM      6  C   UNL     1       2.143   7.352  19.934  0.00  0.00    +0.000 A 
ENDROOT
BRANCH   4   7
ATOM      7  C   UNL     1       0.302  10.592  19.171  0.00  0.00    +0.000 A 
ATOM      8  C   UNL     1       0.582  11.603  20.109  0.00  0.00    +0.000 A 
ATOM      9  C   UNL     1      -0.243  12.716  20.203  0.00  0.00    +0.000 A 
ATOM     10  N   UNL     1      -1.334  12.950  19.448  0.00  0.00    +0.000 NA
ATOM     11  C   UNL     1      -1.580  11.965  18.567  0.00  0.00    +0.000 A 
ATOM     12  N   UNL     1      -2.624  11.977  17.685  0.00  0.00    +0.000 N 
ATOM     13  C   UNL     1      -2.622  10.837  16.933  0.00  0.00    +0.000 A 
ATOM     14  C   UNL     1      -1.558  10.068  17.357  0.00  0.00    +0.000 A 
ATOM     15  C   UNL     1      -0.856  10.790  18.373  0.00  0.00    +0.000 A 
ATOM     16  H   UNL     1      -3.287  12.734  17.626  0.00  0.00    +0.000 HD
ENDBRANCH   4   7
BRANCH   1  17
ATOM     17  C   UNL     1       3.782   5.955  18.625  0.00  0.00    +0.000 C 
BRANCH  17  18
ATOM     18  N   UNL     1       3.543   5.147  17.430  0.00  0.00    +0.000 NA
ATOM     19  H   UNL     1       2.633   5.397  17.046  0.00  0.00    +0.000 HD
BRANCH  18  20
ATOM     20  C   UNL     1       3.538   3.706  17.707  0.00  0.00    +0.000 C 
BRANCH  20  27
ATOM     21  F   UNL     1       4.737   2.682  20.091  0.00  0.00    +0.000 F 
ATOM     22  C   UNL     1       3.418   2.923  20.112  0.00  0.00    +0.000 A 
ATOM     23  C   UNL     1       2.710   2.670  21.285  0.00  0.00    +0.000 A 
ATOM     24  C   UNL     1       1.339   2.908  21.333  0.00  0.00    +0.000 A 
ATOM     25  C   UNL     1       0.677   3.393  20.205  0.00  0.00    +0.000 A 
ATOM     26  C   UNL     1       1.392   3.644  19.033  0.00  0.00    +0.000 A 
ATOM     27  C   UNL     1       2.778   3.421  18.975  0.00  0.00    +0.000 A 
ENDBRANCH  20  27
ENDBRANCH  18  20
ENDBRANCH  17  18
ENDBRANCH   1  17
TORSDOF 5
ENDMDL
MODEL 2
REMARK VINA RESULT:      -8.6      1.062      1.432
REMARK  Name = 
REMARK  5 active torsions:
REMARK  status: ('A' for Active; 'I' for Inactive)
REMARK    1  A    between atoms: C_7  and  C_8
REMARK    2  A    between atoms: C_8  and  N_9
REMARK    3  A    between atoms: N_9  and  C_10
REMARK    4  A    between atoms: C_10  and  C_11
REMARK    5  A    between atoms: C_14  and  C_15
REMARK                            x       y       z     vdW  Elec       q    Type
REMARK                         _______ _______ _______ _____ _____    ______ ____
ROOT
ATOM      1  C   UNL     1       3.097   7.002  18.481  0.00  0.00    +0.000 A 
ATOM      2  C   UNL     1       2.841   8.062  17.604  0.00  0.00    +0.000 A 
ATOM      3  C   UNL     1       1.975   9.096  17.970  0.00  0.00    +0.000 A 
ATOM      4  C   UNL     1       1.310   9.088  19.209  0.00  0.00    +0.000 A 
ATOM      5  C   UNL     1       1.535   7.982  20.048  0.00  0.00    +0.000 A 
ATOM      6  C   UNL     1       2.430   6.967  19.706  0.00  0.00    +0.000 A 
ENDROOT
BRANCH   4   7
ATOM      7  C   UNL     1       0.405  10.186  19.601  0.00  0.00    +0.000 A 
ATOM      8  C   UNL     1       0.596  10.937  20.776  0.00  0.00    +0.000 A 
ATOM      9  C   UNL     1      -0.275  11.971  21.092  0.00  0.00    +0.000 A 
ATOM     10  N   UNL     1      -1.333  12.359  20.354  0.00  0.00    +0.000 NA
ATOM     11  C   UNL     1      -1.493  11.621  19.243  0.00  0.00    +0.000 A 
ATOM     12  N   UNL     1      -2.489  11.827  18.329  0.00  0.00    +0.000 N 
ATOM     13  C   UNL     1      -2.403  10.912  17.320  0.00  0.00    +0.000 A 
ATOM     14  C   UNL     1      -1.334  10.087  17.604  0.00  0.00    +0.000 A 
ATOM     15  C   UNL     1      -0.715  10.549  18.808  0.00  0.00    +0.000 A 
ATOM     16  H   UNL     1      -3.177  12.559  18.419  0.00  0.00    +0.000 HD
ENDBRANCH   4   7
BRANCH   1  17
ATOM     17  C   UNL     1       4.091   5.927  18.121  0.00  0.00    +0.000 C 
BRANCH  17  18
ATOM     18  N   UNL     1       3.523   4.879  17.273  0.00  0.00    +0.000 NA
ATOM     19  H   UNL     1       2.519   5.032  17.196  0.00  0.00    +0.000 HD
BRANCH  18  20
ATOM     20  C   UNL     1       3.736   3.531  17.812  0.00  0.00    +0.000 C 
BRANCH  20  27
ATOM     21  F   UNL     1       0.899   3.865  17.835  0.00  0.00    +0.000 F 
ATOM     22  C   UNL     1       1.489   3.489  18.978  0.00  0.00    +0.000 A 
ATOM     23  C   UNL     1       0.696   3.277  20.104  0.00  0.00    +0.000 A 
ATOM     24  C   UNL     1       1.284   2.889  21.304  0.00  0.00    +0.000 A 
ATOM     25  C   UNL     1       2.666   2.722  21.379  0.00  0.00    +0.000 A 
ATOM     26  C   UNL     1       3.456   2.936  20.249  0.00  0.00    +0.000 A 
ATOM     27  C   UNL     1       2.874   3.313  19.027  0.00  0.00    +0.000 A 
ENDBRANCH  20  27
ENDBRANCH  18  20
ENDBRANCH  17  18
ENDBRANCH   1  17
TORSDOF 5
ENDMDL
MODEL 3
REMARK VINA RESULT:      -8.6      1.478      2.427
REMARK  Name = 
REMARK  5 active torsions:
REMARK  status: ('A' for Active; 'I' for Inactive)
REMARK    1  A    between atoms: C_7  and  C_8
REMARK    2  A    between atoms: C_8  and  N_9
REMARK    3  A    between atoms: N_9  and  C_10
REMARK    4  A    between atoms: C_10  and  C_11
REMARK    5  A    between atoms: C_14  and  C_15
REMARK                            x       y       z     vdW  Elec       q    Type
REMARK                         _______ _______ _______ _____ _____    ______ ____
ROOT
ATOM      1  C   UNL     1       3.436   6.479  18.384  0.00  0.00    +0.000 A 
ATOM      2  C   UNL     1       3.169   7.575  17.557  0.00  0.00    +0.000 A 
ATOM      3  C   UNL     1       2.315   8.597  17.983  0.00  0.00    +0.000 A 
ATOM      4  C   UNL     1       1.676   8.541  19.233  0.00  0.00    +0.000 A 
ATOM      5  C   UNL     1       1.912   7.401  20.021  0.00  0.00    +0.000 A 
ATOM      6  C   UNL     1       2.794   6.397  19.620  0.00  0.00    +0.000 A 
ENDROOT
BRANCH   4   7
ATOM      7  C   UNL     1       0.786   9.627  19.689  0.00  0.00    +0.000 A 
ATOM      8  C   UNL     1       0.277  10.603  18.811  0.00  0.00    +0.000 A 
ATOM      9  C   UNL     1      -0.570  11.595  19.287  0.00  0.00    +0.000 A 
ATOM     10  N   UNL     1      -0.987  11.726  20.562  0.00  0.00    +0.000 NA
ATOM     11  C   UNL     1      -0.480  10.785  21.376  0.00  0.00    +0.000 A 
ATOM     12  N   UNL     1      -0.763  10.701  22.711  0.00  0.00    +0.000 N 
ATOM     13  C   UNL     1      -0.090   9.654  23.273  0.00  0.00    +0.000 A 
ATOM     14  C   UNL     1       0.656   9.063  22.275  0.00  0.00    +0.000 A 
ATOM     15  C   UNL     1       0.389   9.746  21.046  0.00  0.00    +0.000 A 
ATOM     16  H   UNL     1      -1.383  11.341  23.184  0.00  0.00    +0.000 HD
ENDBRANCH   4   7
BRANCH   1  17
ATOM     17  C   UNL     1       4.416   5.414  17.960  0.00  0.00    +0.000 C 
BRANCH  17  18
ATOM     18  N   UNL     1       3.818   4.387  17.108  0.00  0.00    +0.000 NA
ATOM     19  H   UNL     1       2.839   4.625  16.951  0.00  0.00    +0.000 HD
BRANCH  18  20
ATOM     20  C   UNL     1       3.869   3.049  17.705  0.00  0.00    +0.000 C 
BRANCH  20  27
ATOM     21  F   UNL     1       4.773   2.522  20.364  0.00  0.00    +0.000 F 
ATOM     22  C   UNL     1       3.460   2.718  20.182  0.00  0.00    +0.000 A 
ATOM     23  C   UNL     1       2.614   2.663  21.288  0.00  0.00    +0.000 A 
ATOM     24  C   UNL     1       1.245   2.859  21.126  0.00  0.00    +0.000 A 
ATOM     25  C   UNL     1       0.724   3.105  19.856  0.00  0.00    +0.000 A 
ATOM     26  C   UNL     1       1.575   3.159  18.752  0.00  0.00    +0.000 A 
ATOM     27  C   UNL     1       2.960   2.977  18.904  0.00  0.00    +0.000 A 
ENDBRANCH  20  27
ENDBRANCH  18  20
ENDBRANCH  17  18
ENDBRANCH   1  17
TORSDOF 5
ENDMDL
MODEL 4
REMARK VINA RESULT:      -8.6      1.690      2.933
REMARK  Name = 
REMARK  5 active torsions:
REMARK  status: ('A' for Active; 'I' for Inactive)
REMARK    1  A    between atoms: C_7  and  C_8
REMARK    2  A    between atoms: C_8  and  N_9
REMARK    3  A    between atoms: N_9  and  C_10
REMARK    4  A    between atoms: C_10  and  C_11
REMARK    5  A    between atoms: C_14  and  C_15
REMARK                            x       y       z     vdW  Elec       q    Type
REMARK                         _______ _______ _______ _____ _____    ______ ____
ROOT
ATOM      1  C   UNL     1       3.576   6.300  18.328  0.00  0.00    +0.000 A 
ATOM      2  C   UNL     1       2.922   6.246  19.563  0.00  0.00    +0.000 A 
ATOM      3  C   UNL     1       2.045   7.263  19.950  0.00  0.00    +0.000 A 
ATOM      4  C   UNL     1       1.817   8.382  19.131  0.00  0.00    +0.000 A 
ATOM      5  C   UNL     1       2.532   8.445  17.922  0.00  0.00    +0.000 A 
ATOM      6  C   UNL     1       3.378   7.414  17.511  0.00  0.00    +0.000 A 
ENDROOT
BRANCH   4   7
ATOM      7  C   UNL     1       0.880   9.449  19.533  0.00  0.00    +0.000 A 
ATOM      8  C   UNL     1       0.322  10.351  18.608  0.00  0.00    +0.000 A 
ATOM      9  C   UNL     1      -0.566  11.328  19.035  0.00  0.00    +0.000 A 
ATOM     10  N   UNL     1      -0.982  11.511  20.303  0.00  0.00    +0.000 NA
ATOM     11  C   UNL     1      -0.428  10.640  21.164  0.00  0.00    +0.000 A 
ATOM     12  N   UNL     1      -0.699  10.618  22.504  0.00  0.00    +0.000 N 
ATOM     13  C   UNL     1       0.024   9.636  23.117  0.00  0.00    +0.000 A 
ATOM     14  C   UNL     1       0.791   9.024  22.148  0.00  0.00    +0.000 A 
ATOM     15  C   UNL     1       0.486   9.626  20.886  0.00  0.00    +0.000 A 
ATOM     16  H   UNL     1      -1.345  11.254  22.946  0.00  0.00    +0.000 HD
ENDBRANCH   4   7
BRANCH   1  17
ATOM     17  C   UNL     1       4.462   5.167  17.874  0.00  0.00    +0.000 C 
BRANCH  17  18
ATOM     18  N   UNL     1       3.743   4.139  17.124  0.00  0.00    +0.000 NA
ATOM     19  H   UNL     1       2.770   4.426  17.030  0.00  0.00    +0.000 HD
BRANCH  18  20
ATOM     20  C   UNL     1       3.767   2.829  17.785  0.00  0.00    +0.000 C 
BRANCH  20  27
ATOM     21  F   UNL     1       0.960   3.368  17.774  0.00  0.00    +0.000 F 
ATOM     22  C   UNL     1       1.541   3.122  18.957  0.00  0.00    +0.000 A 
ATOM     23  C   UNL     1       0.753   3.134  20.106  0.00  0.00    +0.000 A 
ATOM     24  C   UNL     1       1.331   2.884  21.347  0.00  0.00    +0.000 A 
ATOM     25  C   UNL     1       2.699   2.629  21.438  0.00  0.00    +0.000 A 
ATOM     26  C   UNL     1       3.484   2.618  20.284  0.00  0.00    +0.000 A 
ATOM     27  C   UNL     1       2.910   2.854  19.023  0.00  0.00    +0.000 A 
ENDBRANCH  20  27
ENDBRANCH  18  20
ENDBRANCH  17  18
ENDBRANCH   1  17
TORSDOF 5
ENDMDL
MODEL 5
REMARK VINA RESULT:      -8.6      5.541      9.017
REMARK  Name = 
REMARK  5 active torsions:
REMARK  status: ('A' for Active; 'I' for Inactive)
REMARK    1  A    between atoms: C_7  and  C_8
REMARK    2  A    between atoms: C_8  and  N_9
REMARK    3  A    between atoms: N_9  and  C_10
REMARK    4  A    between atoms: C_10  and  C_11
REMARK    5  A    between atoms: C_14  and  C_15
REMARK                            x       y       z     vdW  Elec       q    Type
REMARK                         _______ _______ _______ _____ _____    ______ ____
ROOT
ATOM      1  C   UNL     1       6.989   7.011  17.671  0.00  0.00    +0.000 A 
ATOM      2  C   UNL     1       7.153   5.959  18.578  0.00  0.00    +0.000 A 
ATOM      3  C   UNL     1       6.135   5.022  18.775  0.00  0.00    +0.000 A 
ATOM      4  C   UNL     1       4.908   5.123  18.098  0.00  0.00    +0.000 A 
ATOM      5  C   UNL     1       4.742   6.223  17.236  0.00  0.00    +0.000 A 
ATOM      6  C   UNL     1       5.769   7.139  17.005  0.00  0.00    +0.000 A 
ENDROOT
BRANCH   4   7
ATOM      7  C   UNL     1       3.838   4.126  18.295  0.00  0.00    +0.000 A 
ATOM      8  C   UNL     1       3.810   2.902  17.601  0.00  0.00    +0.000 A 
ATOM      9  C   UNL     1       2.789   1.991  17.834  0.00  0.00    +0.000 A 
ATOM     10  N   UNL     1       1.774   2.155  18.705  0.00  0.00    +0.000 NA
ATOM     11  C   UNL     1       1.824   3.335  19.347  0.00  0.00    +0.000 A 
ATOM     12  N   UNL     1       0.911   3.729  20.286  0.00  0.00    +0.000 N 
ATOM     13  C   UNL     1       1.216   4.977  20.747  0.00  0.00    +0.000 A 
ATOM     14  C   UNL     1       2.343   5.400  20.075  0.00  0.00    +0.000 A 
ATOM     15  C   UNL     1       2.770   4.348  19.204  0.00  0.00    +0.000 A 
ATOM     16  H   UNL     1       0.132   3.156  20.572  0.00  0.00    +0.000 HD
ENDBRANCH   4   7
BRANCH   1  17
ATOM     17  C   UNL     1       8.113   7.978  17.399  0.00  0.00    +0.000 C 
BRANCH  17  18
ATOM     18  N   UNL     1       8.434   8.825  18.546  0.00  0.00    +0.000 NA
ATOM     19  H   UNL     1       7.763   8.634  19.289  0.00  0.00    +0.000 HD
BRANCH  18  20
ATOM     20  C   UNL     1       8.369  10.257  18.234  0.00  0.00    +0.000 C 
BRANCH  20  27
ATOM     21  F   UNL     1       8.956  10.822  20.973  0.00  0.00    +0.000 F 
ATOM     22  C   UNL     1       9.857  11.198  20.054  0.00  0.00    +0.000 A 
ATOM     23  C   UNL     1      11.023  11.831  20.479  0.00  0.00    +0.000 A 
ATOM     24  C   UNL     1      11.974  12.234  19.545  0.00  0.00    +0.000 A 
ATOM     25  C   UNL     1      11.753  12.009  18.187  0.00  0.00    +0.000 A 
ATOM     26  C   UNL     1      10.583  11.375  17.767  0.00  0.00    +0.000 A 
ATOM     27  C   UNL     1       9.623  10.950  18.700  0.00  0.00    +0.000 A 
ENDBRANCH  20  27
ENDBRANCH  18  20
ENDBRANCH  17  18
ENDBRANCH   1  17
TORSDOF 5
ENDMDL
MODEL 6
REMARK VINA RESULT:      -8.5      0.500      1.077
REMARK  Name = 
REMARK  5 active torsions:
REMARK  status: ('A' for Active; 'I' for Inactive)
REMARK    1  A    between atoms: C_7  and  C_8
REMARK    2  A    between atoms: C_8  and  N_9
REMARK    3  A    between atoms: N_9  and  C_10
REMARK    4  A    between atoms: C_10  and  C_11
REMARK    5  A    between atoms: C_14  and  C_15
REMARK                            x       y       z     vdW  Elec       q    Type
REMARK                         _______ _______ _______ _____ _____    ______ ____
ROOT
ATOM      1  C   UNL     1       3.014   7.015  18.570  0.00  0.00    +0.000 A 
ATOM      2  C   UNL     1       2.368   7.025  19.811  0.00  0.00    +0.000 A 
ATOM      3  C   UNL     1       1.479   8.051  20.144  0.00  0.00    +0.000 A 
ATOM      4  C   UNL     1       1.231   9.117  19.262  0.00  0.00    +0.000 A 
ATOM      5  C   UNL     1       1.936   9.118  18.045  0.00  0.00    +0.000 A 
ATOM      6  C   UNL     1       2.795   8.076  17.690  0.00  0.00    +0.000 A 
ENDROOT
BRANCH   4   7
ATOM      7  C   UNL     1       0.282  10.193  19.606  0.00  0.00    +0.000 A 
ATOM      8  C   UNL     1       0.379  10.931  20.801  0.00  0.00    +0.000 A 
ATOM      9  C   UNL     1      -0.530  11.944  21.072  0.00  0.00    +0.000 A 
ATOM     10  N   UNL     1      -1.543  12.325  20.269  0.00  0.00    +0.000 NA
ATOM     11  C   UNL     1      -1.615  11.599  19.140  0.00  0.00    +0.000 A 
ATOM     12  N   UNL     1      -2.551  11.801  18.164  0.00  0.00    +0.000 N 
ATOM     13  C   UNL     1      -2.380  10.902  17.151  0.00  0.00    +0.000 A 
ATOM     14  C   UNL     1      -1.317  10.093  17.495  0.00  0.00    +0.000 A 
ATOM     15  C   UNL     1      -0.790  10.548  18.745  0.00  0.00    +0.000 A 
ATOM     16  H   UNL     1      -3.257  12.519  18.218  0.00  0.00    +0.000 HD
ENDBRANCH   4   7
BRANCH   1  17
ATOM     17  C   UNL     1       3.913   5.870  18.178  0.00  0.00    +0.000 C 
BRANCH  17  18
ATOM     18  N   UNL     1       3.255   4.893  17.311  0.00  0.00    +0.000 NA
ATOM     19  H   UNL     1       2.255   5.085  17.306  0.00  0.00    +0.000 HD
BRANCH  18  20
ATOM     20  C   UNL     1       3.451   3.510  17.758  0.00  0.00    +0.000 C 
BRANCH  20  27
ATOM     21  F   UNL     1       4.723   2.605  20.152  0.00  0.00    +0.000 F 
ATOM     22  C   UNL     1       3.404   2.834  20.199  0.00  0.00    +0.000 A 
ATOM     23  C   UNL     1       2.730   2.629  21.401  0.00  0.00    +0.000 A 
ATOM     24  C   UNL     1       1.358   2.856  21.476  0.00  0.00    +0.000 A 
ATOM     25  C   UNL     1       0.662   3.282  20.346  0.00  0.00    +0.000 A 
ATOM     26  C   UNL     1       1.341   3.487  19.144  0.00  0.00    +0.000 A 
ATOM     27  C   UNL     1       2.727   3.276  19.058  0.00  0.00    +0.000 A 
ENDBRANCH  20  27
ENDBRANCH  18  20
ENDBRANCH  17  18
ENDBRANCH   1  17
TORSDOF 5
ENDMDL
MODEL 7
REMARK VINA RESULT:      -8.5      2.090      3.269
REMARK  Name = 
REMARK  5 active torsions:
REMARK  status: ('A' for Active; 'I' for Inactive)
REMARK    1  A    between atoms: C_7  and  C_8
REMARK    2  A    between atoms: C_8  and  N_9
REMARK    3  A    between atoms: N_9  and  C_10
REMARK    4  A    between atoms: C_10  and  C_11
REMARK    5  A    between atoms: C_14  and  C_15
REMARK                            x       y       z     vdW  Elec       q    Type
REMARK                         _______ _______ _______ _____ _____    ______ ____
ROOT
ATOM      1  C   UNL     1       2.440   6.831  19.415  0.00  0.00    +0.000 A 
ATOM      2  C   UNL     1       2.469   7.413  18.143  0.00  0.00    +0.000 A 
ATOM      3  C   UNL     1       1.913   8.677  17.925  0.00  0.00    +0.000 A 
ATOM      4  C   UNL     1       1.281   9.385  18.961  0.00  0.00    +0.000 A 
ATOM      5  C   UNL     1       1.210   8.755  20.216  0.00  0.00    +0.000 A 
ATOM      6  C   UNL     1       1.799   7.511  20.450  0.00  0.00    +0.000 A 
ENDROOT
BRANCH   4   7
ATOM      7  C   UNL     1       0.705  10.725  18.735  0.00  0.00    +0.000 A 
ATOM      8  C   UNL     1       1.469  11.903  18.848  0.00  0.00    +0.000 A 
ATOM      9  C   UNL     1       0.884  13.139  18.609  0.00  0.00    +0.000 A 
ATOM     10  N   UNL     1      -0.400  13.344  18.254  0.00  0.00    +0.000 NA
ATOM     11  C   UNL     1      -1.104  12.204  18.160  0.00  0.00    +0.000 A 
ATOM     12  N   UNL     1      -2.424  12.151  17.806  0.00  0.00    +0.000 N 
ATOM     13  C   UNL     1      -2.865  10.859  17.814  0.00  0.00    +0.000 A 
ATOM     14  C   UNL     1      -1.805  10.066  18.199  0.00  0.00    +0.000 A 
ATOM     15  C   UNL     1      -0.659  10.902  18.386  0.00  0.00    +0.000 A 
ATOM     16  H   UNL     1      -2.967  12.971  17.581  0.00  0.00    +0.000 HD
ENDBRANCH   4   7
BRANCH   1  17
ATOM     17  C   UNL     1       3.108   5.503  19.670  0.00  0.00    +0.000 C 
BRANCH  17  18
ATOM     18  N   UNL     1       4.553   5.533  19.448  0.00  0.00    +0.000 NA
ATOM     19  H   UNL     1       4.759   6.244  18.748  0.00  0.00    +0.000 HD
BRANCH  18  20
ATOM     20  C   UNL     1       5.083   4.254  18.965  0.00  0.00    +0.000 C 
BRANCH  20  27
ATOM     21  F   UNL     1       7.816   4.781  18.321  0.00  0.00    +0.000 F 
ATOM     22  C   UNL     1       6.951   4.657  17.305  0.00  0.00    +0.000 A 
ATOM     23  C   UNL     1       7.426   4.783  16.001  0.00  0.00    +0.000 A 
ATOM     24  C   UNL     1       6.549   4.662  14.927  0.00  0.00    +0.000 A 
ATOM     25  C   UNL     1       5.195   4.421  15.160  0.00  0.00    +0.000 A 
ATOM     26  C   UNL     1       4.724   4.296  16.467  0.00  0.00    +0.000 A 
ATOM     27  C   UNL     1       5.602   4.401  17.559  0.00  0.00    +0.000 A 
ENDBRANCH  20  27
ENDBRANCH  18  20
ENDBRANCH  17  18
ENDBRANCH   1  17
TORSDOF 5
ENDMDL
MODEL 8
REMARK VINA RESULT:      -8.5      1.204      1.815
REMARK  Name = 
REMARK  5 active torsions:
REMARK  status: ('A' for Active; 'I' for Inactive)
REMARK    1  A    between atoms: C_7  and  C_8
REMARK    2  A    between atoms: C_8  and  N_9
REMARK    3  A    between atoms: N_9  and  C_10
REMARK    4  A    between atoms: C_10  and  C_11
REMARK    5  A    between atoms: C_14  and  C_15
REMARK                            x       y       z     vdW  Elec       q    Type
REMARK                         _______ _______ _______ _____ _____    ______ ____
ROOT
ATOM      1  C   UNL     1       3.292   6.786  18.396  0.00  0.00    +0.000 A 
ATOM      2  C   UNL     1       2.677   6.705  19.650  0.00  0.00    +0.000 A 
ATOM      3  C   UNL     1       1.779   7.692  20.068  0.00  0.00    +0.000 A 
ATOM      4  C   UNL     1       1.493   8.808  19.263  0.00  0.00    +0.000 A 
ATOM      5  C   UNL     1       2.169   8.899  18.033  0.00  0.00    +0.000 A 
ATOM      6  C   UNL     1       3.035   7.897  17.592  0.00  0.00    +0.000 A 
ENDROOT
BRANCH   4   7
ATOM      7  C   UNL     1       0.535   9.843  19.699  0.00  0.00    +0.000 A 
ATOM      8  C   UNL     1       0.642  10.494  20.942  0.00  0.00    +0.000 A 
ATOM      9  C   UNL     1      -0.277  11.472  21.299  0.00  0.00    +0.000 A 
ATOM     10  N   UNL     1      -1.307  11.894  20.540  0.00  0.00    +0.000 NA
ATOM     11  C   UNL     1      -1.387  11.251  19.364  0.00  0.00    +0.000 A 
ATOM     12  N   UNL     1      -2.341  11.508  18.418  0.00  0.00    +0.000 N 
ATOM     13  C   UNL     1      -2.175  10.687  17.341  0.00  0.00    +0.000 A 
ATOM     14  C   UNL     1      -1.096   9.870  17.610  0.00  0.00    +0.000 A 
ATOM     15  C   UNL     1      -0.555  10.243  18.881  0.00  0.00    +0.000 A 
ATOM     16  H   UNL     1      -3.056  12.211  18.534  0.00  0.00    +0.000 HD
ENDBRANCH   4   7
BRANCH   1  17
ATOM     17  C   UNL     1       4.200   5.685  17.910  0.00  0.00    +0.000 C 
BRANCH  17  18
ATOM     18  N   UNL     1       3.492   4.640  17.171  0.00  0.00    +0.000 NA
ATOM     19  H   UNL     1       2.496   4.854  17.179  0.00  0.00    +0.000 HD
BRANCH  18  20
ATOM     20  C   UNL     1       3.674   3.306  17.753  0.00  0.00    +0.000 C 
BRANCH  20  27
ATOM     21  F   UNL     1       0.849   3.724  17.864  0.00  0.00    +0.000 F 
ATOM     22  C   UNL     1       1.472   3.383  19.001  0.00  0.00    +0.000 A 
ATOM     23  C   UNL     1       0.716   3.245  20.164  0.00  0.00    +0.000 A 
ATOM     24  C   UNL     1       1.339   2.894  21.359  0.00  0.00    +0.000 A 
ATOM     25  C   UNL     1       2.718   2.690  21.390  0.00  0.00    +0.000 A 
ATOM     26  C   UNL     1       3.470   2.830  20.223  0.00  0.00    +0.000 A 
ATOM     27  C   UNL     1       2.852   3.168  19.008  0.00  0.00    +0.000 A 
ENDBRANCH  20  27
ENDBRANCH  18  20
ENDBRANCH  17  18
ENDBRANCH   1  17
TORSDOF 5
ENDMDL
MODEL 9
REMARK VINA RESULT:      -8.5      1.706      2.693
REMARK  Name = 
REMARK  5 active torsions:
REMARK  status: ('A' for Active; 'I' for Inactive)
REMARK    1  A    between atoms: C_7  and  C_8
REMARK    2  A    between atoms: C_8  and  N_9
REMARK    3  A    between atoms: N_9  and  C_10
REMARK    4  A    between atoms: C_10  and  C_11
REMARK    5  A    between atoms: C_14  and  C_15
REMARK                            x       y       z     vdW  Elec       q    Type
REMARK                         _______ _______ _______ _____ _____    ______ ____
ROOT
ATOM      1  C   UNL     1       3.375   6.560  18.479  0.00  0.00    +0.000 A 
ATOM      2  C   UNL     1       3.093   7.623  17.614  0.00  0.00    +0.000 A 
ATOM      3  C   UNL     1       2.235   8.654  18.007  0.00  0.00    +0.000 A 
ATOM      4  C   UNL     1       1.606   8.641  19.264  0.00  0.00    +0.000 A 
ATOM      5  C   UNL     1       1.856   7.533  20.093  0.00  0.00    +0.000 A 
ATOM      6  C   UNL     1       2.743   6.521  19.722  0.00  0.00    +0.000 A 
ENDROOT
BRANCH   4   7
ATOM      7  C   UNL     1       0.711   9.736  19.685  0.00  0.00    +0.000 A 
ATOM      8  C   UNL     1       0.243  10.715  18.789  0.00  0.00    +0.000 A 
ATOM      9  C   UNL     1      -0.610  11.717  19.232  0.00  0.00    +0.000 A 
ATOM     10  N   UNL     1      -1.070  11.855  20.491  0.00  0.00    +0.000 NA
ATOM     11  C   UNL     1      -0.602  10.911  21.324  0.00  0.00    +0.000 A 
ATOM     12  N   UNL     1      -0.932  10.834  22.649  0.00  0.00    +0.000 N 
ATOM     13  C   UNL     1      -0.290   9.782  23.236  0.00  0.00    +0.000 A 
ATOM     14  C   UNL     1       0.484   9.180  22.266  0.00  0.00    +0.000 A 
ATOM     15  C   UNL     1       0.268   9.863  21.028  0.00  0.00    +0.000 A 
ATOM     16  H   UNL     1      -1.562  11.481  23.098  0.00  0.00    +0.000 HD
ENDBRANCH   4   7
BRANCH   1  17
ATOM     17  C   UNL     1       4.360   5.488  18.087  0.00  0.00    +0.000 C 
BRANCH  17  18
ATOM     18  N   UNL     1       3.789   4.482  17.193  0.00  0.00    +0.000 NA
ATOM     19  H   UNL     1       2.815   4.722  17.013  0.00  0.00    +0.000 HD
BRANCH  18  20
ATOM     20  C   UNL     1       3.826   3.129  17.758  0.00  0.00    +0.000 C 
BRANCH  20  27
ATOM     21  F   UNL     1       1.004   3.575  17.733  0.00  0.00    +0.000 F 
ATOM     22  C   UNL     1       1.575   3.276  18.908  0.00  0.00    +0.000 A 
ATOM     23  C   UNL     1       0.771   3.193  20.043  0.00  0.00    +0.000 A 
ATOM     24  C   UNL     1       1.339   2.888  21.276  0.00  0.00    +0.000 A 
ATOM     25  C   UNL     1       2.713   2.673  21.374  0.00  0.00    +0.000 A 
ATOM     26  C   UNL     1       3.515   2.757  20.235  0.00  0.00    +0.000 A 
ATOM     27  C   UNL     1       2.952   3.050  18.981  0.00  0.00    +0.000 A 
ENDBRANCH  20  27
ENDBRANCH  18  20
ENDBRANCH  17  18
ENDBRANCH   1  17
TORSDOF 5
ENDMDL
