MODEL 1
REMARK VINA RESULT:      -7.4      0.000      0.000
REMARK  Name = 
REMARK  7 active torsions:
REMARK  status: ('A' for Active; 'I' for Inactive)
REMARK    1  A    between atoms: C_1  and  C_2
REMARK    2  A    between atoms: C_4  and  C_5
REMARK    3  A    between atoms: C_5  and  C_6
REMARK    4  A    between atoms: C_5  and  C_13
REMARK    5  A    between atoms: C_13  and  C_14
REMARK    6  A    between atoms: C_13  and  C_16
REMARK    7  A    between atoms: C_18  and  O_19
REMARK                            x       y       z     vdW  Elec       q    Type
REMARK                         _______ _______ _______ _____ _____    ______ ____
ROOT
ATOM      1  C   UNL     1       4.705   5.561  16.717  0.00  0.00    +0.000 C 
ENDROOT
BRANCH   1   5
ATOM      2  C   UNL     1       5.903   3.426  12.393  0.00  0.00    +0.000 C 
ATOM      3  C   UNL     1       5.968   3.954  13.774  0.00  0.00    +0.000 A 
ATOM      4  N   UNL     1       5.044   4.634  14.425  0.00  0.00    +0.000 NA
ATOM      5  C   UNL     1       5.544   4.847  15.694  0.00  0.00    +0.000 A 
ATOM      6  C   UNL     1       6.798   4.263  15.803  0.00  0.00    +0.000 A 
ATOM      7  N   UNL     1       7.069   3.759  14.564  0.00  0.00    +0.000 N 
ATOM      8  H   UNL     1       7.923   3.288  14.298  0.00  0.00    +0.000 HD
BRANCH   6   9
ATOM      9  O   UNL     1       7.690   4.112  16.770  0.00  0.00    +0.000 OA
ATOM     10  H   UNL     1       7.274   3.639  17.510  0.00  0.00    +0.000 HD
ENDBRANCH   6   9
ENDBRANCH   1   5
BRANCH   1  11
ATOM     11  C   UNL     1       3.708   4.540  17.265  0.00  0.00    +0.000 A 
ATOM     12  C   UNL     1       4.015   3.165  17.331  0.00  0.00    +0.000 A 
ATOM     13  C   UNL     1       3.145   2.267  17.944  0.00  0.00    +0.000 A 
ATOM     14  C   UNL     1       1.951   2.729  18.479  0.00  0.00    +0.000 A 
ATOM     15  F   UNL     1       1.117   1.870  19.077  0.00  0.00    +0.000 F 
ATOM     16  C   UNL     1       1.615   4.077  18.413  0.00  0.00    +0.000 A 
ATOM     17  C   UNL     1       2.492   4.983  17.813  0.00  0.00    +0.000 A 
ENDBRANCH   1  11
BRANCH   1  18
ATOM     18  C   UNL     1       5.447   6.303  17.853  0.00  0.00    +0.000 C 
BRANCH  18  19
ATOM     19  C   UNL     1       6.512   7.167  17.331  0.00  0.00    +0.000 C 
ATOM     20  N   UNL     1       7.391   7.847  16.986  0.00  0.00    +0.000 NA
ENDBRANCH  18  19
BRANCH  18  21
ATOM     21  C   UNL     1       5.926   5.452  18.955  0.00  0.00    +0.000 C 
ATOM     22  N   UNL     1       6.376   4.749  19.765  0.00  0.00    +0.000 NA
ENDBRANCH  18  21
ENDBRANCH   1  18
TORSDOF 6
ENDMDL
MODEL 2
REMARK VINA RESULT:      -7.4      0.172      1.095
REMARK  Name = 
REMARK  7 active torsions:
REMARK  status: ('A' for Active; 'I' for Inactive)
REMARK    1  A    between atoms: C_1  and  C_2
REMARK    2  A    between atoms: C_4  and  C_5
REMARK    3  A    between atoms: C_5  and  C_6
REMARK    4  A    between atoms: C_5  and  C_13
REMARK    5  A    between atoms: C_13  and  C_14
REMARK    6  A    between atoms: C_13  and  C_16
REMARK    7  A    between atoms: C_18  and  O_19
REMARK                            x       y       z     vdW  Elec       q    Type
REMARK                         _______ _______ _______ _____ _____    ______ ____
ROOT
ATOM      1  C   UNL     1       4.765   5.627  16.785  0.00  0.00    +0.000 C 
ENDROOT
BRANCH   1   5
ATOM      2  C   UNL     1       5.794   3.433  12.447  0.00  0.00    +0.000 C 
ATOM      3  C   UNL     1       5.908   3.967  13.822  0.00  0.00    +0.000 A 
ATOM      4  N   UNL     1       5.020   4.677  14.491  0.00  0.00    +0.000 NA
ATOM      5  C   UNL     1       5.557   4.882  15.747  0.00  0.00    +0.000 A 
ATOM      6  C   UNL     1       6.795   4.261  15.829  0.00  0.00    +0.000 A 
ATOM      7  N   UNL     1       7.021   3.743  14.586  0.00  0.00    +0.000 N 
ATOM      8  H   UNL     1       7.854   3.245  14.304  0.00  0.00    +0.000 HD
BRANCH   6   9
ATOM      9  O   UNL     1       7.706   4.090  16.775  0.00  0.00    +0.000 OA
ATOM     10  H   UNL     1       8.559   3.886  16.356  0.00  0.00    +0.000 HD
ENDBRANCH   6   9
ENDBRANCH   1   5
BRANCH   1  11
ATOM     11  C   UNL     1       3.753   4.639  17.364  0.00  0.00    +0.000 A 
ATOM     12  C   UNL     1       2.490   5.058  17.833  0.00  0.00    +0.000 A 
ATOM     13  C   UNL     1       1.536   4.130  18.243  0.00  0.00    +0.000 A 
ATOM     14  C   UNL     1       1.840   2.777  18.209  0.00  0.00    +0.000 A 
ATOM     15  F   UNL     1       0.922   1.882  18.593  0.00  0.00    +0.000 F 
ATOM     16  C   UNL     1       3.083   2.336  17.767  0.00  0.00    +0.000 A 
ATOM     17  C   UNL     1       4.037   3.262  17.340  0.00  0.00    +0.000 A 
ENDBRANCH   1  11
BRANCH   1  18
ATOM     18  C   UNL     1       5.556   6.355  17.897  0.00  0.00    +0.000 C 
BRANCH  18  19
ATOM     19  C   UNL     1       6.602   7.220  17.340  0.00  0.00    +0.000 C 
ATOM     20  N   UNL     1       7.478   7.884  16.957  0.00  0.00    +0.000 NA
ENDBRANCH  18  19
BRANCH  18  21
ATOM     21  C   UNL     1       6.076   5.491  18.970  0.00  0.00    +0.000 C 
ATOM     22  N   UNL     1       6.392   4.780  19.834  0.00  0.00    +0.000 NA
ENDBRANCH  18  21
ENDBRANCH   1  18
TORSDOF 6
ENDMDL
MODEL 3
REMARK VINA RESULT:      -7.1      3.557      5.368
REMARK  Name = 
REMARK  7 active torsions:
REMARK  status: ('A' for Active; 'I' for Inactive)
REMARK    1  A    between atoms: C_1  and  C_2
REMARK    2  A    between atoms: C_4  and  C_5
REMARK    3  A    between atoms: C_5  and  C_6
REMARK    4  A    between atoms: C_5  and  C_13
REMARK    5  A    between atoms: C_13  and  C_14
REMARK    6  A    between atoms: C_13  and  C_16
REMARK    7  A    between atoms: C_18  and  O_19
REMARK                            x       y       z     vdW  Elec       q    Type
REMARK                         _______ _______ _______ _____ _____    ______ ____
ROOT
ATOM      1  C   UNL     1       2.918   5.274  20.021  0.00  0.00    +0.000 C 
ENDROOT
BRANCH   1   5
ATOM      2  C   UNL     1       6.866   5.961  17.083  0.00  0.00    +0.000 C 
ATOM      3  C   UNL     1       5.904   5.375  18.042  0.00  0.00    +0.000 A 
ATOM      4  N   UNL     1       4.816   5.932  18.540  0.00  0.00    +0.000 NA
ATOM      5  C   UNL     1       4.222   4.972  19.335  0.00  0.00    +0.000 A 
ATOM      6  C   UNL     1       4.973   3.806  19.296  0.00  0.00    +0.000 A 
ATOM      7  N   UNL     1       6.058   4.103  18.523  0.00  0.00    +0.000 N 
ATOM      8  H   UNL     1       6.818   3.471  18.315  0.00  0.00    +0.000 HD
BRANCH   6   9
ATOM      9  O   UNL     1       4.857   2.589  19.805  0.00  0.00    +0.000 OA
ATOM     10  H   UNL     1       5.087   2.621  20.749  0.00  0.00    +0.000 HD
ENDBRANCH   6   9
ENDBRANCH   1   5
BRANCH   1  11
ATOM     11  C   UNL     1       2.485   6.665  19.559  0.00  0.00    +0.000 A 
ATOM     12  C   UNL     1       2.557   7.053  18.204  0.00  0.00    +0.000 A 
ATOM     13  C   UNL     1       2.045   8.278  17.783  0.00  0.00    +0.000 A 
ATOM     14  C   UNL     1       1.475   9.136  18.712  0.00  0.00    +0.000 A 
ATOM     15  F   UNL     1       0.974  10.309  18.309  0.00  0.00    +0.000 F 
ATOM     16  C   UNL     1       1.406   8.786  20.057  0.00  0.00    +0.000 A 
ATOM     17  C   UNL     1       1.904   7.553  20.481  0.00  0.00    +0.000 A 
ENDBRANCH   1  11
BRANCH   1  18
ATOM     18  C   UNL     1       1.779   4.239  19.870  0.00  0.00    +0.000 C 
BRANCH  18  19
ATOM     19  C   UNL     1       1.713   3.335  21.023  0.00  0.00    +0.000 C 
ATOM     20  N   UNL     1       1.654   2.557  21.888  0.00  0.00    +0.000 NA
ENDBRANCH  18  19
BRANCH  18  21
ATOM     21  C   UNL     1       1.760   3.503  18.596  0.00  0.00    +0.000 C 
ATOM     22  N   UNL     1       1.843   2.905  17.602  0.00  0.00    +0.000 NA
ENDBRANCH  18  21
ENDBRANCH   1  18
TORSDOF 6
ENDMDL
MODEL 4
REMARK VINA RESULT:      -7.0      2.840      4.125
REMARK  Name = 
REMARK  7 active torsions:
REMARK  status: ('A' for Active; 'I' for Inactive)
REMARK    1  A    between atoms: C_1  and  C_2
REMARK    2  A    between atoms: C_4  and  C_5
REMARK    3  A    between atoms: C_5  and  C_6
REMARK    4  A    between atoms: C_5  and  C_13
REMARK    5  A    between atoms: C_13  and  C_14
REMARK    6  A    between atoms: C_13  and  C_16
REMARK    7  A    between atoms: C_18  and  O_19
REMARK                            x       y       z     vdW  Elec       q    Type
REMARK                         _______ _______ _______ _____ _____    ______ ____
ROOT
ATOM      1  C   UNL     1       4.641   4.759  19.052  0.00  0.00    +0.000 C 
ENDROOT
BRANCH   1   5
ATOM      2  C   UNL     1       6.283   3.909  14.441  0.00  0.00    +0.000 C 
ATOM      3  C   UNL     1       6.224   4.257  15.878  0.00  0.00    +0.000 A 
ATOM      4  N   UNL     1       5.155   4.348  16.646  0.00  0.00    +0.000 NA
ATOM      5  C   UNL     1       5.616   4.636  17.915  0.00  0.00    +0.000 A 
ATOM      6  C   UNL     1       7.002   4.704  17.902  0.00  0.00    +0.000 A 
ATOM      7  N   UNL     1       7.358   4.521  16.597  0.00  0.00    +0.000 N 
ATOM      8  H   UNL     1       8.304   4.539  16.242  0.00  0.00    +0.000 HD
BRANCH   6   9
ATOM      9  O   UNL     1       7.948   4.891  18.809  0.00  0.00    +0.000 OA
ATOM     10  H   UNL     1       8.311   5.786  18.704  0.00  0.00    +0.000 HD
ENDBRANCH   6   9
ENDBRANCH   1   5
BRANCH   1  11
ATOM     11  C   UNL     1       3.838   6.037  18.813  0.00  0.00    +0.000 A 
ATOM     12  C   UNL     1       4.015   6.818  17.652  0.00  0.00    +0.000 A 
ATOM     13  C   UNL     1       3.190   7.911  17.392  0.00  0.00    +0.000 A 
ATOM     14  C   UNL     1       2.195   8.246  18.298  0.00  0.00    +0.000 A 
ATOM     15  F   UNL     1       1.395   9.289  18.047  0.00  0.00    +0.000 F 
ATOM     16  C   UNL     1       2.008   7.503  19.459  0.00  0.00    +0.000 A 
ATOM     17  C   UNL     1       2.822   6.398  19.716  0.00  0.00    +0.000 A 
ENDBRANCH   1  11
BRANCH   1  18
ATOM     18  C   UNL     1       3.720   3.549  19.334  0.00  0.00    +0.000 C 
BRANCH  18  19
ATOM     19  C   UNL     1       4.454   2.444  19.962  0.00  0.00    +0.000 C 
ATOM     20  N   UNL     1       5.092   1.579  20.407  0.00  0.00    +0.000 NA
ENDBRANCH  18  19
BRANCH  18  21
ATOM     21  C   UNL     1       2.914   3.089  18.191  0.00  0.00    +0.000 C 
ATOM     22  N   UNL     1       2.236   2.659  17.350  0.00  0.00    +0.000 NA
ENDBRANCH  18  21
ENDBRANCH   1  18
TORSDOF 6
ENDMDL
MODEL 5
REMARK VINA RESULT:      -7.0      2.881      4.219
REMARK  Name = 
REMARK  7 active torsions:
REMARK  status: ('A' for Active; 'I' for Inactive)
REMARK    1  A    between atoms: C_1  and  C_2
REMARK    2  A    between atoms: C_4  and  C_5
REMARK    3  A    between atoms: C_5  and  C_6
REMARK    4  A    between atoms: C_5  and  C_13
REMARK    5  A    between atoms: C_13  and  C_14
REMARK    6  A    between atoms: C_13  and  C_16
REMARK    7  A    between atoms: C_18  and  O_19
REMARK                            x       y       z     vdW  Elec       q    Type
REMARK                         _______ _______ _______ _____ _____    ______ ____
ROOT
ATOM      1  C   UNL     1       4.568   4.715  19.059  0.00  0.00    +0.000 C 
ENDROOT
BRANCH   1   5
ATOM      2  C   UNL     1       6.261   3.824  14.473  0.00  0.00    +0.000 C 
ATOM      3  C   UNL     1       6.187   4.179  15.908  0.00  0.00    +0.000 A 
ATOM      4  N   UNL     1       5.109   4.287  16.661  0.00  0.00    +0.000 NA
ATOM      5  C   UNL     1       5.557   4.575  17.935  0.00  0.00    +0.000 A 
ATOM      6  C   UNL     1       6.944   4.625  17.940  0.00  0.00    +0.000 A 
ATOM      7  N   UNL     1       7.315   4.432  16.641  0.00  0.00    +0.000 N 
ATOM      8  H   UNL     1       8.266   4.436  16.298  0.00  0.00    +0.000 HD
BRANCH   6   9
ATOM      9  O   UNL     1       7.880   4.803  18.859  0.00  0.00    +0.000 OA
ATOM     10  H   UNL     1       8.716   4.432  18.532  0.00  0.00    +0.000 HD
ENDBRANCH   6   9
ENDBRANCH   1   5
BRANCH   1  11
ATOM     11  C   UNL     1       3.720   5.949  18.752  0.00  0.00    +0.000 A 
ATOM     12  C   UNL     1       2.708   6.391  19.630  0.00  0.00    +0.000 A 
ATOM     13  C   UNL     1       2.029   7.584  19.394  0.00  0.00    +0.000 A 
ATOM     14  C   UNL     1       2.338   8.337  18.272  0.00  0.00    +0.000 A 
ATOM     15  F   UNL     1       1.694   9.488  18.048  0.00  0.00    +0.000 F 
ATOM     16  C   UNL     1       3.320   7.917  17.380  0.00  0.00    +0.000 A 
ATOM     17  C   UNL     1       4.014   6.730  17.620  0.00  0.00    +0.000 A 
ENDBRANCH   1  11
BRANCH   1  18
ATOM     18  C   UNL     1       3.692   3.485  19.393  0.00  0.00    +0.000 C 
BRANCH  18  19
ATOM     19  C   UNL     1       4.472   2.422  20.036  0.00  0.00    +0.000 C 
ATOM     20  N   UNL     1       5.154   1.605  20.506  0.00  0.00    +0.000 NA
ENDBRANCH  18  19
BRANCH  18  21
ATOM     21  C   UNL     1       2.878   2.969  18.280  0.00  0.00    +0.000 C 
ATOM     22  N   UNL     1       2.221   2.479  17.455  0.00  0.00    +0.000 NA
ENDBRANCH  18  21
ENDBRANCH   1  18
TORSDOF 6
ENDMDL
MODEL 6
REMARK VINA RESULT:      -7.0      2.620      3.654
REMARK  Name = 
REMARK  7 active torsions:
REMARK  status: ('A' for Active; 'I' for Inactive)
REMARK    1  A    between atoms: C_1  and  C_2
REMARK    2  A    between atoms: C_4  and  C_5
REMARK    3  A    between atoms: C_5  and  C_6
REMARK    4  A    between atoms: C_5  and  C_13
REMARK    5  A    between atoms: C_13  and  C_14
REMARK    6  A    between atoms: C_13  and  C_16
REMARK    7  A    between atoms: C_18  and  O_19
REMARK                            x       y       z     vdW  Elec       q    Type
REMARK                         _______ _______ _______ _____ _____    ______ ____
ROOT
ATOM      1  C   UNL     1       5.087   4.514  18.094  0.00  0.00    +0.000 C 
ENDROOT
BRANCH   1   5
ATOM      2  C   UNL     1       6.411   3.960  13.337  0.00  0.00    +0.000 C 
ATOM      3  C   UNL     1       6.322   4.448  14.731  0.00  0.00    +0.000 A 
ATOM      4  N   UNL     1       5.479   4.064  15.671  0.00  0.00    +0.000 NA
ATOM      5  C   UNL     1       5.831   4.760  16.811  0.00  0.00    +0.000 A 
ATOM      6  C   UNL     1       6.924   5.571  16.541  0.00  0.00    +0.000 A 
ATOM      7  N   UNL     1       7.178   5.403  15.211  0.00  0.00    +0.000 N 
ATOM      8  H   UNL     1       7.902   5.876  14.690  0.00  0.00    +0.000 HD
BRANCH   6   9
ATOM      9  O   UNL     1       7.691   6.389  17.246  0.00  0.00    +0.000 OA
ATOM     10  H   UNL     1       7.267   6.555  18.105  0.00  0.00    +0.000 HD
ENDBRANCH   6   9
ENDBRANCH   1   5
BRANCH   1  11
ATOM     11  C   UNL     1       4.179   5.721  18.319  0.00  0.00    +0.000 A 
ATOM     12  C   UNL     1       3.999   6.710  17.329  0.00  0.00    +0.000 A 
ATOM     13  C   UNL     1       3.074   7.737  17.504  0.00  0.00    +0.000 A 
ATOM     14  C   UNL     1       2.336   7.799  18.676  0.00  0.00    +0.000 A 
ATOM     15  F   UNL     1       1.440   8.779  18.843  0.00  0.00    +0.000 F 
ATOM     16  C   UNL     1       2.504   6.848  19.676  0.00  0.00    +0.000 A 
ATOM     17  C   UNL     1       3.418   5.807  19.499  0.00  0.00    +0.000 A 
ENDBRANCH   1  11
BRANCH   1  18
ATOM     18  C   UNL     1       4.312   3.181  18.223  0.00  0.00    +0.000 C 
BRANCH  18  19
ATOM     19  C   UNL     1       2.922   3.318  17.776  0.00  0.00    +0.000 C 
ATOM     20  N   UNL     1       1.801   3.365  17.466  0.00  0.00    +0.000 NA
ENDBRANCH  18  19
BRANCH  18  21
ATOM     21  C   UNL     1       4.402   2.524  19.537  0.00  0.00    +0.000 C 
ATOM     22  N   UNL     1       4.571   2.009  20.566  0.00  0.00    +0.000 NA
ENDBRANCH  18  21
ENDBRANCH   1  18
TORSDOF 6
ENDMDL
MODEL 7
REMARK VINA RESULT:      -7.0      2.852      3.950
REMARK  Name = 
REMARK  7 active torsions:
REMARK  status: ('A' for Active; 'I' for Inactive)
REMARK    1  A    between atoms: C_1  and  C_2
REMARK    2  A    between atoms: C_4  and  C_5
REMARK    3  A    between atoms: C_5  and  C_6
REMARK    4  A    between atoms: C_5  and  C_13
REMARK    5  A    between atoms: C_13  and  C_14
REMARK    6  A    between atoms: C_13  and  C_16
REMARK    7  A    between atoms: C_18  and  O_19
REMARK                            x       y       z     vdW  Elec       q    Type
REMARK                         _______ _______ _______ _____ _____    ______ ____
ROOT
ATOM      1  C   UNL     1       4.620   4.422  18.885  0.00  0.00    +0.000 C 
ENDROOT
BRANCH   1   5
ATOM      2  C   UNL     1       6.370   3.957  14.258  0.00  0.00    +0.000 C 
ATOM      3  C   UNL     1       6.267   4.231  15.708  0.00  0.00    +0.000 A 
ATOM      4  N   UNL     1       5.189   4.176  16.468  0.00  0.00    +0.000 NA
ATOM      5  C   UNL     1       5.610   4.452  17.754  0.00  0.00    +0.000 A 
ATOM      6  C   UNL     1       6.982   4.663  17.759  0.00  0.00    +0.000 A 
ATOM      7  N   UNL     1       7.363   4.578  16.451  0.00  0.00    +0.000 N 
ATOM      8  H   UNL     1       8.304   4.709  16.107  0.00  0.00    +0.000 HD
BRANCH   6   9
ATOM      9  O   UNL     1       7.898   4.904  18.684  0.00  0.00    +0.000 OA
ATOM     10  H   UNL     1       7.464   4.941  19.553  0.00  0.00    +0.000 HD
ENDBRANCH   6   9
ENDBRANCH   1   5
BRANCH   1  11
ATOM     11  C   UNL     1       3.847   5.739  18.833  0.00  0.00    +0.000 A 
ATOM     12  C   UNL     1       3.918   6.599  17.717  0.00  0.00    +0.000 A 
ATOM     13  C   UNL     1       3.113   7.732  17.635  0.00  0.00    +0.000 A 
ATOM     14  C   UNL     1       2.244   8.030  18.674  0.00  0.00    +0.000 A 
ATOM     15  F   UNL     1       1.463   9.113  18.594  0.00  0.00    +0.000 F 
ATOM     16  C   UNL     1       2.165   7.209  19.795  0.00  0.00    +0.000 A 
ATOM     17  C   UNL     1       2.958   6.063  19.874  0.00  0.00    +0.000 A 
ENDBRANCH   1  11
BRANCH   1  18
ATOM     18  C   UNL     1       3.672   3.203  18.968  0.00  0.00    +0.000 C 
BRANCH  18  19
ATOM     19  C   UNL     1       2.490   3.378  18.118  0.00  0.00    +0.000 C 
ATOM     20  N   UNL     1       1.547   3.590  17.469  0.00  0.00    +0.000 NA
ENDBRANCH  18  19
BRANCH  18  21
ATOM     21  C   UNL     1       3.308   2.778  20.330  0.00  0.00    +0.000 C 
ATOM     22  N   UNL     1       3.111   2.472  21.434  0.00  0.00    +0.000 NA
ENDBRANCH  18  21
ENDBRANCH   1  18
TORSDOF 6
ENDMDL
MODEL 8
REMARK VINA RESULT:      -7.0      2.834      3.995
REMARK  Name = 
REMARK  7 active torsions:
REMARK  status: ('A' for Active; 'I' for Inactive)
REMARK    1  A    between atoms: C_1  and  C_2
REMARK    2  A    between atoms: C_4  and  C_5
REMARK    3  A    between atoms: C_5  and  C_6
REMARK    4  A    between atoms: C_5  and  C_13
REMARK    5  A    between atoms: C_13  and  C_14
REMARK    6  A    between atoms: C_13  and  C_16
REMARK    7  A    between atoms: C_18  and  O_19
REMARK                            x       y       z     vdW  Elec       q    Type
REMARK                         _______ _______ _______ _____ _____    ______ ____
ROOT
ATOM      1  C   UNL     1       4.702   4.356  18.920  0.00  0.00    +0.000 C 
ENDROOT
BRANCH   1   5
ATOM      2  C   UNL     1       6.455   4.030  14.282  0.00  0.00    +0.000 C 
ATOM      3  C   UNL     1       6.347   4.272  15.738  0.00  0.00    +0.000 A 
ATOM      4  N   UNL     1       5.273   4.175  16.498  0.00  0.00    +0.000 NA
ATOM      5  C   UNL     1       5.688   4.434  17.788  0.00  0.00    +0.000 A 
ATOM      6  C   UNL     1       7.055   4.678  17.796  0.00  0.00    +0.000 A 
ATOM      7  N   UNL     1       7.436   4.630  16.486  0.00  0.00    +0.000 N 
ATOM      8  H   UNL     1       8.373   4.791  16.144  0.00  0.00    +0.000 HD
BRANCH   6   9
ATOM      9  O   UNL     1       7.966   4.923  18.725  0.00  0.00    +0.000 OA
ATOM     10  H   UNL     1       8.795   4.478  18.477  0.00  0.00    +0.000 HD
ENDBRANCH   6   9
ENDBRANCH   1   5
BRANCH   1  11
ATOM     11  C   UNL     1       3.801   5.585  18.809  0.00  0.00    +0.000 A 
ATOM     12  C   UNL     1       2.903   5.943  19.836  0.00  0.00    +0.000 A 
ATOM     13  C   UNL     1       2.180   7.132  19.772  0.00  0.00    +0.000 A 
ATOM     14  C   UNL     1       2.331   7.964  18.673  0.00  0.00    +0.000 A 
ATOM     15  F   UNL     1       1.645   9.112  18.613  0.00  0.00    +0.000 F 
ATOM     16  C   UNL     1       3.197   7.629  17.638  0.00  0.00    +0.000 A 
ATOM     17  C   UNL     1       3.935   6.446  17.705  0.00  0.00    +0.000 A 
ENDBRANCH   1  11
BRANCH   1  18
ATOM     18  C   UNL     1       3.880   3.053  19.058  0.00  0.00    +0.000 C 
BRANCH  18  19
ATOM     19  C   UNL     1       2.774   3.006  18.095  0.00  0.00    +0.000 C 
ATOM     20  N   UNL     1       1.866   3.031  17.367  0.00  0.00    +0.000 NA
ENDBRANCH  18  19
BRANCH  18  21
ATOM     21  C   UNL     1       3.430   2.732  20.423  0.00  0.00    +0.000 C 
ATOM     22  N   UNL     1       3.149   2.412  21.505  0.00  0.00    +0.000 NA
ENDBRANCH  18  21
ENDBRANCH   1  18
TORSDOF 6
ENDMDL
MODEL 9
REMARK VINA RESULT:      -6.9      3.285      4.609
REMARK  Name = 
REMARK  7 active torsions:
REMARK  status: ('A' for Active; 'I' for Inactive)
REMARK    1  A    between atoms: C_1  and  C_2
REMARK    2  A    between atoms: C_4  and  C_5
REMARK    3  A    between atoms: C_5  and  C_6
REMARK    4  A    between atoms: C_5  and  C_13
REMARK    5  A    between atoms: C_13  and  C_14
REMARK    6  A    between atoms: C_13  and  C_16
REMARK    7  A    between atoms: C_18  and  O_19
REMARK                            x       y       z     vdW  Elec       q    Type
REMARK                         _______ _______ _______ _____ _____    ______ ____
ROOT
ATOM      1  C   UNL     1       3.906   4.866  19.590  0.00  0.00    +0.000 C 
ENDROOT
BRANCH   1   5
ATOM      2  C   UNL     1       6.487   4.065  15.420  0.00  0.00    +0.000 C 
ATOM      3  C   UNL     1       6.112   4.464  16.795  0.00  0.00    +0.000 A 
ATOM      4  N   UNL     1       4.916   4.429  17.350  0.00  0.00    +0.000 NA
ATOM      5  C   UNL     1       5.085   4.839  18.657  0.00  0.00    +0.000 A 
ATOM      6  C   UNL     1       6.426   5.113  18.888  0.00  0.00    +0.000 A 
ATOM      7  N   UNL     1       7.043   4.927  17.685  0.00  0.00    +0.000 N 
ATOM      8  H   UNL     1       8.027   5.070  17.505  0.00  0.00    +0.000 HD
BRANCH   6   9
ATOM      9  O   UNL     1       7.149   5.480  19.935  0.00  0.00    +0.000 OA
ATOM     10  H   UNL     1       7.178   6.451  19.973  0.00  0.00    +0.000 HD
ENDBRANCH   6   9
ENDBRANCH   1   5
BRANCH   1  11
ATOM     11  C   UNL     1       3.120   6.138  19.275  0.00  0.00    +0.000 A 
ATOM     12  C   UNL     1       2.274   6.743  20.228  0.00  0.00    +0.000 A 
ATOM     13  C   UNL     1       1.662   7.966  19.966  0.00  0.00    +0.000 A 
ATOM     14  C   UNL     1       1.872   8.588  18.744  0.00  0.00    +0.000 A 
ATOM     15  F   UNL     1       1.293   9.768  18.493  0.00  0.00    +0.000 F 
ATOM     16  C   UNL     1       2.688   8.006  17.780  0.00  0.00    +0.000 A 
ATOM     17  C   UNL     1       3.316   6.788  18.044  0.00  0.00    +0.000 A 
ENDBRANCH   1  11
BRANCH   1  18
ATOM     18  C   UNL     1       2.992   3.619  19.616  0.00  0.00    +0.000 C 
BRANCH  18  19
ATOM     19  C   UNL     1       1.937   3.699  18.599  0.00  0.00    +0.000 C 
ATOM     20  N   UNL     1       1.099   3.684  17.792  0.00  0.00    +0.000 NA
ENDBRANCH  18  19
BRANCH  18  21
ATOM     21  C   UNL     1       2.450   3.260  20.937  0.00  0.00    +0.000 C 
ATOM     22  N   UNL     1       1.933   2.970  21.938  0.00  0.00    +0.000 NA
ENDBRANCH  18  21
ENDBRANCH   1  18
TORSDOF 6
ENDMDL
