MODEL 1
REMARK VINA RESULT:      -7.6      0.000      0.000
REMARK  Name = 
REMARK  13 active torsions:
REMARK  status: ('A' for Active; 'I' for Inactive)
REMARK    1  A    between atoms: N_1  and  CA_2
REMARK    2  A    between atoms: CA_2  and  C_3
REMARK    3  A    between atoms: CA_2  and  C_12
REMARK    4  A    between atoms: C_3  and  C_4
REMARK    5  A    between atoms: C_4  and  C_5
REMARK    6  A    between atoms: C_8  and  O_9
REMARK    7  A    between atoms: N_14  and  CA_15
REMARK    8  A    between atoms: CA_15  and  C_16
REMARK    9  A    between atoms: CA_15  and  C_19
REMARK   10  A    between atoms: C_16  and  OXT_18
REMARK   11  A    between atoms: C_21  and  N_22
REMARK   12  A    between atoms: C_30  and  O_31
REMARK   13  A    between atoms: C_32  and  O_33
REMARK                            x       y       z     vdW  Elec       q    Type
REMARK                         _______ _______ _______ _____ _____    ______ ____
ROOT
ATOM      1  CA  UNL     1       1.738   5.198  18.815  0.00  0.00    +0.000 C 
ENDROOT
BRANCH   1   2
ATOM      2  C   UNL     1       2.241   3.897  18.165  0.00  0.00    +0.000 C 
ATOM      3  O   UNL     1       3.282   4.189  17.191  0.00  0.00    +0.000 OA
ATOM      4  C   UNL     1       4.514   3.592  17.650  0.00  0.00    +0.000 C 
ATOM      5  C   UNL     1       4.342   3.236  19.129  0.00  0.00    +0.000 C 
ATOM      6  C   UNL     1       2.866   2.914  19.169  0.00  0.00    +0.000 C 
BRANCH   4   7
ATOM      7  N   UNL     1       5.621   4.492  17.364  0.00  0.00    +0.000 N 
ATOM      8  C   UNL     1       5.975   5.434  18.313  0.00  0.00    +0.000 A 
ATOM      9  C   UNL     1       6.907   6.355  18.078  0.00  0.00    +0.000 A 
ATOM     10  C   UNL     1       7.559   6.383  16.755  0.00  0.00    +0.000 A 
ATOM     11  O   UNL     1       8.373   7.251  16.469  0.00  0.00    +0.000 OA
ATOM     12  N   UNL     1       7.190   5.397  15.894  0.00  0.00    +0.000 N 
ATOM     13  C   UNL     1       6.236   4.448  16.120  0.00  0.00    +0.000 A 
ATOM     14  O   UNL     1       5.975   3.624  15.246  0.00  0.00    +0.000 OA
ATOM     15  H   UNL     1       7.619   5.395  14.980  0.00  0.00    +0.000 HD
ENDBRANCH   4   7
BRANCH   5  16
ATOM     16  O   UNL     1       5.134   2.113  19.519  0.00  0.00    +0.000 OA
ATOM     17  H   UNL     1       5.784   2.453  20.171  0.00  0.00    +0.000 HD
ENDBRANCH   5  16
BRANCH   6  18
ATOM     18  O   UNL     1       2.708   1.543  18.752  0.00  0.00    +0.000 OA
ATOM     19  H   UNL     1       2.091   1.079  19.345  0.00  0.00    +0.000 HD
ENDBRANCH   6  18
ENDBRANCH   1   2
BRANCH   1  22
ATOM     20  C   UNL     1       2.297   7.762  18.606  0.00  0.00    +0.000 C 
ATOM     21  O   UNL     1       3.154   8.494  18.101  0.00  0.00    +0.000 OA
ATOM     22  N   UNL     1       2.515   6.423  18.533  0.00  0.00    +0.000 N 
ATOM     23  H   UNL     1       3.318   6.254  17.931  0.00  0.00    +0.000 HD
BRANCH  20  24
ATOM     24  CA  UNL     1       1.066   8.376  19.306  0.00  0.00    +0.000 C 
BRANCH  24  25
ATOM     25  N   UNL     1       1.295   8.427  20.758  0.00  0.00    +0.000 NA
ATOM     26  H1  UNL     1       2.049   9.074  20.979  0.00  0.00    +0.000 HD
ATOM     27  H2  UNL     1       1.581   7.499  21.077  0.00  0.00    +0.000 HD
ENDBRANCH  24  25
BRANCH  24  28
ATOM     28  C   UNL     1       0.653   9.708  18.690  0.00  0.00    +0.000 C 
BRANCH  28  29
ATOM     29  C   UNL     1      -0.474  10.425  19.433  0.00  0.00    +0.000 C 
BRANCH  29  30
ATOM     30  C   UNL     1      -1.671  10.565  18.526  0.00  0.00    +0.000 A 
ATOM     31  C   UNL     1      -1.734   9.858  17.317  0.00  0.00    +0.000 A 
ATOM     32  C   UNL     1      -2.810  10.039  16.448  0.00  0.00    +0.000 A 
ATOM     33  C   UNL     1      -3.821  10.931  16.790  0.00  0.00    +0.000 A 
ATOM     34  C   UNL     1      -3.775  11.640  17.985  0.00  0.00    +0.000 A 
ATOM     35  C   UNL     1      -2.699  11.459  18.854  0.00  0.00    +0.000 A 
BRANCH  33  36
ATOM     36  O   UNL     1      -4.885  11.146  15.966  0.00  0.00    +0.000 OA
ATOM     37  H   UNL     1      -5.657  10.687  16.333  0.00  0.00    +0.000 HD
ENDBRANCH  33  36
ENDBRANCH  29  30
ENDBRANCH  28  29
ENDBRANCH  24  28
ENDBRANCH  20  24
ENDBRANCH   1  22
BRANCH   1  38
ATOM     38  C   UNL     1       1.498   5.073  20.336  0.00  0.00    +0.000 C 
ATOM     39  O   UNL     1       0.598   4.399  20.822  0.00  0.00    +0.000 OA
BRANCH  38  40
ATOM     40  OXT UNL     1       2.410   5.691  21.122  0.00  0.00    +0.000 OA
ATOM     41  HXT UNL     1       3.228   5.168  21.279  0.00  0.00    +0.000 HD
ENDBRANCH  38  40
ENDBRANCH   1  38
TORSDOF 13
ENDMDL
MODEL 2
REMARK VINA RESULT:      -7.4      1.323      1.868
REMARK  Name = 
REMARK  13 active torsions:
REMARK  status: ('A' for Active; 'I' for Inactive)
REMARK    1  A    between atoms: N_1  and  CA_2
REMARK    2  A    between atoms: CA_2  and  C_3
REMARK    3  A    between atoms: CA_2  and  C_12
REMARK    4  A    between atoms: C_3  and  C_4
REMARK    5  A    between atoms: C_4  and  C_5
REMARK    6  A    between atoms: C_8  and  O_9
REMARK    7  A    between atoms: N_14  and  CA_15
REMARK    8  A    between atoms: CA_15  and  C_16
REMARK    9  A    between atoms: CA_15  and  C_19
REMARK   10  A    between atoms: C_16  and  OXT_18
REMARK   11  A    between atoms: C_21  and  N_22
REMARK   12  A    between atoms: C_30  and  O_31
REMARK   13  A    between atoms: C_32  and  O_33
REMARK                            x       y       z     vdW  Elec       q    Type
REMARK                         _______ _______ _______ _____ _____    ______ ____
ROOT
ATOM      1  CA  UNL     1       1.666   4.957  19.305  0.00  0.00    +0.000 C 
ENDROOT
BRANCH   1   2
ATOM      2  C   UNL     1       1.604   3.741  18.363  0.00  0.00    +0.000 C 
ATOM      3  O   UNL     1       2.293   4.035  17.115  0.00  0.00    +0.000 OA
ATOM      4  C   UNL     1       3.435   3.156  17.009  0.00  0.00    +0.000 C 
ATOM      5  C   UNL     1       3.694   2.552  18.392  0.00  0.00    +0.000 C 
ATOM      6  C   UNL     1       2.286   2.488  18.938  0.00  0.00    +0.000 C 
BRANCH   4   7
ATOM      7  N   UNL     1       4.557   3.891  16.444  0.00  0.00    +0.000 N 
ATOM      8  C   UNL     1       4.910   3.657  15.128  0.00  0.00    +0.000 A 
ATOM      9  C   UNL     1       5.987   4.215  14.577  0.00  0.00    +0.000 A 
ATOM     10  C   UNL     1       6.837   5.086  15.409  0.00  0.00    +0.000 A 
ATOM     11  O   UNL     1       7.871   5.569  14.967  0.00  0.00    +0.000 OA
ATOM     12  N   UNL     1       6.398   5.304  16.678  0.00  0.00    +0.000 N 
ATOM     13  C   UNL     1       5.299   4.738  17.256  0.00  0.00    +0.000 A 
ATOM     14  O   UNL     1       5.022   4.997  18.425  0.00  0.00    +0.000 OA
ATOM     15  H   UNL     1       6.964   5.895  17.270  0.00  0.00    +0.000 HD
ENDBRANCH   4   7
BRANCH   5  16
ATOM     16  O   UNL     1       4.288   1.256  18.322  0.00  0.00    +0.000 OA
ATOM     17  H   UNL     1       3.766   0.753  17.660  0.00  0.00    +0.000 HD
ENDBRANCH   5  16
BRANCH   6  18
ATOM     18  O   UNL     1       1.684   1.274  18.446  0.00  0.00    +0.000 OA
ATOM     19  H   UNL     1       0.840   1.109  18.901  0.00  0.00    +0.000 HD
ENDBRANCH   6  18
ENDBRANCH   1   2
BRANCH   1  22
ATOM     20  C   UNL     1       2.328   7.478  18.940  0.00  0.00    +0.000 C 
ATOM     21  O   UNL     1       3.080   8.154  18.230  0.00  0.00    +0.000 OA
ATOM     22  N   UNL     1       2.430   6.128  18.827  0.00  0.00    +0.000 N 
ATOM     23  H   UNL     1       3.044   5.910  18.046  0.00  0.00    +0.000 HD
BRANCH  20  24
ATOM     24  CA  UNL     1       1.356   8.169  19.918  0.00  0.00    +0.000 C 
BRANCH  24  25
ATOM     25  N   UNL     1       1.871   8.058  21.292  0.00  0.00    +0.000 NA
ATOM     26  H1  UNL     1       1.644   8.892  21.828  0.00  0.00    +0.000 HD
ATOM     27  H2  UNL     1       2.890   7.982  21.254  0.00  0.00    +0.000 HD
ENDBRANCH  24  25
BRANCH  24  28
ATOM     28  C   UNL     1       1.015   9.592  19.491  0.00  0.00    +0.000 C 
BRANCH  28  29
ATOM     29  C   UNL     1       0.407   9.704  18.093  0.00  0.00    +0.000 C 
BRANCH  29  30
ATOM     30  C   UNL     1      -0.916  10.424  18.172  0.00  0.00    +0.000 A 
ATOM     31  C   UNL     1      -1.104  11.468  19.088  0.00  0.00    +0.000 A 
ATOM     32  C   UNL     1      -2.348  12.089  19.206  0.00  0.00    +0.000 A 
ATOM     33  C   UNL     1      -3.403  11.660  18.408  0.00  0.00    +0.000 A 
ATOM     34  C   UNL     1      -3.234  10.626  17.495  0.00  0.00    +0.000 A 
ATOM     35  C   UNL     1      -1.991  10.005  17.377  0.00  0.00    +0.000 A 
BRANCH  33  36
ATOM     36  O   UNL     1      -4.638  12.231  18.498  0.00  0.00    +0.000 OA
ATOM     37  H   UNL     1      -4.559  13.058  18.999  0.00  0.00    +0.000 HD
ENDBRANCH  33  36
ENDBRANCH  29  30
ENDBRANCH  28  29
ENDBRANCH  24  28
ENDBRANCH  20  24
ENDBRANCH   1  22
BRANCH   1  38
ATOM     38  C   UNL     1       2.106   4.600  20.742  0.00  0.00    +0.000 C 
ATOM     39  O   UNL     1       1.445   3.893  21.492  0.00  0.00    +0.000 OA
BRANCH  38  40
ATOM     40  OXT UNL     1       3.331   5.047  21.104  0.00  0.00    +0.000 OA
ATOM     41  HXT UNL     1       3.636   5.837  20.603  0.00  0.00    +0.000 HD
ENDBRANCH  38  40
ENDBRANCH   1  38
TORSDOF 13
ENDMDL
MODEL 3
REMARK VINA RESULT:      -7.3      3.135      5.186
REMARK  Name = 
REMARK  13 active torsions:
REMARK  status: ('A' for Active; 'I' for Inactive)
REMARK    1  A    between atoms: N_1  and  CA_2
REMARK    2  A    between atoms: CA_2  and  C_3
REMARK    3  A    between atoms: CA_2  and  C_12
REMARK    4  A    between atoms: C_3  and  C_4
REMARK    5  A    between atoms: C_4  and  C_5
REMARK    6  A    between atoms: C_8  and  O_9
REMARK    7  A    between atoms: N_14  and  CA_15
REMARK    8  A    between atoms: CA_15  and  C_16
REMARK    9  A    between atoms: CA_15  and  C_19
REMARK   10  A    between atoms: C_16  and  OXT_18
REMARK   11  A    between atoms: C_21  and  N_22
REMARK   12  A    between atoms: C_30  and  O_31
REMARK   13  A    between atoms: C_32  and  O_33
REMARK                            x       y       z     vdW  Elec       q    Type
REMARK                         _______ _______ _______ _____ _____    ______ ____
ROOT
ATOM      1  CA  UNL     1       4.893   4.206  18.656  0.00  0.00    +0.000 C 
ENDROOT
BRANCH   1   2
ATOM      2  C   UNL     1       6.397   4.502  18.520  0.00  0.00    +0.000 C 
ATOM      3  O   UNL     1       6.914   3.930  17.285  0.00  0.00    +0.000 OA
ATOM      4  C   UNL     1       7.355   5.012  16.434  0.00  0.00    +0.000 C 
ATOM      5  C   UNL     1       6.761   6.313  16.980  0.00  0.00    +0.000 C 
ATOM      6  C   UNL     1       6.722   6.004  18.459  0.00  0.00    +0.000 C 
BRANCH   4   7
ATOM      7  N   UNL     1       7.004   4.712  15.054  0.00  0.00    +0.000 N 
ATOM      8  C   UNL     1       5.948   3.853  14.808  0.00  0.00    +0.000 A 
ATOM      9  C   UNL     1       5.637   3.454  13.576  0.00  0.00    +0.000 A 
ATOM     10  C   UNL     1       6.463   3.924  12.449  0.00  0.00    +0.000 A 
ATOM     11  O   UNL     1       6.257   3.533  11.308  0.00  0.00    +0.000 OA
ATOM     12  N   UNL     1       7.452   4.802  12.767  0.00  0.00    +0.000 N 
ATOM     13  C   UNL     1       7.783   5.219  14.024  0.00  0.00    +0.000 A 
ATOM     14  O   UNL     1       8.721   5.998  14.181  0.00  0.00    +0.000 OA
ATOM     15  H   UNL     1       8.035   5.138  12.013  0.00  0.00    +0.000 HD
ENDBRANCH   4   7
BRANCH   5  16
ATOM     16  O   UNL     1       7.579   7.449  16.703  0.00  0.00    +0.000 OA
ATOM     17  H   UNL     1       7.348   7.736  15.793  0.00  0.00    +0.000 HD
ENDBRANCH   5  16
BRANCH   6  18
ATOM     18  O   UNL     1       8.027   6.296  18.998  0.00  0.00    +0.000 OA
ATOM     19  H   UNL     1       7.959   6.519  19.943  0.00  0.00    +0.000 HD
ENDBRANCH   6  18
ENDBRANCH   1   2
BRANCH   1  22
ATOM     20  C   UNL     1       3.300   3.105  20.438  0.00  0.00    +0.000 C 
ATOM     21  O   UNL     1       3.370   2.555  21.542  0.00  0.00    +0.000 OA
ATOM     22  N   UNL     1       4.477   3.420  19.836  0.00  0.00    +0.000 N 
ATOM     23  H   UNL     1       5.236   3.257  20.493  0.00  0.00    +0.000 HD
BRANCH  20  24
ATOM     24  CA  UNL     1       1.926   3.376  19.793  0.00  0.00    +0.000 C 
BRANCH  24  25
ATOM     25  N   UNL     1       1.146   2.130  19.743  0.00  0.00    +0.000 NA
ATOM     26  H1  UNL     1       0.814   1.953  18.798  0.00  0.00    +0.000 HD
ATOM     27  H2  UNL     1       0.326   2.232  20.344  0.00  0.00    +0.000 HD
ENDBRANCH  24  25
BRANCH  24  28
ATOM     28  C   UNL     1       1.197   4.545  20.448  0.00  0.00    +0.000 C 
BRANCH  28  29
ATOM     29  C   UNL     1       2.111   5.679  20.913  0.00  0.00    +0.000 C 
BRANCH  29  30
ATOM     30  C   UNL     1       1.999   6.843  19.961  0.00  0.00    +0.000 A 
ATOM     31  C   UNL     1       2.520   6.752  18.663  0.00  0.00    +0.000 A 
ATOM     32  C   UNL     1       2.475   7.852  17.805  0.00  0.00    +0.000 A 
ATOM     33  C   UNL     1       1.911   9.042  18.251  0.00  0.00    +0.000 A 
ATOM     34  C   UNL     1       1.389   9.149  19.535  0.00  0.00    +0.000 A 
ATOM     35  C   UNL     1       1.434   8.050  20.392  0.00  0.00    +0.000 A 
BRANCH  33  36
ATOM     36  O   UNL     1       1.856  10.144  17.450  0.00  0.00    +0.000 OA
ATOM     37  H   UNL     1       1.122  10.034  16.825  0.00  0.00    +0.000 HD
ENDBRANCH  33  36
ENDBRANCH  29  30
ENDBRANCH  28  29
ENDBRANCH  24  28
ENDBRANCH  20  24
ENDBRANCH   1  22
BRANCH   1  38
ATOM     38  C   UNL     1       4.268   3.600  17.380  0.00  0.00    +0.000 C 
ATOM     39  O   UNL     1       3.657   4.262  16.550  0.00  0.00    +0.000 OA
BRANCH  38  40
ATOM     40  OXT UNL     1       4.513   2.285  17.180  0.00  0.00    +0.000 OA
ATOM     41  HXT UNL     1       4.908   2.076  16.302  0.00  0.00    +0.000 HD
ENDBRANCH  38  40
ENDBRANCH   1  38
TORSDOF 13
ENDMDL
MODEL 4
REMARK VINA RESULT:      -7.3      3.116      9.508
REMARK  Name = 
REMARK  13 active torsions:
REMARK  status: ('A' for Active; 'I' for Inactive)
REMARK    1  A    between atoms: N_1  and  CA_2
REMARK    2  A    between atoms: CA_2  and  C_3
REMARK    3  A    between atoms: CA_2  and  C_12
REMARK    4  A    between atoms: C_3  and  C_4
REMARK    5  A    between atoms: C_4  and  C_5
REMARK    6  A    between atoms: C_8  and  O_9
REMARK    7  A    between atoms: N_14  and  CA_15
REMARK    8  A    between atoms: CA_15  and  C_16
REMARK    9  A    between atoms: CA_15  and  C_19
REMARK   10  A    between atoms: C_16  and  OXT_18
REMARK   11  A    between atoms: C_21  and  N_22
REMARK   12  A    between atoms: C_30  and  O_31
REMARK   13  A    between atoms: C_32  and  O_33
REMARK                            x       y       z     vdW  Elec       q    Type
REMARK                         _______ _______ _______ _____ _____    ______ ____
ROOT
ATOM      1  CA  UNL     1       1.107   9.178  19.076  0.00  0.00    +0.000 C 
ENDROOT
BRANCH   1   2
ATOM      2  C   UNL     1       1.467   9.799  20.437  0.00  0.00    +0.000 C 
ATOM      3  O   UNL     1       0.753  11.054  20.624  0.00  0.00    +0.000 OA
ATOM      4  C   UNL     1      -0.150  10.899  21.741  0.00  0.00    +0.000 C 
ATOM      5  C   UNL     1      -0.288   9.402  22.032  0.00  0.00    +0.000 C 
ATOM      6  C   UNL     1       1.085   8.912  21.633  0.00  0.00    +0.000 C 
BRANCH   4   7
ATOM      7  N   UNL     1      -1.401  11.581  21.446  0.00  0.00    +0.000 N 
ATOM      8  C   UNL     1      -1.683  11.916  20.134  0.00  0.00    +0.000 A 
ATOM      9  C   UNL     1      -2.757  12.630  19.804  0.00  0.00    +0.000 A 
ATOM     10  C   UNL     1      -3.654  13.098  20.877  0.00  0.00    +0.000 A 
ATOM     11  O   UNL     1      -4.616  13.813  20.630  0.00  0.00    +0.000 OA
ATOM     12  N   UNL     1      -3.334  12.689  22.134  0.00  0.00    +0.000 N 
ATOM     13  C   UNL     1      -2.237  11.959  22.487  0.00  0.00    +0.000 A 
ATOM     14  O   UNL     1      -2.047  11.675  23.668  0.00  0.00    +0.000 OA
ATOM     15  H   UNL     1      -3.932  12.999  22.888  0.00  0.00    +0.000 HD
ENDBRANCH   4   7
BRANCH   5  16
ATOM     16  O   UNL     1      -0.563   9.133  23.406  0.00  0.00    +0.000 OA
ATOM     17  H   UNL     1      -0.392   9.971  23.887  0.00  0.00    +0.000 HD
ENDBRANCH   5  16
BRANCH   6  18
ATOM     18  O   UNL     1       1.963   9.117  22.759  0.00  0.00    +0.000 OA
ATOM     19  H   UNL     1       2.576   8.366  22.850  0.00  0.00    +0.000 HD
ENDBRANCH   6  18
ENDBRANCH   1   2
BRANCH   1  22
ATOM     20  C   UNL     1       2.927   7.478  18.225  0.00  0.00    +0.000 C 
ATOM     21  O   UNL     1       3.941   7.469  17.518  0.00  0.00    +0.000 OA
ATOM     22  N   UNL     1       2.226   8.642  18.275  0.00  0.00    +0.000 N 
ATOM     23  H   UNL     1       2.761   9.367  17.802  0.00  0.00    +0.000 HD
BRANCH  20  24
ATOM     24  CA  UNL     1       2.493   6.203  18.976  0.00  0.00    +0.000 C 
BRANCH  24  25
ATOM     25  N   UNL     1       1.689   5.352  18.085  0.00  0.00    +0.000 NA
ATOM     26  H1  UNL     1       2.263   4.618  17.676  0.00  0.00    +0.000 HD
ATOM     27  H2  UNL     1       1.330   5.926  17.320  0.00  0.00    +0.000 HD
ENDBRANCH  24  25
BRANCH  24  28
ATOM     28  C   UNL     1       3.669   5.487  19.632  0.00  0.00    +0.000 C 
BRANCH  28  29
ATOM     29  C   UNL     1       4.039   4.153  18.983  0.00  0.00    +0.000 C 
BRANCH  29  30
ATOM     30  C   UNL     1       5.052   4.385  17.890  0.00  0.00    +0.000 A 
ATOM     31  C   UNL     1       6.316   4.911  18.191  0.00  0.00    +0.000 A 
ATOM     32  C   UNL     1       7.228   5.187  17.172  0.00  0.00    +0.000 A 
ATOM     33  C   UNL     1       6.870   4.938  15.851  0.00  0.00    +0.000 A 
ATOM     34  C   UNL     1       5.621   4.417  15.534  0.00  0.00    +0.000 A 
ATOM     35  C   UNL     1       4.710   4.141  16.553  0.00  0.00    +0.000 A 
BRANCH  33  36
ATOM     36  O   UNL     1       7.726   5.203  14.823  0.00  0.00    +0.000 OA
ATOM     37  H   UNL     1       8.034   6.119  14.907  0.00  0.00    +0.000 HD
ENDBRANCH  33  36
ENDBRANCH  29  30
ENDBRANCH  28  29
ENDBRANCH  24  28
ENDBRANCH  20  24
ENDBRANCH   1  22
BRANCH   1  38
ATOM     38  C   UNL     1       0.230  10.096  18.195  0.00  0.00    +0.000 C 
ATOM     39  O   UNL     1      -0.890   9.786  17.807  0.00  0.00    +0.000 OA
BRANCH  38  40
ATOM     40  OXT UNL     1       0.741  11.323  17.943  0.00  0.00    +0.000 OA
ATOM     41  HXT UNL     1       1.240  11.715  18.695  0.00  0.00    +0.000 HD
ENDBRANCH  38  40
ENDBRANCH   1  38
TORSDOF 13
ENDMDL
MODEL 5
REMARK VINA RESULT:      -7.3      2.980      9.190
REMARK  Name = 
REMARK  13 active torsions:
REMARK  status: ('A' for Active; 'I' for Inactive)
REMARK    1  A    between atoms: N_1  and  CA_2
REMARK    2  A    between atoms: CA_2  and  C_3
REMARK    3  A    between atoms: CA_2  and  C_12
REMARK    4  A    between atoms: C_3  and  C_4
REMARK    5  A    between atoms: C_4  and  C_5
REMARK    6  A    between atoms: C_8  and  O_9
REMARK    7  A    between atoms: N_14  and  CA_15
REMARK    8  A    between atoms: CA_15  and  C_16
REMARK    9  A    between atoms: CA_15  and  C_19
REMARK   10  A    between atoms: C_16  and  OXT_18
REMARK   11  A    between atoms: C_21  and  N_22
REMARK   12  A    between atoms: C_30  and  O_31
REMARK   13  A    between atoms: C_32  and  O_33
REMARK                            x       y       z     vdW  Elec       q    Type
REMARK                         _______ _______ _______ _____ _____    ______ ____
ROOT
ATOM      1  CA  UNL     1       1.447   8.339  20.748  0.00  0.00    +0.000 C 
ENDROOT
BRANCH   1   2
ATOM      2  C   UNL     1       0.899   8.865  19.410  0.00  0.00    +0.000 C 
ATOM      3  O   UNL     1      -0.289   9.676  19.635  0.00  0.00    +0.000 OA
ATOM      4  C   UNL     1       0.002  11.031  19.228  0.00  0.00    +0.000 C 
ATOM      5  C   UNL     1       1.521  11.167  19.095  0.00  0.00    +0.000 C 
ATOM      6  C   UNL     1       1.890   9.768  18.656  0.00  0.00    +0.000 C 
BRANCH   4   7
ATOM      7  N   UNL     1      -0.614  11.958  20.165  0.00  0.00    +0.000 N 
ATOM      8  C   UNL     1       0.163  12.499  21.173  0.00  0.00    +0.000 A 
ATOM      9  C   UNL     1      -0.356  13.271  22.126  0.00  0.00    +0.000 A 
ATOM     10  C   UNL     1      -1.808  13.532  22.114  0.00  0.00    +0.000 A 
ATOM     11  O   UNL     1      -2.341  14.180  23.004  0.00  0.00    +0.000 OA
ATOM     12  N   UNL     1      -2.494  13.003  21.065  0.00  0.00    +0.000 N 
ATOM     13  C   UNL     1      -1.976  12.210  20.084  0.00  0.00    +0.000 A 
ATOM     14  O   UNL     1      -2.712  11.772  19.201  0.00  0.00    +0.000 OA
ATOM     15  H   UNL     1      -3.491  13.165  21.035  0.00  0.00    +0.000 HD
ENDBRANCH   4   7
BRANCH   5  16
ATOM     16  O   UNL     1       1.903  12.138  18.121  0.00  0.00    +0.000 OA
ATOM     17  H   UNL     1       1.760  11.717  17.246  0.00  0.00    +0.000 HD
ENDBRANCH   5  16
BRANCH   6  18
ATOM     18  O   UNL     1       1.704   9.697  17.228  0.00  0.00    +0.000 OA
ATOM     19  H   UNL     1       2.496   9.322  16.804  0.00  0.00    +0.000 HD
ENDBRANCH   6  18
ENDBRANCH   1   2
BRANCH   1  22
ATOM     20  C   UNL     1       1.894   5.785  20.299  0.00  0.00    +0.000 C 
ATOM     21  O   UNL     1       1.495   4.683  20.690  0.00  0.00    +0.000 OA
ATOM     22  N   UNL     1       1.411   6.876  20.949  0.00  0.00    +0.000 N 
ATOM     23  H   UNL     1       0.675   6.580  21.585  0.00  0.00    +0.000 HD
BRANCH  20  24
ATOM     24  CA  UNL     1       2.914   5.877  19.145  0.00  0.00    +0.000 C 
BRANCH  24  25
ATOM     25  N   UNL     1       4.264   6.086  19.692  0.00  0.00    +0.000 NA
ATOM     26  H1  UNL     1       4.394   5.543  20.542  0.00  0.00    +0.000 HD
ATOM     27  H2  UNL     1       4.368   7.073  19.937  0.00  0.00    +0.000 HD
ENDBRANCH  24  25
BRANCH  24  28
ATOM     28  C   UNL     1       2.805   4.702  18.179  0.00  0.00    +0.000 C 
BRANCH  28  29
ATOM     29  C   UNL     1       3.976   3.722  18.241  0.00  0.00    +0.000 C 
BRANCH  29  30
ATOM     30  C   UNL     1       5.019   4.113  17.225  0.00  0.00    +0.000 A 
ATOM     31  C   UNL     1       6.354   4.296  17.611  0.00  0.00    +0.000 A 
ATOM     32  C   UNL     1       7.306   4.721  16.683  0.00  0.00    +0.000 A 
ATOM     33  C   UNL     1       6.917   4.966  15.371  0.00  0.00    +0.000 A 
ATOM     34  C   UNL     1       5.597   4.789  14.971  0.00  0.00    +0.000 A 
ATOM     35  C   UNL     1       4.647   4.364  15.898  0.00  0.00    +0.000 A 
BRANCH  33  36
ATOM     36  O   UNL     1       7.811   5.393  14.435  0.00  0.00    +0.000 OA
ATOM     37  H   UNL     1       7.997   6.333  14.592  0.00  0.00    +0.000 HD
ENDBRANCH  33  36
ENDBRANCH  29  30
ENDBRANCH  28  29
ENDBRANCH  24  28
ENDBRANCH  20  24
ENDBRANCH   1  22
BRANCH   1  38
ATOM     38  C   UNL     1       0.843   9.048  21.981  0.00  0.00    +0.000 C 
ATOM     39  O   UNL     1       1.476   9.824  22.688  0.00  0.00    +0.000 OA
BRANCH  38  40
ATOM     40  OXT UNL     1      -0.475   8.831  22.190  0.00  0.00    +0.000 OA
ATOM     41  HXT UNL     1      -0.733   7.881  22.194  0.00  0.00    +0.000 HD
ENDBRANCH  38  40
ENDBRANCH   1  38
TORSDOF 13
ENDMDL
MODEL 6
REMARK VINA RESULT:      -7.2      1.092      1.556
REMARK  Name = 
REMARK  13 active torsions:
REMARK  status: ('A' for Active; 'I' for Inactive)
REMARK    1  A    between atoms: N_1  and  CA_2
REMARK    2  A    between atoms: CA_2  and  C_3
REMARK    3  A    between atoms: CA_2  and  C_12
REMARK    4  A    between atoms: C_3  and  C_4
REMARK    5  A    between atoms: C_4  and  C_5
REMARK    6  A    between atoms: C_8  and  O_9
REMARK    7  A    between atoms: N_14  and  CA_15
REMARK    8  A    between atoms: CA_15  and  C_16
REMARK    9  A    between atoms: CA_15  and  C_19
REMARK   10  A    between atoms: C_16  and  OXT_18
REMARK   11  A    between atoms: C_21  and  N_22
REMARK   12  A    between atoms: C_30  and  O_31
REMARK   13  A    between atoms: C_32  and  O_33
REMARK                            x       y       z     vdW  Elec       q    Type
REMARK                         _______ _______ _______ _____ _____    ______ ____
ROOT
ATOM      1  CA  UNL     1       1.593   5.085  19.093  0.00  0.00    +0.000 C 
ENDROOT
BRANCH   1   2
ATOM      2  C   UNL     1       1.638   3.761  18.308  0.00  0.00    +0.000 C 
ATOM      3  O   UNL     1       2.357   3.942  17.055  0.00  0.00    +0.000 OA
ATOM      4  C   UNL     1       3.551   3.129  17.096  0.00  0.00    +0.000 C 
ATOM      5  C   UNL     1       3.791   2.716  18.550  0.00  0.00    +0.000 C 
ATOM      6  C   UNL     1       2.369   2.633  19.055  0.00  0.00    +0.000 C 
BRANCH   4   7
ATOM      7  N   UNL     1       4.649   3.857  16.479  0.00  0.00    +0.000 N 
ATOM      8  C   UNL     1       5.003   3.551  15.177  0.00  0.00    +0.000 A 
ATOM      9  C   UNL     1       6.061   4.102  14.586  0.00  0.00    +0.000 A 
ATOM     10  C   UNL     1       6.891   5.047  15.356  0.00  0.00    +0.000 A 
ATOM     11  O   UNL     1       7.910   5.529  14.879  0.00  0.00    +0.000 OA
ATOM     12  N   UNL     1       6.451   5.332  16.612  0.00  0.00    +0.000 N 
ATOM     13  C   UNL     1       5.371   4.774  17.231  0.00  0.00    +0.000 A 
ATOM     14  O   UNL     1       5.093   5.098  18.383  0.00  0.00    +0.000 OA
ATOM     15  H   UNL     1       7.004   5.975  17.162  0.00  0.00    +0.000 HD
ENDBRANCH   4   7
BRANCH   5  16
ATOM     16  O   UNL     1       4.461   1.461  18.661  0.00  0.00    +0.000 OA
ATOM     17  H   UNL     1       5.363   1.602  18.301  0.00  0.00    +0.000 HD
ENDBRANCH   5  16
BRANCH   6  18
ATOM     18  O   UNL     1       1.857   1.332  18.701  0.00  0.00    +0.000 OA
ATOM     19  H   UNL     1       1.569   0.855  19.499  0.00  0.00    +0.000 HD
ENDBRANCH   6  18
ENDBRANCH   1   2
BRANCH   1  22
ATOM     20  C   UNL     1       2.399   7.515  18.483  0.00  0.00    +0.000 C 
ATOM     21  O   UNL     1       3.316   8.069  17.868  0.00  0.00    +0.000 OA
ATOM     22  N   UNL     1       2.483   6.165  18.620  0.00  0.00    +0.000 N 
ATOM     23  H   UNL     1       3.254   5.825  18.052  0.00  0.00    +0.000 HD
BRANCH  20  24
ATOM     24  CA  UNL     1       1.249   8.351  19.080  0.00  0.00    +0.000 C 
BRANCH  24  25
ATOM     25  N   UNL     1       1.476   8.552  20.519  0.00  0.00    +0.000 NA
ATOM     26  H1  UNL     1       0.961   9.363  20.853  0.00  0.00    +0.000 HD
ATOM     27  H2  UNL     1       2.470   8.732  20.672  0.00  0.00    +0.000 HD
ENDBRANCH  24  25
BRANCH  24  28
ATOM     28  C   UNL     1       1.000   9.637  18.300  0.00  0.00    +0.000 C 
BRANCH  28  29
ATOM     29  C   UNL     1       0.126  10.659  19.026  0.00  0.00    +0.000 C 
BRANCH  29  30
ATOM     30  C   UNL     1      -1.238  10.705  18.386  0.00  0.00    +0.000 A 
ATOM     31  C   UNL     1      -1.515   9.939  17.245  0.00  0.00    +0.000 A 
ATOM     32  C   UNL     1      -2.756  10.033  16.615  0.00  0.00    +0.000 A 
ATOM     33  C   UNL     1      -3.718  10.897  17.127  0.00  0.00    +0.000 A 
ATOM     34  C   UNL     1      -3.461  11.664  18.258  0.00  0.00    +0.000 A 
ATOM     35  C   UNL     1      -2.220  11.570  18.887  0.00  0.00    +0.000 A 
BRANCH  33  36
ATOM     36  O   UNL     1      -4.940  11.028  16.537  0.00  0.00    +0.000 OA
ATOM     37  H   UNL     1      -5.342  11.857  16.841  0.00  0.00    +0.000 HD
ENDBRANCH  33  36
ENDBRANCH  29  30
ENDBRANCH  28  29
ENDBRANCH  24  28
ENDBRANCH  20  24
ENDBRANCH   1  22
BRANCH   1  38
ATOM     38  C   UNL     1       1.761   4.901  20.617  0.00  0.00    +0.000 C 
ATOM     39  O   UNL     1       2.418   5.662  21.318  0.00  0.00    +0.000 OA
BRANCH  38  40
ATOM     40  OXT UNL     1       1.055   3.885  21.163  0.00  0.00    +0.000 OA
ATOM     41  HXT UNL     1       1.442   2.994  21.006  0.00  0.00    +0.000 HD
ENDBRANCH  38  40
ENDBRANCH   1  38
TORSDOF 13
ENDMDL
MODEL 7
REMARK VINA RESULT:      -7.2      0.690      1.236
REMARK  Name = 
REMARK  13 active torsions:
REMARK  status: ('A' for Active; 'I' for Inactive)
REMARK    1  A    between atoms: N_1  and  CA_2
REMARK    2  A    between atoms: CA_2  and  C_3
REMARK    3  A    between atoms: CA_2  and  C_12
REMARK    4  A    between atoms: C_3  and  C_4
REMARK    5  A    between atoms: C_4  and  C_5
REMARK    6  A    between atoms: C_8  and  O_9
REMARK    7  A    between atoms: N_14  and  CA_15
REMARK    8  A    between atoms: CA_15  and  C_16
REMARK    9  A    between atoms: CA_15  and  C_19
REMARK   10  A    between atoms: C_16  and  OXT_18
REMARK   11  A    between atoms: C_21  and  N_22
REMARK   12  A    between atoms: C_30  and  O_31
REMARK   13  A    between atoms: C_32  and  O_33
REMARK                            x       y       z     vdW  Elec       q    Type
REMARK                         _______ _______ _______ _____ _____    ______ ____
ROOT
ATOM      1  CA  UNL     1       1.706   5.152  18.760  0.00  0.00    +0.000 C 
ENDROOT
BRANCH   1   2
ATOM      2  C   UNL     1       2.217   3.873  18.074  0.00  0.00    +0.000 C 
ATOM      3  O   UNL     1       3.261   4.198  17.113  0.00  0.00    +0.000 OA
ATOM      4  C   UNL     1       4.494   3.592  17.561  0.00  0.00    +0.000 C 
ATOM      5  C   UNL     1       4.317   3.191  19.028  0.00  0.00    +0.000 C 
ATOM      6  C   UNL     1       2.842   2.863  19.051  0.00  0.00    +0.000 C 
BRANCH   4   7
ATOM      7  N   UNL     1       5.599   4.505  17.307  0.00  0.00    +0.000 N 
ATOM      8  C   UNL     1       5.951   5.412  18.289  0.00  0.00    +0.000 A 
ATOM      9  C   UNL     1       6.881   6.344  18.087  0.00  0.00    +0.000 A 
ATOM     10  C   UNL     1       7.532   6.421  16.766  0.00  0.00    +0.000 A 
ATOM     11  O   UNL     1       8.344   7.300  16.512  0.00  0.00    +0.000 OA
ATOM     12  N   UNL     1       7.165   5.465  15.870  0.00  0.00    +0.000 N 
ATOM     13  C   UNL     1       6.214   4.507  16.063  0.00  0.00    +0.000 A 
ATOM     14  O   UNL     1       5.955   3.714  15.159  0.00  0.00    +0.000 OA
ATOM     15  H   UNL     1       7.595   5.498  14.956  0.00  0.00    +0.000 HD
ENDBRANCH   4   7
BRANCH   5  16
ATOM     16  O   UNL     1       5.111   2.060  19.387  0.00  0.00    +0.000 OA
ATOM     17  H   UNL     1       4.742   1.300  18.888  0.00  0.00    +0.000 HD
ENDBRANCH   5  16
BRANCH   6  18
ATOM     18  O   UNL     1       2.691   1.504  18.592  0.00  0.00    +0.000 OA
ATOM     19  H   UNL     1       1.748   1.290  18.478  0.00  0.00    +0.000 HD
ENDBRANCH   6  18
ENDBRANCH   1   2
BRANCH   1  22
ATOM     20  C   UNL     1       2.275   7.721  18.672  0.00  0.00    +0.000 C 
ATOM     21  O   UNL     1       3.126   8.474  18.186  0.00  0.00    +0.000 OA
ATOM     22  N   UNL     1       2.485   6.386  18.524  0.00  0.00    +0.000 N 
ATOM     23  H   UNL     1       3.274   6.245  17.898  0.00  0.00    +0.000 HD
BRANCH  20  24
ATOM     24  CA  UNL     1       1.064   8.303  19.428  0.00  0.00    +0.000 C 
BRANCH  24  25
ATOM     25  N   UNL     1       1.357   8.356  20.869  0.00  0.00    +0.000 NA
ATOM     26  H1  UNL     1       0.498   8.455  21.405  0.00  0.00    +0.000 HD
ATOM     27  H2  UNL     1       1.934   9.178  21.056  0.00  0.00    +0.000 HD
ENDBRANCH  24  25
BRANCH  24  28
ATOM     28  C   UNL     1       0.592   9.627  18.837  0.00  0.00    +0.000 C 
BRANCH  28  29
ATOM     29  C   UNL     1      -0.396   9.486  17.679  0.00  0.00    +0.000 C 
BRANCH  29  30
ATOM     30  C   UNL     1      -1.613  10.336  17.944  0.00  0.00    +0.000 A 
ATOM     31  C   UNL     1      -1.575  11.350  18.912  0.00  0.00    +0.000 A 
ATOM     32  C   UNL     1      -2.720  12.092  19.202  0.00  0.00    +0.000 A 
ATOM     33  C   UNL     1      -3.902  11.816  18.525  0.00  0.00    +0.000 A 
ATOM     34  C   UNL     1      -3.957  10.815  17.562  0.00  0.00    +0.000 A 
ATOM     35  C   UNL     1      -2.813  10.073  17.271  0.00  0.00    +0.000 A 
BRANCH  33  36
ATOM     36  O   UNL     1      -5.047  12.510  18.785  0.00  0.00    +0.000 OA
ATOM     37  H   UNL     1      -5.794  12.026  18.399  0.00  0.00    +0.000 HD
ENDBRANCH  33  36
ENDBRANCH  29  30
ENDBRANCH  28  29
ENDBRANCH  24  28
ENDBRANCH  20  24
ENDBRANCH   1  22
BRANCH   1  38
ATOM     38  C   UNL     1       1.452   4.979  20.273  0.00  0.00    +0.000 C 
ATOM     39  O   UNL     1       2.165   5.476  21.137  0.00  0.00    +0.000 OA
BRANCH  38  40
ATOM     40  OXT UNL     1       0.325   4.307  20.601  0.00  0.00    +0.000 OA
ATOM     41  HXT UNL     1      -0.279   4.136  19.843  0.00  0.00    +0.000 HD
ENDBRANCH  38  40
ENDBRANCH   1  38
TORSDOF 13
ENDMDL
MODEL 8
REMARK VINA RESULT:      -7.2      3.935     10.022
REMARK  Name = 
REMARK  13 active torsions:
REMARK  status: ('A' for Active; 'I' for Inactive)
REMARK    1  A    between atoms: N_1  and  CA_2
REMARK    2  A    between atoms: CA_2  and  C_3
REMARK    3  A    between atoms: CA_2  and  C_12
REMARK    4  A    between atoms: C_3  and  C_4
REMARK    5  A    between atoms: C_4  and  C_5
REMARK    6  A    between atoms: C_8  and  O_9
REMARK    7  A    between atoms: N_14  and  CA_15
REMARK    8  A    between atoms: CA_15  and  C_16
REMARK    9  A    between atoms: CA_15  and  C_19
REMARK   10  A    between atoms: C_16  and  OXT_18
REMARK   11  A    between atoms: C_21  and  N_22
REMARK   12  A    between atoms: C_30  and  O_31
REMARK   13  A    between atoms: C_32  and  O_33
REMARK                            x       y       z     vdW  Elec       q    Type
REMARK                         _______ _______ _______ _____ _____    ______ ____
ROOT
ATOM      1  CA  UNL     1      -0.309  10.190  19.199  0.00  0.00    +0.000 C 
ENDROOT
BRANCH   1   2
ATOM      2  C   UNL     1      -1.204  11.221  18.489  0.00  0.00    +0.000 C 
ATOM      3  O   UNL     1      -2.470  11.360  19.194  0.00  0.00    +0.000 OA
ATOM      4  C   UNL     1      -2.557  12.707  19.710  0.00  0.00    +0.000 C 
ATOM      5  C   UNL     1      -1.156  13.322  19.658  0.00  0.00    +0.000 C 
ATOM      6  C   UNL     1      -0.592  12.630  18.438  0.00  0.00    +0.000 C 
BRANCH   4   7
ATOM      7  N   UNL     1      -3.161  12.677  21.033  0.00  0.00    +0.000 N 
ATOM      8  C   UNL     1      -2.342  12.518  22.135  0.00  0.00    +0.000 A 
ATOM      9  C   UNL     1      -2.834  12.378  23.365  0.00  0.00    +0.000 A 
ATOM     10  C   UNL     1      -4.298  12.367  23.545  0.00  0.00    +0.000 A 
ATOM     11  O   UNL     1      -4.798  12.176  24.646  0.00  0.00    +0.000 OA
ATOM     12  N   UNL     1      -5.033  12.575  22.420  0.00  0.00    +0.000 N 
ATOM     13  C   UNL     1      -4.543  12.718  21.155  0.00  0.00    +0.000 A 
ATOM     14  O   UNL     1      -5.319  12.875  20.214  0.00  0.00    +0.000 OA
ATOM     15  H   UNL     1      -6.039  12.570  22.516  0.00  0.00    +0.000 HD
ENDBRANCH   4   7
BRANCH   5  16
ATOM     16  O   UNL     1      -1.184  14.739  19.491  0.00  0.00    +0.000 OA
ATOM     17  H   UNL     1      -1.905  15.066  20.070  0.00  0.00    +0.000 HD
ENDBRANCH   5  16
BRANCH   6  18
ATOM     18  O   UNL     1      -1.031  13.367  17.278  0.00  0.00    +0.000 OA
ATOM     19  H   UNL     1      -1.959  13.156  17.076  0.00  0.00    +0.000 HD
ENDBRANCH   6  18
ENDBRANCH   1   2
BRANCH   1  22
ATOM     20  C   UNL     1      -0.011   9.243  21.637  0.00  0.00    +0.000 C 
ATOM     21  O   UNL     1      -0.672   9.098  22.671  0.00  0.00    +0.000 OA
ATOM     22  N   UNL     1      -0.605   9.925  20.622  0.00  0.00    +0.000 N 
ATOM     23  H   UNL     1      -1.581  10.086  20.862  0.00  0.00    +0.000 HD
BRANCH  20  24
ATOM     24  CA  UNL     1       1.426   8.691  21.551  0.00  0.00    +0.000 C 
BRANCH  24  25
ATOM     25  N   UNL     1       2.170   9.051  22.768  0.00  0.00    +0.000 NA
ATOM     26  H1  UNL     1       1.545   9.449  23.465  0.00  0.00    +0.000 HD
ATOM     27  H2  UNL     1       2.862   9.763  22.529  0.00  0.00    +0.000 HD
ENDBRANCH  24  25
BRANCH  24  28
ATOM     28  C   UNL     1       1.457   7.204  21.214  0.00  0.00    +0.000 C 
BRANCH  28  29
ATOM     29  C   UNL     1       2.197   6.864  19.921  0.00  0.00    +0.000 C 
BRANCH  29  30
ATOM     30  C   UNL     1       1.938   5.425  19.552  0.00  0.00    +0.000 A 
ATOM     31  C   UNL     1       2.192   4.967  18.251  0.00  0.00    +0.000 A 
ATOM     32  C   UNL     1       1.890   3.653  17.893  0.00  0.00    +0.000 A 
ATOM     33  C   UNL     1       1.331   2.799  18.839  0.00  0.00    +0.000 A 
ATOM     34  C   UNL     1       1.074   3.236  20.133  0.00  0.00    +0.000 A 
ATOM     35  C   UNL     1       1.375   4.550  20.491  0.00  0.00    +0.000 A 
BRANCH  33  36
ATOM     36  O   UNL     1       1.011   1.511  18.529  0.00  0.00    +0.000 OA
ATOM     37  H   UNL     1       0.955   1.001  19.353  0.00  0.00    +0.000 HD
ENDBRANCH  33  36
ENDBRANCH  29  30
ENDBRANCH  28  29
ENDBRANCH  24  28
ENDBRANCH  20  24
ENDBRANCH   1  22
BRANCH   1  38
ATOM     38  C   UNL     1       1.201  10.464  19.024  0.00  0.00    +0.000 C 
ATOM     39  O   UNL     1       1.897   9.891  18.194  0.00  0.00    +0.000 OA
BRANCH  38  40
ATOM     40  OXT UNL     1       1.706  11.455  19.794  0.00  0.00    +0.000 OA
ATOM     41  HXT UNL     1       2.398  11.997  19.352  0.00  0.00    +0.000 HD
ENDBRANCH  38  40
ENDBRANCH   1  38
TORSDOF 13
ENDMDL
MODEL 9
REMARK VINA RESULT:      -7.2      3.650      9.903
REMARK  Name = 
REMARK  13 active torsions:
REMARK  status: ('A' for Active; 'I' for Inactive)
REMARK    1  A    between atoms: N_1  and  CA_2
REMARK    2  A    between atoms: CA_2  and  C_3
REMARK    3  A    between atoms: CA_2  and  C_12
REMARK    4  A    between atoms: C_3  and  C_4
REMARK    5  A    between atoms: C_4  and  C_5
REMARK    6  A    between atoms: C_8  and  O_9
REMARK    7  A    between atoms: N_14  and  CA_15
REMARK    8  A    between atoms: CA_15  and  C_16
REMARK    9  A    between atoms: CA_15  and  C_19
REMARK   10  A    between atoms: C_16  and  OXT_18
REMARK   11  A    between atoms: C_21  and  N_22
REMARK   12  A    between atoms: C_30  and  O_31
REMARK   13  A    between atoms: C_32  and  O_33
REMARK                            x       y       z     vdW  Elec       q    Type
REMARK                         _______ _______ _______ _____ _____    ______ ____
ROOT
ATOM      1  CA  UNL     1       0.514  10.847  21.186  0.00  0.00    +0.000 C 
ENDROOT
BRANCH   1   2
ATOM      2  C   UNL     1      -0.035  12.225  21.595  0.00  0.00    +0.000 C 
ATOM      3  O   UNL     1      -0.869  12.771  20.533  0.00  0.00    +0.000 OA
ATOM      4  C   UNL     1      -2.221  12.882  21.031  0.00  0.00    +0.000 C 
ATOM      5  C   UNL     1      -2.325  12.040  22.305  0.00  0.00    +0.000 C 
ATOM      6  C   UNL     1      -0.922  12.183  22.850  0.00  0.00    +0.000 C 
BRANCH   4   7
ATOM      7  N   UNL     1      -3.153  12.512  19.977  0.00  0.00    +0.000 N 
ATOM      8  C   UNL     1      -2.694  11.744  18.922  0.00  0.00    +0.000 A 
ATOM      9  C   UNL     1      -3.463  11.456  17.874  0.00  0.00    +0.000 A 
ATOM     10  C   UNL     1      -4.834  11.996  17.830  0.00  0.00    +0.000 A 
ATOM     11  O   UNL     1      -5.555  11.814  16.858  0.00  0.00    +0.000 OA
ATOM     12  N   UNL     1      -5.226  12.702  18.925  0.00  0.00    +0.000 N 
ATOM     13  C   UNL     1      -4.450  13.007  20.004  0.00  0.00    +0.000 A 
ATOM     14  O   UNL     1      -4.917  13.679  20.922  0.00  0.00    +0.000 OA
ATOM     15  H   UNL     1      -6.160  13.086  18.918  0.00  0.00    +0.000 HD
ENDBRANCH   4   7
BRANCH   5  16
ATOM     16  O   UNL     1      -3.296  12.547  23.220  0.00  0.00    +0.000 OA
ATOM     17  H   UNL     1      -4.102  12.727  22.689  0.00  0.00    +0.000 HD
ENDBRANCH   5  16
BRANCH   6  18
ATOM     18  O   UNL     1      -0.867  13.418  23.591  0.00  0.00    +0.000 OA
ATOM     19  H   UNL     1      -0.836  13.236  24.547  0.00  0.00    +0.000 HD
ENDBRANCH   6  18
ENDBRANCH   1   2
BRANCH   1  22
ATOM     20  C   UNL     1       0.602   9.532  18.907  0.00  0.00    +0.000 C 
ATOM     21  O   UNL     1      -0.030   9.453  17.848  0.00  0.00    +0.000 OA
ATOM     22  N   UNL     1       0.069  10.317  19.880  0.00  0.00    +0.000 N 
ATOM     23  H   UNL     1      -0.724  10.824  19.495  0.00  0.00    +0.000 HD
BRANCH  20  24
ATOM     24  CA  UNL     1       1.912   8.740  19.090  0.00  0.00    +0.000 C 
BRANCH  24  25
ATOM     25  N   UNL     1       1.811   7.882  20.280  0.00  0.00    +0.000 NA
ATOM     26  H1  UNL     1       2.354   8.269  21.048  0.00  0.00    +0.000 HD
ATOM     27  H2  UNL     1       2.203   6.965  20.057  0.00  0.00    +0.000 HD
ENDBRANCH  24  25
BRANCH  24  28
ATOM     28  C   UNL     1       2.328   8.005  17.821  0.00  0.00    +0.000 C 
BRANCH  28  29
ATOM     29  C   UNL     1       3.604   7.175  17.960  0.00  0.00    +0.000 C 
BRANCH  29  30
ATOM     30  C   UNL     1       3.274   5.710  17.825  0.00  0.00    +0.000 A 
ATOM     31  C   UNL     1       1.949   5.266  17.940  0.00  0.00    +0.000 A 
ATOM     32  C   UNL     1       1.653   3.904  17.881  0.00  0.00    +0.000 A 
ATOM     33  C   UNL     1       2.685   2.988  17.710  0.00  0.00    +0.000 A 
ATOM     34  C   UNL     1       4.004   3.411  17.593  0.00  0.00    +0.000 A 
ATOM     35  C   UNL     1       4.300   4.772  17.652  0.00  0.00    +0.000 A 
BRANCH  33  36
ATOM     36  O   UNL     1       2.442   1.648  17.657  0.00  0.00    +0.000 OA
ATOM     37  H   UNL     1       2.291   1.398  16.731  0.00  0.00    +0.000 HD
ENDBRANCH  33  36
ENDBRANCH  29  30
ENDBRANCH  28  29
ENDBRANCH  24  28
ENDBRANCH  20  24
ENDBRANCH   1  22
BRANCH   1  38
ATOM     38  C   UNL     1       0.332   9.766  22.275  0.00  0.00    +0.000 C 
ATOM     39  O   UNL     1       0.955   9.763  23.330  0.00  0.00    +0.000 OA
BRANCH  38  40
ATOM     40  OXT UNL     1      -0.635   8.852  22.033  0.00  0.00    +0.000 OA
ATOM     41  HXT UNL     1      -0.300   7.940  21.880  0.00  0.00    +0.000 HD
ENDBRANCH  38  40
ENDBRANCH   1  38
TORSDOF 13
ENDMDL
