MODEL 1
REMARK VINA RESULT:      -8.4      0.000      0.000
REMARK  Name = 
REMARK  6 active torsions:
REMARK  status: ('A' for Active; 'I' for Inactive)
REMARK    1  A    between atoms: N_3  and  C_4
REMARK    2  A    between atoms: C_4  and  C_5
REMARK    3  A    between atoms: C_7  and  N_8
REMARK    4  A    between atoms: C_12  and  C_13
REMARK    5  A    between atoms: C_16  and  C_17
REMARK    6  A    between atoms: N_18  and  N_19
REMARK                            x       y       z     vdW  Elec       q    Type
REMARK                         _______ _______ _______ _____ _____    ______ ____
ROOT
ATOM      1  C   UNL     1       2.535   7.530  18.278  0.00  0.00    +0.000 A 
ATOM      2  C   UNL     1       2.674   8.457  17.263  0.00  0.00    +0.000 A 
ATOM      3  C   UNL     1       2.046   9.640  17.701  0.00  0.00    +0.000 A 
ATOM      4  C   UNL     1       1.538   9.377  18.957  0.00  0.00    +0.000 A 
ATOM      5  O   UNL     1       1.822   8.086  19.308  0.00  0.00    +0.000 OA
ENDROOT
BRANCH   1  10
ATOM      6  C   UNL     1       2.664   3.779  18.783  0.00  0.00    +0.000 A 
ATOM      7  C   UNL     1       4.030   3.610  19.053  0.00  0.00    +0.000 A 
ATOM      8  C   UNL     1       4.915   4.691  19.014  0.00  0.00    +0.000 A 
ATOM      9  C   UNL     1       4.407   5.959  18.695  0.00  0.00    +0.000 A 
ATOM     10  C   UNL     1       3.036   6.170  18.468  0.00  0.00    +0.000 A 
ATOM     11  C   UNL     1       2.178   5.063  18.497  0.00  0.00    +0.000 A 
BRANCH   8  12
ATOM     12  N   UNL     1       6.279   4.439  19.263  0.00  0.00    +0.000 NA
ATOM     13  N   UNL     1       7.022   4.541  18.265  0.00  0.00    +0.000 NA
ATOM     14  N   UNL     1       7.701   4.616  17.353  0.00  0.00    +0.000 NA
ENDBRANCH   8  12
BRANCH   6  15
ATOM     15  C   UNL     1       1.713   2.612  18.882  0.00  0.00    +0.000 C 
BRANCH  15  18
ATOM     16  N   UNL     1       1.701   2.633  22.164  0.00  0.00    +0.000 NA
ATOM     17  N   UNL     1       1.251   2.718  21.122  0.00  0.00    +0.000 NA
ATOM     18  N   UNL     1       0.766   2.811  19.982  0.00  0.00    +0.000 NA
ENDBRANCH  15  18
ENDBRANCH   6  15
ENDBRANCH   1  10
BRANCH   4  19
ATOM     19  C   UNL     1       0.833  10.223  19.881  0.00  0.00    +0.000 C 
ATOM     20  N   UNL     1       0.034   9.664  20.735  0.00  0.00    +0.000 NA
BRANCH  20  21
ATOM     21  N   UNL     1      -0.699  10.415  21.603  0.00  0.00    +0.000 N 
ATOM     22  C   UNL     1      -1.453  11.533  21.086  0.00  0.00    +0.000 C 
ATOM     23  C   UNL     1      -1.957  12.143  22.376  0.00  0.00    +0.000 C 
ATOM     24  O   UNL     1      -2.657  13.140  22.468  0.00  0.00    +0.000 OA
ATOM     25  N   UNL     1      -1.493  11.418  23.425  0.00  0.00    +0.000 N 
ATOM     26  C   UNL     1      -0.695  10.397  23.003  0.00  0.00    +0.000 C 
ATOM     27  O   UNL     1      -0.095   9.650  23.759  0.00  0.00    +0.000 OA
ATOM     28  H   UNL     1      -1.653  11.642  24.392  0.00  0.00    +0.000 HD
ENDBRANCH  20  21
ENDBRANCH   4  19
TORSDOF 6
ENDMDL
MODEL 2
REMARK VINA RESULT:      -8.3      3.313      3.968
REMARK  Name = 
REMARK  6 active torsions:
REMARK  status: ('A' for Active; 'I' for Inactive)
REMARK    1  A    between atoms: N_3  and  C_4
REMARK    2  A    between atoms: C_4  and  C_5
REMARK    3  A    between atoms: C_7  and  N_8
REMARK    4  A    between atoms: C_12  and  C_13
REMARK    5  A    between atoms: C_16  and  C_17
REMARK    6  A    between atoms: N_18  and  N_19
REMARK                            x       y       z     vdW  Elec       q    Type
REMARK                         _______ _______ _______ _____ _____    ______ ____
ROOT
ATOM      1  C   UNL     1       1.993   7.986  18.677  0.00  0.00    +0.000 A 
ATOM      2  C   UNL     1       1.835   8.403  19.985  0.00  0.00    +0.000 A 
ATOM      3  C   UNL     1       0.847   9.408  19.976  0.00  0.00    +0.000 A 
ATOM      4  C   UNL     1       0.458   9.570  18.662  0.00  0.00    +0.000 A 
ATOM      5  O   UNL     1       1.166   8.715  17.863  0.00  0.00    +0.000 OA
ENDROOT
BRANCH   1  10
ATOM      6  C   UNL     1       3.252   4.571  17.630  0.00  0.00    +0.000 A 
ATOM      7  C   UNL     1       4.465   4.927  17.023  0.00  0.00    +0.000 A 
ATOM      8  C   UNL     1       4.846   6.266  16.897  0.00  0.00    +0.000 A 
ATOM      9  C   UNL     1       3.986   7.255  17.395  0.00  0.00    +0.000 A 
ATOM     10  C   UNL     1       2.787   6.929  18.052  0.00  0.00    +0.000 A 
ATOM     11  C   UNL     1       2.424   5.580  18.146  0.00  0.00    +0.000 A 
BRANCH   8  12
ATOM     12  N   UNL     1       6.063   6.549  16.245  0.00  0.00    +0.000 NA
ATOM     13  N   UNL     1       6.810   7.344  16.851  0.00  0.00    +0.000 NA
ATOM     14  N   UNL     1       7.488   8.083  17.393  0.00  0.00    +0.000 NA
ENDBRANCH   8  12
BRANCH   6  15
ATOM     15  C   UNL     1       2.879   3.120  17.805  0.00  0.00    +0.000 C 
BRANCH  15  18
ATOM     16  N   UNL     1       4.928   2.138  20.174  0.00  0.00    +0.000 NA
ATOM     17  N   UNL     1       3.926   2.438  19.723  0.00  0.00    +0.000 NA
ATOM     18  N   UNL     1       2.837   2.767  19.226  0.00  0.00    +0.000 NA
ENDBRANCH  15  18
ENDBRANCH   6  15
ENDBRANCH   1  10
BRANCH   4  19
ATOM     19  C   UNL     1      -0.533  10.430  18.074  0.00  0.00    +0.000 C 
ATOM     20  N   UNL     1      -1.754  10.003  18.013  0.00  0.00    +0.000 NA
BRANCH  20  21
ATOM     21  N   UNL     1      -2.728  10.751  17.424  0.00  0.00    +0.000 N 
ATOM     22  C   UNL     1      -3.761  11.324  18.255  0.00  0.00    +0.000 C 
ATOM     23  C   UNL     1      -4.672  11.907  17.197  0.00  0.00    +0.000 C 
ATOM     24  O   UNL     1      -5.715  12.508  17.406  0.00  0.00    +0.000 OA
ATOM     25  N   UNL     1      -4.159  11.642  15.969  0.00  0.00    +0.000 N 
ATOM     26  C   UNL     1      -3.015  10.909  16.062  0.00  0.00    +0.000 C 
ATOM     27  O   UNL     1      -2.406  10.478  15.096  0.00  0.00    +0.000 OA
ATOM     28  H   UNL     1      -4.598  11.888  15.099  0.00  0.00    +0.000 HD
ENDBRANCH  20  21
ENDBRANCH   4  19
TORSDOF 6
ENDMDL
MODEL 3
REMARK VINA RESULT:      -8.3      3.351      9.206
REMARK  Name = 
REMARK  6 active torsions:
REMARK  status: ('A' for Active; 'I' for Inactive)
REMARK    1  A    between atoms: N_3  and  C_4
REMARK    2  A    between atoms: C_4  and  C_5
REMARK    3  A    between atoms: C_7  and  N_8
REMARK    4  A    between atoms: C_12  and  C_13
REMARK    5  A    between atoms: C_16  and  C_17
REMARK    6  A    between atoms: N_18  and  N_19
REMARK                            x       y       z     vdW  Elec       q    Type
REMARK                         _______ _______ _______ _____ _____    ______ ____
ROOT
ATOM      1  C   UNL     1       1.890   6.745  20.216  0.00  0.00    +0.000 A 
ATOM      2  C   UNL     1       1.714   5.535  20.861  0.00  0.00    +0.000 A 
ATOM      3  C   UNL     1       2.584   4.614  20.243  0.00  0.00    +0.000 A 
ATOM      4  C   UNL     1       3.239   5.298  19.241  0.00  0.00    +0.000 A 
ATOM      5  O   UNL     1       2.809   6.596  19.211  0.00  0.00    +0.000 OA
ENDROOT
BRANCH   1  10
ATOM      6  C   UNL     1       0.914  10.367  19.691  0.00  0.00    +0.000 A 
ATOM      7  C   UNL     1       0.520  10.710  20.993  0.00  0.00    +0.000 A 
ATOM      8  C   UNL     1       0.512   9.764  22.021  0.00  0.00    +0.000 A 
ATOM      9  C   UNL     1       0.909   8.452  21.724  0.00  0.00    +0.000 A 
ATOM     10  C   UNL     1       1.355   8.087  20.442  0.00  0.00    +0.000 A 
ATOM     11  C   UNL     1       1.334   9.054  19.428  0.00  0.00    +0.000 A 
BRANCH   8  12
ATOM     12  N   UNL     1       0.072  10.174  23.295  0.00  0.00    +0.000 NA
ATOM     13  N   UNL     1      -0.975  10.853  23.295  0.00  0.00    +0.000 NA
ATOM     14  N   UNL     1      -1.921  11.487  23.298  0.00  0.00    +0.000 NA
ENDBRANCH   8  12
BRANCH   6  15
ATOM     15  C   UNL     1       0.966  11.412  18.604  0.00  0.00    +0.000 C 
BRANCH  15  18
ATOM     16  N   UNL     1       2.997  13.966  18.243  0.00  0.00    +0.000 NA
ATOM     17  N   UNL     1       2.692  12.869  18.225  0.00  0.00    +0.000 NA
ATOM     18  N   UNL     1       2.353  11.674  18.210  0.00  0.00    +0.000 NA
ENDBRANCH  15  18
ENDBRANCH   6  15
ENDBRANCH   1  10
BRANCH   4  19
ATOM     19  C   UNL     1       4.254   4.868  18.318  0.00  0.00    +0.000 C 
ATOM     20  N   UNL     1       5.035   5.766  17.805  0.00  0.00    +0.000 NA
BRANCH  20  21
ATOM     21  N   UNL     1       5.983   5.427  16.888  0.00  0.00    +0.000 N 
ATOM     22  C   UNL     1       5.664   5.548  15.485  0.00  0.00    +0.000 C 
ATOM     23  C   UNL     1       6.903   4.935  14.869  0.00  0.00    +0.000 C 
ATOM     24  O   UNL     1       7.113   4.801  13.673  0.00  0.00    +0.000 OA
ATOM     25  N   UNL     1       7.745   4.538  15.856  0.00  0.00    +0.000 N 
ATOM     26  C   UNL     1       7.207   4.775  17.085  0.00  0.00    +0.000 C 
ATOM     27  O   UNL     1       7.735   4.437  18.132  0.00  0.00    +0.000 OA
ATOM     28  H   UNL     1       8.619   4.065  15.708  0.00  0.00    +0.000 HD
ENDBRANCH  20  21
ENDBRANCH   4  19
TORSDOF 6
ENDMDL
MODEL 4
REMARK VINA RESULT:      -8.2      1.526      4.027
REMARK  Name = 
REMARK  6 active torsions:
REMARK  status: ('A' for Active; 'I' for Inactive)
REMARK    1  A    between atoms: N_3  and  C_4
REMARK    2  A    between atoms: C_4  and  C_5
REMARK    3  A    between atoms: C_7  and  N_8
REMARK    4  A    between atoms: C_12  and  C_13
REMARK    5  A    between atoms: C_16  and  C_17
REMARK    6  A    between atoms: N_18  and  N_19
REMARK                            x       y       z     vdW  Elec       q    Type
REMARK                         _______ _______ _______ _____ _____    ______ ____
ROOT
ATOM      1  C   UNL     1       2.787   7.342  18.520  0.00  0.00    +0.000 A 
ATOM      2  C   UNL     1       2.708   8.260  17.489  0.00  0.00    +0.000 A 
ATOM      3  C   UNL     1       1.830   9.277  17.915  0.00  0.00    +0.000 A 
ATOM      4  C   UNL     1       1.401   8.926  19.179  0.00  0.00    +0.000 A 
ATOM      5  O   UNL     1       1.972   7.739  19.547  0.00  0.00    +0.000 OA
ENDROOT
BRANCH   1  10
ATOM      6  C   UNL     1       5.621   4.833  18.380  0.00  0.00    +0.000 A 
ATOM      7  C   UNL     1       4.994   3.716  18.952  0.00  0.00    +0.000 A 
ATOM      8  C   UNL     1       3.684   3.789  19.435  0.00  0.00    +0.000 A 
ATOM      9  C   UNL     1       3.003   5.011  19.336  0.00  0.00    +0.000 A 
ATOM     10  C   UNL     1       3.585   6.134  18.725  0.00  0.00    +0.000 A 
ATOM     11  C   UNL     1       4.905   6.035  18.268  0.00  0.00    +0.000 A 
BRANCH   8  12
ATOM     12  N   UNL     1       3.132   2.636  20.027  0.00  0.00    +0.000 NA
ATOM     13  N   UNL     1       2.604   2.821  21.143  0.00  0.00    +0.000 NA
ATOM     14  N   UNL     1       2.136   2.982  22.169  0.00  0.00    +0.000 NA
ENDBRANCH   8  12
BRANCH   6  15
ATOM     15  C   UNL     1       7.016   4.724  17.817  0.00  0.00    +0.000 C 
BRANCH  15  18
ATOM     16  N   UNL     1       7.463   5.335  14.622  0.00  0.00    +0.000 NA
ATOM     17  N   UNL     1       7.390   5.589  15.730  0.00  0.00    +0.000 NA
ATOM     18  N   UNL     1       7.306   5.861  16.939  0.00  0.00    +0.000 NA
ENDBRANCH  15  18
ENDBRANCH   6  15
ENDBRANCH   1  10
BRANCH   4  19
ATOM     19  C   UNL     1       0.527   9.605  20.097  0.00  0.00    +0.000 C 
ATOM     20  N   UNL     1       0.925  10.730  20.602  0.00  0.00    +0.000 NA
BRANCH  20  21
ATOM     21  N   UNL     1       0.165  11.396  21.514  0.00  0.00    +0.000 N 
ATOM     22  C   UNL     1      -0.977  10.722  22.089  0.00  0.00    +0.000 C 
ATOM     23  C   UNL     1      -1.587  11.852  22.889  0.00  0.00    +0.000 C 
ATOM     24  O   UNL     1      -2.600  11.779  23.568  0.00  0.00    +0.000 OA
ATOM     25  N   UNL     1      -0.840  12.973  22.722  0.00  0.00    +0.000 N 
ATOM     26  C   UNL     1       0.196  12.751  21.867  0.00  0.00    +0.000 C 
ATOM     27  O   UNL     1       0.965  13.622  21.494  0.00  0.00    +0.000 OA
ATOM     28  H   UNL     1      -1.059  13.871  23.118  0.00  0.00    +0.000 HD
ENDBRANCH  20  21
ENDBRANCH   4  19
TORSDOF 6
ENDMDL
MODEL 5
REMARK VINA RESULT:      -8.2      2.861      3.424
REMARK  Name = 
REMARK  6 active torsions:
REMARK  status: ('A' for Active; 'I' for Inactive)
REMARK    1  A    between atoms: N_3  and  C_4
REMARK    2  A    between atoms: C_4  and  C_5
REMARK    3  A    between atoms: C_7  and  N_8
REMARK    4  A    between atoms: C_12  and  C_13
REMARK    5  A    between atoms: C_16  and  C_17
REMARK    6  A    between atoms: N_18  and  N_19
REMARK                            x       y       z     vdW  Elec       q    Type
REMARK                         _______ _______ _______ _____ _____    ______ ____
ROOT
ATOM      1  C   UNL     1       2.154   7.289  19.490  0.00  0.00    +0.000 A 
ATOM      2  C   UNL     1       1.711   7.108  20.787  0.00  0.00    +0.000 A 
ATOM      3  C   UNL     1       1.040   8.291  21.157  0.00  0.00    +0.000 A 
ATOM      4  C   UNL     1       1.118   9.146  20.077  0.00  0.00    +0.000 A 
ATOM      5  O   UNL     1       1.810   8.544  19.062  0.00  0.00    +0.000 OA
ENDROOT
BRANCH   1  10
ATOM      6  C   UNL     1       3.256   4.202  17.593  0.00  0.00    +0.000 A 
ATOM      7  C   UNL     1       4.298   4.740  16.824  0.00  0.00    +0.000 A 
ATOM      8  C   UNL     1       4.605   6.103  16.872  0.00  0.00    +0.000 A 
ATOM      9  C   UNL     1       3.843   6.929  17.711  0.00  0.00    +0.000 A 
ATOM     10  C   UNL     1       2.825   6.413  18.531  0.00  0.00    +0.000 A 
ATOM     11  C   UNL     1       2.530   5.047  18.446  0.00  0.00    +0.000 A 
BRANCH   8  12
ATOM     12  N   UNL     1       5.643   6.577  16.046  0.00  0.00    +0.000 NA
ATOM     13  N   UNL     1       6.583   7.132  16.652  0.00  0.00    +0.000 NA
ATOM     14  N   UNL     1       7.435   7.654  17.199  0.00  0.00    +0.000 NA
ENDBRANCH   8  12
BRANCH   6  15
ATOM     15  C   UNL     1       2.972   2.720  17.569  0.00  0.00    +0.000 C 
BRANCH  15  18
ATOM     16  N   UNL     1       4.883   2.122  20.171  0.00  0.00    +0.000 NA
ATOM     17  N   UNL     1       3.909   2.156  19.581  0.00  0.00    +0.000 NA
ATOM     18  N   UNL     1       2.850   2.198  18.933  0.00  0.00    +0.000 NA
ENDBRANCH  15  18
ENDBRANCH   6  15
ENDBRANCH   1  10
BRANCH   4  19
ATOM     19  C   UNL     1       0.585  10.467  19.884  0.00  0.00    +0.000 C 
ATOM     20  N   UNL     1       1.130  11.220  18.981  0.00  0.00    +0.000 NA
BRANCH  20  21
ATOM     21  N   UNL     1       0.702  12.498  18.785  0.00  0.00    +0.000 N 
ATOM     22  C   UNL     1       1.517  13.585  19.278  0.00  0.00    +0.000 C 
ATOM     23  C   UNL     1       0.608  14.760  18.991  0.00  0.00    +0.000 C 
ATOM     24  O   UNL     1       0.856  15.930  19.237  0.00  0.00    +0.000 OA
ATOM     25  N   UNL     1      -0.542  14.310  18.428  0.00  0.00    +0.000 N 
ATOM     26  C   UNL     1      -0.542  12.951  18.330  0.00  0.00    +0.000 C 
ATOM     27  O   UNL     1      -1.495  12.301  17.931  0.00  0.00    +0.000 OA
ATOM     28  H   UNL     1      -1.324  14.890  18.182  0.00  0.00    +0.000 HD
ENDBRANCH  20  21
ENDBRANCH   4  19
TORSDOF 6
ENDMDL
MODEL 6
REMARK VINA RESULT:      -8.1      1.351      3.885
REMARK  Name = 
REMARK  6 active torsions:
REMARK  status: ('A' for Active; 'I' for Inactive)
REMARK    1  A    between atoms: N_3  and  C_4
REMARK    2  A    between atoms: C_4  and  C_5
REMARK    3  A    between atoms: C_7  and  N_8
REMARK    4  A    between atoms: C_12  and  C_13
REMARK    5  A    between atoms: C_16  and  C_17
REMARK    6  A    between atoms: N_18  and  N_19
REMARK                            x       y       z     vdW  Elec       q    Type
REMARK                         _______ _______ _______ _____ _____    ______ ____
ROOT
ATOM      1  C   UNL     1       2.835   7.487  18.420  0.00  0.00    +0.000 A 
ATOM      2  C   UNL     1       2.856   8.547  17.534  0.00  0.00    +0.000 A 
ATOM      3  C   UNL     1       1.877   9.463  17.969  0.00  0.00    +0.000 A 
ATOM      4  C   UNL     1       1.293   8.914  19.092  0.00  0.00    +0.000 A 
ATOM      5  O   UNL     1       1.864   7.701  19.363  0.00  0.00    +0.000 OA
ENDROOT
BRANCH   1  10
ATOM      6  C   UNL     1       5.726   5.053  18.177  0.00  0.00    +0.000 A 
ATOM      7  C   UNL     1       5.113   3.888  18.661  0.00  0.00    +0.000 A 
ATOM      8  C   UNL     1       3.792   3.901  19.119  0.00  0.00    +0.000 A 
ATOM      9  C   UNL     1       3.086   5.112  19.086  0.00  0.00    +0.000 A 
ATOM     10  C   UNL     1       3.655   6.286  18.563  0.00  0.00    +0.000 A 
ATOM     11  C   UNL     1       4.987   6.244  18.128  0.00  0.00    +0.000 A 
BRANCH   8  12
ATOM     12  N   UNL     1       3.254   2.700  19.621  0.00  0.00    +0.000 NA
ATOM     13  N   UNL     1       2.136   2.392  19.159  0.00  0.00    +0.000 NA
ATOM     14  N   UNL     1       1.108   2.116  18.753  0.00  0.00    +0.000 NA
ENDBRANCH   8  12
BRANCH   6  15
ATOM     15  C   UNL     1       7.134   5.011  17.638  0.00  0.00    +0.000 C 
BRANCH  15  18
ATOM     16  N   UNL     1       7.549   5.333  14.397  0.00  0.00    +0.000 NA
ATOM     17  N   UNL     1       7.450   5.691  15.474  0.00  0.00    +0.000 NA
ATOM     18  N   UNL     1       7.339   6.073  16.650  0.00  0.00    +0.000 NA
ENDBRANCH  15  18
ENDBRANCH   6  15
ENDBRANCH   1  10
BRANCH   4  19
ATOM     19  C   UNL     1       0.265   9.421  19.960  0.00  0.00    +0.000 C 
ATOM     20  N   UNL     1       0.472  10.554  20.555  0.00  0.00    +0.000 NA
BRANCH  20  21
ATOM     21  N   UNL     1      -0.442  11.062  21.427  0.00  0.00    +0.000 N 
ATOM     22  C   UNL     1      -1.282  12.154  20.994  0.00  0.00    +0.000 C 
ATOM     23  C   UNL     1      -1.994  12.483  22.288  0.00  0.00    +0.000 C 
ATOM     24  O   UNL     1      -2.828  13.362  22.440  0.00  0.00    +0.000 OA
ATOM     25  N   UNL     1      -1.548  11.655  23.266  0.00  0.00    +0.000 N 
ATOM     26  C   UNL     1      -0.581  10.817  22.800  0.00  0.00    +0.000 C 
ATOM     27  O   UNL     1       0.033  10.032  23.504  0.00  0.00    +0.000 OA
ATOM     28  H   UNL     1      -1.837  11.699  24.228  0.00  0.00    +0.000 HD
ENDBRANCH  20  21
ENDBRANCH   4  19
TORSDOF 6
ENDMDL
MODEL 7
REMARK VINA RESULT:      -8.1      2.853      4.726
REMARK  Name = 
REMARK  6 active torsions:
REMARK  status: ('A' for Active; 'I' for Inactive)
REMARK    1  A    between atoms: N_3  and  C_4
REMARK    2  A    between atoms: C_4  and  C_5
REMARK    3  A    between atoms: C_7  and  N_8
REMARK    4  A    between atoms: C_12  and  C_13
REMARK    5  A    between atoms: C_16  and  C_17
REMARK    6  A    between atoms: N_18  and  N_19
REMARK                            x       y       z     vdW  Elec       q    Type
REMARK                         _______ _______ _______ _____ _____    ______ ____
ROOT
ATOM      1  C   UNL     1       2.679   6.971  19.105  0.00  0.00    +0.000 A 
ATOM      2  C   UNL     1       1.999   7.033  20.307  0.00  0.00    +0.000 A 
ATOM      3  C   UNL     1       1.364   8.290  20.351  0.00  0.00    +0.000 A 
ATOM      4  C   UNL     1       1.697   8.944  19.183  0.00  0.00    +0.000 A 
ATOM      5  O   UNL     1       2.512   8.149  18.425  0.00  0.00    +0.000 OA
ENDROOT
BRANCH   1  10
ATOM      6  C   UNL     1       4.827   5.118  16.596  0.00  0.00    +0.000 A 
ATOM      7  C   UNL     1       4.711   3.809  17.087  0.00  0.00    +0.000 A 
ATOM      8  C   UNL     1       3.995   3.534  18.254  0.00  0.00    +0.000 A 
ATOM      9  C   UNL     1       3.388   4.601  18.932  0.00  0.00    +0.000 A 
ATOM     10  C   UNL     1       3.444   5.917  18.441  0.00  0.00    +0.000 A 
ATOM     11  C   UNL     1       4.185   6.163  17.278  0.00  0.00    +0.000 A 
BRANCH   8  12
ATOM     12  N   UNL     1       3.950   2.200  18.705  0.00  0.00    +0.000 NA
ATOM     13  N   UNL     1       4.573   1.984  19.765  0.00  0.00    +0.000 NA
ATOM     14  N   UNL     1       5.155   1.778  20.723  0.00  0.00    +0.000 NA
ENDBRANCH   8  12
BRANCH   6  15
ATOM     15  C   UNL     1       5.560   5.391  15.306  0.00  0.00    +0.000 C 
BRANCH  15  18
ATOM     16  N   UNL     1       8.332   5.641  13.564  0.00  0.00    +0.000 NA
ATOM     17  N   UNL     1       7.701   5.520  14.505  0.00  0.00    +0.000 NA
ATOM     18  N   UNL     1       7.008   5.390  15.527  0.00  0.00    +0.000 NA
ENDBRANCH  15  18
ENDBRANCH   6  15
ENDBRANCH   1  10
BRANCH   4  19
ATOM     19  C   UNL     1       1.307  10.236  18.686  0.00  0.00    +0.000 C 
ATOM     20  N   UNL     1       0.890  11.119  19.537  0.00  0.00    +0.000 NA
BRANCH  20  21
ATOM     21  N   UNL     1       0.461  12.343  19.121  0.00  0.00    +0.000 N 
ATOM     22  C   UNL     1       1.378  13.457  19.180  0.00  0.00    +0.000 C 
ATOM     23  C   UNL     1       0.456  14.592  18.791  0.00  0.00    +0.000 C 
ATOM     24  O   UNL     1       0.773  15.768  18.699  0.00  0.00    +0.000 OA
ATOM     25  N   UNL     1      -0.790  14.102  18.574  0.00  0.00    +0.000 N 
ATOM     26  C   UNL     1      -0.839  12.761  18.807  0.00  0.00    +0.000 C 
ATOM     27  O   UNL     1      -1.865  12.101  18.758  0.00  0.00    +0.000 OA
ATOM     28  H   UNL     1      -1.593  14.661  18.343  0.00  0.00    +0.000 HD
ENDBRANCH  20  21
ENDBRANCH   4  19
TORSDOF 6
ENDMDL
MODEL 8
REMARK VINA RESULT:      -8.1      2.837      3.464
REMARK  Name = 
REMARK  6 active torsions:
REMARK  status: ('A' for Active; 'I' for Inactive)
REMARK    1  A    between atoms: N_3  and  C_4
REMARK    2  A    between atoms: C_4  and  C_5
REMARK    3  A    between atoms: C_7  and  N_8
REMARK    4  A    between atoms: C_12  and  C_13
REMARK    5  A    between atoms: C_16  and  C_17
REMARK    6  A    between atoms: N_18  and  N_19
REMARK                            x       y       z     vdW  Elec       q    Type
REMARK                         _______ _______ _______ _____ _____    ______ ____
ROOT
ATOM      1  C   UNL     1       2.283   6.675  19.825  0.00  0.00    +0.000 A 
ATOM      2  C   UNL     1       1.476   6.545  20.939  0.00  0.00    +0.000 A 
ATOM      3  C   UNL     1       0.882   7.803  21.162  0.00  0.00    +0.000 A 
ATOM      4  C   UNL     1       1.365   8.648  20.184  0.00  0.00    +0.000 A 
ATOM      5  O   UNL     1       2.232   7.967  19.374  0.00  0.00    +0.000 OA
ENDROOT
BRANCH   1  10
ATOM      6  C   UNL     1       4.217   3.578  18.818  0.00  0.00    +0.000 A 
ATOM      7  C   UNL     1       4.797   4.024  17.622  0.00  0.00    +0.000 A 
ATOM      8  C   UNL     1       4.518   5.295  17.111  0.00  0.00    +0.000 A 
ATOM      9  C   UNL     1       3.640   6.123  17.824  0.00  0.00    +0.000 A 
ATOM     10  C   UNL     1       3.080   5.725  19.051  0.00  0.00    +0.000 A 
ATOM     11  C   UNL     1       3.364   4.438  19.526  0.00  0.00    +0.000 A 
BRANCH   8  12
ATOM     12  N   UNL     1       5.112   5.661  15.887  0.00  0.00    +0.000 NA
ATOM     13  N   UNL     1       6.349   5.817  15.929  0.00  0.00    +0.000 NA
ATOM     14  N   UNL     1       7.476   5.978  15.968  0.00  0.00    +0.000 NA
ENDBRANCH   8  12
BRANCH   6  15
ATOM     15  C   UNL     1       4.568   2.224  19.383  0.00  0.00    +0.000 C 
BRANCH  15  18
ATOM     16  N   UNL     1       6.022   0.699  21.900  0.00  0.00    +0.000 NA
ATOM     17  N   UNL     1       5.324   1.446  21.399  0.00  0.00    +0.000 NA
ATOM     18  N   UNL     1       4.566   2.261  20.847  0.00  0.00    +0.000 NA
ENDBRANCH  15  18
ENDBRANCH   6  15
ENDBRANCH   1  10
BRANCH   4  19
ATOM     19  C   UNL     1       1.078  10.030  19.910  0.00  0.00    +0.000 C 
ATOM     20  N   UNL     1       0.222  10.303  18.977  0.00  0.00    +0.000 NA
BRANCH  20  21
ATOM     21  N   UNL     1      -0.056  11.592  18.637  0.00  0.00    +0.000 N 
ATOM     22  C   UNL     1       0.877  12.626  19.020  0.00  0.00    +0.000 C 
ATOM     23  C   UNL     1       0.110  13.859  18.593  0.00  0.00    +0.000 C 
ATOM     24  O   UNL     1       0.490  15.013  18.714  0.00  0.00    +0.000 OA
ATOM     25  N   UNL     1      -1.083  13.483  18.066  0.00  0.00    +0.000 N 
ATOM     26  C   UNL     1      -1.239  12.131  18.116  0.00  0.00    +0.000 C 
ATOM     27  O   UNL     1      -2.259  11.554  17.775  0.00  0.00    +0.000 OA
ATOM     28  H   UNL     1      -1.792  14.119  17.745  0.00  0.00    +0.000 HD
ENDBRANCH  20  21
ENDBRANCH   4  19
TORSDOF 6
ENDMDL
MODEL 9
REMARK VINA RESULT:      -8.1      2.609      4.364
REMARK  Name = 
REMARK  6 active torsions:
REMARK  status: ('A' for Active; 'I' for Inactive)
REMARK    1  A    between atoms: N_3  and  C_4
REMARK    2  A    between atoms: C_4  and  C_5
REMARK    3  A    between atoms: C_7  and  N_8
REMARK    4  A    between atoms: C_12  and  C_13
REMARK    5  A    between atoms: C_16  and  C_17
REMARK    6  A    between atoms: N_18  and  N_19
REMARK                            x       y       z     vdW  Elec       q    Type
REMARK                         _______ _______ _______ _____ _____    ______ ____
ROOT
ATOM      1  C   UNL     1       2.414   7.178  19.406  0.00  0.00    +0.000 A 
ATOM      2  C   UNL     1       1.781   7.194  20.634  0.00  0.00    +0.000 A 
ATOM      3  C   UNL     1       1.068   8.407  20.710  0.00  0.00    +0.000 A 
ATOM      4  C   UNL     1       1.310   9.084  19.532  0.00  0.00    +0.000 A 
ATOM      5  O   UNL     1       2.143   8.344  18.738  0.00  0.00    +0.000 OA
ENDROOT
BRANCH   1  10
ATOM      6  C   UNL     1       4.718   5.524  16.897  0.00  0.00    +0.000 A 
ATOM      7  C   UNL     1       4.564   4.179  17.264  0.00  0.00    +0.000 A 
ATOM      8  C   UNL     1       3.768   3.813  18.353  0.00  0.00    +0.000 A 
ATOM      9  C   UNL     1       3.121   4.824  19.078  0.00  0.00    +0.000 A 
ATOM     10  C   UNL     1       3.216   6.176  18.706  0.00  0.00    +0.000 A 
ATOM     11  C   UNL     1       4.036   6.513  17.621  0.00  0.00    +0.000 A 
BRANCH   8  12
ATOM     12  N   UNL     1       3.687   2.445  18.684  0.00  0.00    +0.000 NA
ATOM     13  N   UNL     1       4.378   2.101  19.665  0.00  0.00    +0.000 NA
ATOM     14  N   UNL     1       5.021   1.779  20.549  0.00  0.00    +0.000 NA
ENDBRANCH   8  12
BRANCH   6  15
ATOM     15  C   UNL     1       5.539   5.898  15.687  0.00  0.00    +0.000 C 
BRANCH  15  18
ATOM     16  N   UNL     1       7.780   7.768  17.190  0.00  0.00    +0.000 NA
ATOM     17  N   UNL     1       7.395   6.859  16.622  0.00  0.00    +0.000 NA
ATOM     18  N   UNL     1       6.968   5.869  16.006  0.00  0.00    +0.000 NA
ENDBRANCH  15  18
ENDBRANCH   6  15
ENDBRANCH   1  10
BRANCH   4  19
ATOM     19  C   UNL     1       0.818  10.348  19.056  0.00  0.00    +0.000 C 
ATOM     20  N   UNL     1       0.483  11.242  19.932  0.00  0.00    +0.000 NA
BRANCH  20  21
ATOM     21  N   UNL     1      -0.036  12.440  19.544  0.00  0.00    +0.000 N 
ATOM     22  C   UNL     1       0.868  13.482  19.115  0.00  0.00    +0.000 C 
ATOM     23  C   UNL     1      -0.100  14.632  18.943  0.00  0.00    +0.000 C 
ATOM     24  O   UNL     1       0.192  15.763  18.587  0.00  0.00    +0.000 OA
ATOM     25  N   UNL     1      -1.351  14.215  19.265  0.00  0.00    +0.000 N 
ATOM     26  C   UNL     1      -1.347  12.917  19.675  0.00  0.00    +0.000 C 
ATOM     27  O   UNL     1      -2.336  12.335  20.092  0.00  0.00    +0.000 OA
ATOM     28  H   UNL     1      -2.166  14.803  19.272  0.00  0.00    +0.000 HD
ENDBRANCH  20  21
ENDBRANCH   4  19
TORSDOF 6
ENDMDL
