MODEL 1
REMARK VINA RESULT:      -7.7      0.000      0.000
REMARK  Name = 
REMARK  2 active torsions:
REMARK  status: ('A' for Active; 'I' for Inactive)
REMARK    1  A    between atoms: C_5  and  C_6
REMARK    2  A    between atoms: C_7  and  C_8
REMARK                            x       y       z     vdW  Elec       q    Type
REMARK                         _______ _______ _______ _____ _____    ______ ____
ROOT
ATOM      1  C   UNL     1       6.962   6.137  17.137  0.00  0.00    +0.000 A 
ATOM      2  N   UNL     1       7.515   5.919  15.915  0.00  0.00    +0.000 NA
ATOM      3  C   UNL     1       7.027   4.906  15.177  0.00  0.00    +0.000 A 
ATOM      4  C   UNL     1       6.003   4.080  15.595  0.00  0.00    +0.000 A 
ATOM      5  C   UNL     1       5.425   4.301  16.849  0.00  0.00    +0.000 A 
ATOM      6  C   UNL     1       4.382   3.479  17.305  0.00  0.00    +0.000 A 
ATOM      7  C   UNL     1       3.787   3.699  18.547  0.00  0.00    +0.000 A 
ATOM      8  C   UNL     1       4.218   4.751  19.345  0.00  0.00    +0.000 A 
ATOM      9  C   UNL     1       5.257   5.575  18.905  0.00  0.00    +0.000 A 
ATOM     10  C   UNL     1       5.896   5.362  17.658  0.00  0.00    +0.000 A 
ENDROOT
BRANCH   1  12
ATOM     11  C   UNL     1       7.683   8.481  17.448  0.00  0.00    +0.000 C 
ATOM     12  C   UNL     1       7.605   7.219  17.905  0.00  0.00    +0.000 C 
BRANCH  11  17
ATOM     13  F   UNL     1      10.314  12.823  19.821  0.00  0.00    +0.000 F 
ATOM     14  C   UNL     1       9.687  11.777  19.266  0.00  0.00    +0.000 A 
ATOM     15  C   UNL     1       8.955  11.957  18.103  0.00  0.00    +0.000 A 
ATOM     16  C   UNL     1       8.304  10.865  17.526  0.00  0.00    +0.000 A 
ATOM     17  C   UNL     1       8.392   9.588  18.105  0.00  0.00    +0.000 A 
ATOM     18  C   UNL     1       9.124   9.434  19.291  0.00  0.00    +0.000 A 
ATOM     19  C   UNL     1       9.777  10.527  19.868  0.00  0.00    +0.000 A 
ENDBRANCH  11  17
ENDBRANCH   1  12
TORSDOF 2
ENDMDL
MODEL 2
REMARK VINA RESULT:      -7.5      5.391      6.837
REMARK  Name = 
REMARK  2 active torsions:
REMARK  status: ('A' for Active; 'I' for Inactive)
REMARK    1  A    between atoms: C_5  and  C_6
REMARK    2  A    between atoms: C_7  and  C_8
REMARK                            x       y       z     vdW  Elec       q    Type
REMARK                         _______ _______ _______ _____ _____    ______ ____
ROOT
ATOM      1  C   UNL     1       3.788   4.764  17.836  0.00  0.00    +0.000 A 
ATOM      2  N   UNL     1       4.122   6.015  18.254  0.00  0.00    +0.000 NA
ATOM      3  C   UNL     1       3.404   6.554  19.254  0.00  0.00    +0.000 A 
ATOM      4  C   UNL     1       2.351   5.912  19.873  0.00  0.00    +0.000 A 
ATOM      5  C   UNL     1       2.005   4.625  19.454  0.00  0.00    +0.000 A 
ATOM      6  C   UNL     1       0.938   3.942  20.062  0.00  0.00    +0.000 A 
ATOM      7  C   UNL     1       0.592   2.652  19.663  0.00  0.00    +0.000 A 
ATOM      8  C   UNL     1       1.316   2.020  18.659  0.00  0.00    +0.000 A 
ATOM      9  C   UNL     1       2.377   2.687  18.043  0.00  0.00    +0.000 A 
ATOM     10  C   UNL     1       2.737   4.008  18.412  0.00  0.00    +0.000 A 
ENDROOT
BRANCH   1  12
ATOM     11  C   UNL     1       5.111   5.113  15.778  0.00  0.00    +0.000 C 
ATOM     12  C   UNL     1       4.578   4.281  16.690  0.00  0.00    +0.000 C 
BRANCH  11  17
ATOM     13  F   UNL     1       7.668   3.462  11.072  0.00  0.00    +0.000 F 
ATOM     14  C   UNL     1       7.066   3.868  12.199  0.00  0.00    +0.000 A 
ATOM     15  C   UNL     1       5.797   3.401  12.502  0.00  0.00    +0.000 A 
ATOM     16  C   UNL     1       5.173   3.824  13.678  0.00  0.00    +0.000 A 
ATOM     17  C   UNL     1       5.822   4.706  14.558  0.00  0.00    +0.000 A 
ATOM     18  C   UNL     1       7.099   5.178  14.221  0.00  0.00    +0.000 A 
ATOM     19  C   UNL     1       7.724   4.754  13.045  0.00  0.00    +0.000 A 
ENDBRANCH  11  17
ENDBRANCH   1  12
TORSDOF 2
ENDMDL
MODEL 3
REMARK VINA RESULT:      -7.5      1.111      1.584
REMARK  Name = 
REMARK  2 active torsions:
REMARK  status: ('A' for Active; 'I' for Inactive)
REMARK    1  A    between atoms: C_5  and  C_6
REMARK    2  A    between atoms: C_7  and  C_8
REMARK                            x       y       z     vdW  Elec       q    Type
REMARK                         _______ _______ _______ _____ _____    ______ ____
ROOT
ATOM      1  C   UNL     1       6.430   6.702  16.897  0.00  0.00    +0.000 A 
ATOM      2  N   UNL     1       7.360   5.893  16.322  0.00  0.00    +0.000 NA
ATOM      3  C   UNL     1       7.023   4.611  16.098  0.00  0.00    +0.000 A 
ATOM      4  C   UNL     1       5.793   4.075  16.422  0.00  0.00    +0.000 A 
ATOM      5  C   UNL     1       4.830   4.901  17.008  0.00  0.00    +0.000 A 
ATOM      6  C   UNL     1       3.568   4.388  17.350  0.00  0.00    +0.000 A 
ATOM      7  C   UNL     1       2.593   5.205  17.922  0.00  0.00    +0.000 A 
ATOM      8  C   UNL     1       2.862   6.550  18.148  0.00  0.00    +0.000 A 
ATOM      9  C   UNL     1       4.113   7.073  17.815  0.00  0.00    +0.000 A 
ATOM     10  C   UNL     1       5.131   6.261  17.254  0.00  0.00    +0.000 A 
ENDROOT
BRANCH   1  12
ATOM     11  C   UNL     1       8.031   8.314  17.871  0.00  0.00    +0.000 C 
ATOM     12  C   UNL     1       6.908   8.069  17.173  0.00  0.00    +0.000 C 
BRANCH  11  17
ATOM     13  F   UNL     1       9.978  13.293  19.550  0.00  0.00    +0.000 F 
ATOM     14  C   UNL     1       9.510  12.108  19.135  0.00  0.00    +0.000 A 
ATOM     15  C   UNL     1       9.747  10.975  19.897  0.00  0.00    +0.000 A 
ATOM     16  C   UNL     1       9.256   9.741  19.463  0.00  0.00    +0.000 A 
ATOM     17  C   UNL     1       8.518   9.641  18.272  0.00  0.00    +0.000 A 
ATOM     18  C   UNL     1       8.306  10.799  17.510  0.00  0.00    +0.000 A 
ATOM     19  C   UNL     1       8.796  12.033  17.944  0.00  0.00    +0.000 A 
ENDBRANCH  11  17
ENDBRANCH   1  12
TORSDOF 2
ENDMDL
MODEL 4
REMARK VINA RESULT:      -7.4      5.324      6.835
REMARK  Name = 
REMARK  2 active torsions:
REMARK  status: ('A' for Active; 'I' for Inactive)
REMARK    1  A    between atoms: C_5  and  C_6
REMARK    2  A    between atoms: C_7  and  C_8
REMARK                            x       y       z     vdW  Elec       q    Type
REMARK                         _______ _______ _______ _____ _____    ______ ____
ROOT
ATOM      1  C   UNL     1       2.836   3.832  18.010  0.00  0.00    +0.000 A 
ATOM      2  N   UNL     1       2.584   2.566  18.439  0.00  0.00    +0.000 NA
ATOM      3  C   UNL     1       2.000   2.415  19.640  0.00  0.00    +0.000 A 
ATOM      4  C   UNL     1       1.647   3.470  20.457  0.00  0.00    +0.000 A 
ATOM      5  C   UNL     1       1.898   4.774  20.022  0.00  0.00    +0.000 A 
ATOM      6  C   UNL     1       1.553   5.871  20.829  0.00  0.00    +0.000 A 
ATOM      7  C   UNL     1       1.784   7.178  20.399  0.00  0.00    +0.000 A 
ATOM      8  C   UNL     1       2.351   7.406  19.152  0.00  0.00    +0.000 A 
ATOM      9  C   UNL     1       2.703   6.326  18.340  0.00  0.00    +0.000 A 
ATOM     10  C   UNL     1       2.501   4.987  18.760  0.00  0.00    +0.000 A 
ENDROOT
BRANCH   1  12
ATOM     11  C   UNL     1       4.881   4.007  16.633  0.00  0.00    +0.000 C 
ATOM     12  C   UNL     1       3.543   3.901  16.719  0.00  0.00    +0.000 C 
BRANCH  11  17
ATOM     13  F   UNL     1       7.682   4.566  11.811  0.00  0.00    +0.000 F 
ATOM     14  C   UNL     1       7.019   4.444  12.970  0.00  0.00    +0.000 A 
ATOM     15  C   UNL     1       5.894   3.638  13.032  0.00  0.00    +0.000 A 
ATOM     16  C   UNL     1       5.206   3.511  14.241  0.00  0.00    +0.000 A 
ATOM     17  C   UNL     1       5.649   4.182  15.393  0.00  0.00    +0.000 A 
ATOM     18  C   UNL     1       6.780   5.006  15.301  0.00  0.00    +0.000 A 
ATOM     19  C   UNL     1       7.469   5.132  14.091  0.00  0.00    +0.000 A 
ENDBRANCH  11  17
ENDBRANCH   1  12
TORSDOF 2
ENDMDL
MODEL 5
REMARK VINA RESULT:      -7.4      5.401      6.715
REMARK  Name = 
REMARK  2 active torsions:
REMARK  status: ('A' for Active; 'I' for Inactive)
REMARK    1  A    between atoms: C_5  and  C_6
REMARK    2  A    between atoms: C_7  and  C_8
REMARK                            x       y       z     vdW  Elec       q    Type
REMARK                         _______ _______ _______ _____ _____    ______ ____
ROOT
ATOM      1  C   UNL     1       3.635   5.207  17.951  0.00  0.00    +0.000 A 
ATOM      2  N   UNL     1       3.334   6.526  17.815  0.00  0.00    +0.000 NA
ATOM      3  C   UNL     1       2.634   7.114  18.800  0.00  0.00    +0.000 A 
ATOM      4  C   UNL     1       2.203   6.453  19.933  0.00  0.00    +0.000 A 
ATOM      5  C   UNL     1       2.513   5.098  20.083  0.00  0.00    +0.000 A 
ATOM      6  C   UNL     1       2.090   4.395  21.223  0.00  0.00    +0.000 A 
ATOM      7  C   UNL     1       2.406   3.047  21.391  0.00  0.00    +0.000 A 
ATOM      8  C   UNL     1       3.159   2.387  20.428  0.00  0.00    +0.000 A 
ATOM      9  C   UNL     1       3.584   3.072  19.288  0.00  0.00    +0.000 A 
ATOM     10  C   UNL     1       3.258   4.436  19.079  0.00  0.00    +0.000 A 
ENDROOT
BRANCH   1  12
ATOM     11  C   UNL     1       5.168   5.349  16.017  0.00  0.00    +0.000 C 
ATOM     12  C   UNL     1       4.340   4.627  16.793  0.00  0.00    +0.000 C 
BRANCH  11  17
ATOM     13  F   UNL     1       7.521   3.439  11.303  0.00  0.00    +0.000 F 
ATOM     14  C   UNL     1       6.968   3.907  12.431  0.00  0.00    +0.000 A 
ATOM     15  C   UNL     1       5.697   3.491  12.792  0.00  0.00    +0.000 A 
ATOM     16  C   UNL     1       5.124   3.978  13.970  0.00  0.00    +0.000 A 
ATOM     17  C   UNL     1       5.827   4.873  14.793  0.00  0.00    +0.000 A 
ATOM     18  C   UNL     1       7.105   5.293  14.397  0.00  0.00    +0.000 A 
ATOM     19  C   UNL     1       7.679   4.805  13.220  0.00  0.00    +0.000 A 
ENDBRANCH  11  17
ENDBRANCH   1  12
TORSDOF 2
ENDMDL
MODEL 6
REMARK VINA RESULT:      -7.4      5.339      6.845
REMARK  Name = 
REMARK  2 active torsions:
REMARK  status: ('A' for Active; 'I' for Inactive)
REMARK    1  A    between atoms: C_5  and  C_6
REMARK    2  A    between atoms: C_7  and  C_8
REMARK                            x       y       z     vdW  Elec       q    Type
REMARK                         _______ _______ _______ _____ _____    ______ ____
ROOT
ATOM      1  C   UNL     1       2.845   3.766  18.030  0.00  0.00    +0.000 A 
ATOM      2  N   UNL     1       2.580   2.531  18.534  0.00  0.00    +0.000 NA
ATOM      3  C   UNL     1       2.007   2.459  19.748  0.00  0.00    +0.000 A 
ATOM      4  C   UNL     1       1.680   3.565  20.507  0.00  0.00    +0.000 A 
ATOM      5  C   UNL     1       1.945   4.837  19.994  0.00  0.00    +0.000 A 
ATOM      6  C   UNL     1       1.626   5.984  20.740  0.00  0.00    +0.000 A 
ATOM      7  C   UNL     1       1.871   7.260  20.233  0.00  0.00    +0.000 A 
ATOM      8  C   UNL     1       2.428   7.408  18.968  0.00  0.00    +0.000 A 
ATOM      9  C   UNL     1       2.753   6.277  18.217  0.00  0.00    +0.000 A 
ATOM     10  C   UNL     1       2.536   4.967  18.715  0.00  0.00    +0.000 A 
ENDROOT
BRANCH   1  12
ATOM     11  C   UNL     1       4.818   4.137  16.588  0.00  0.00    +0.000 C 
ATOM     12  C   UNL     1       3.538   3.750  16.729  0.00  0.00    +0.000 C 
BRANCH  11  17
ATOM     13  F   UNL     1       7.732   4.643  11.828  0.00  0.00    +0.000 F 
ATOM     14  C   UNL     1       7.027   4.511  12.960  0.00  0.00    +0.000 A 
ATOM     15  C   UNL     1       7.489   5.102  14.126  0.00  0.00    +0.000 A 
ATOM     16  C   UNL     1       6.751   4.965  15.304  0.00  0.00    +0.000 A 
ATOM     17  C   UNL     1       5.545   4.245  15.316  0.00  0.00    +0.000 A 
ATOM     18  C   UNL     1       5.107   3.641  14.128  0.00  0.00    +0.000 A 
ATOM     19  C   UNL     1       5.845   3.780  12.949  0.00  0.00    +0.000 A 
ENDBRANCH  11  17
ENDBRANCH   1  12
TORSDOF 2
ENDMDL
MODEL 7
REMARK VINA RESULT:      -7.4      4.932      6.427
REMARK  Name = 
REMARK  2 active torsions:
REMARK  status: ('A' for Active; 'I' for Inactive)
REMARK    1  A    between atoms: C_5  and  C_6
REMARK    2  A    between atoms: C_7  and  C_8
REMARK                            x       y       z     vdW  Elec       q    Type
REMARK                         _______ _______ _______ _____ _____    ______ ____
ROOT
ATOM      1  C   UNL     1       3.191   6.449  17.903  0.00  0.00    +0.000 A 
ATOM      2  N   UNL     1       4.365   6.889  17.377  0.00  0.00    +0.000 NA
ATOM      3  C   UNL     1       5.207   5.972  16.869  0.00  0.00    +0.000 A 
ATOM      4  C   UNL     1       4.946   4.616  16.858  0.00  0.00    +0.000 A 
ATOM      5  C   UNL     1       3.739   4.157  17.392  0.00  0.00    +0.000 A 
ATOM      6  C   UNL     1       3.441   2.784  17.397  0.00  0.00    +0.000 A 
ATOM      7  C   UNL     1       2.234   2.314  17.913  0.00  0.00    +0.000 A 
ATOM      8  C   UNL     1       1.302   3.211  18.420  0.00  0.00    +0.000 A 
ATOM      9  C   UNL     1       1.585   4.579  18.424  0.00  0.00    +0.000 A 
ATOM     10  C   UNL     1       2.813   5.083  17.927  0.00  0.00    +0.000 A 
ENDROOT
BRANCH   1  12
ATOM     11  C   UNL     1       2.176   7.621  19.828  0.00  0.00    +0.000 C 
ATOM     12  C   UNL     1       2.363   7.512  18.501  0.00  0.00    +0.000 C 
BRANCH  11  17
ATOM     13  F   UNL     1      -1.247  11.376  22.191  0.00  0.00    +0.000 F 
ATOM     14  C   UNL     1      -0.430  10.470  21.638  0.00  0.00    +0.000 A 
ATOM     15  C   UNL     1      -0.197  10.502  20.272  0.00  0.00    +0.000 A 
ATOM     16  C   UNL     1       0.658   9.558  19.699  0.00  0.00    +0.000 A 
ATOM     17  C   UNL     1       1.290   8.586  20.492  0.00  0.00    +0.000 A 
ATOM     18  C   UNL     1       1.025   8.563  21.870  0.00  0.00    +0.000 A 
ATOM     19  C   UNL     1       0.171   9.508  22.443  0.00  0.00    +0.000 A 
ENDBRANCH  11  17
ENDBRANCH   1  12
TORSDOF 2
ENDMDL
MODEL 8
REMARK VINA RESULT:      -7.3      4.897      5.772
REMARK  Name = 
REMARK  2 active torsions:
REMARK  status: ('A' for Active; 'I' for Inactive)
REMARK    1  A    between atoms: C_5  and  C_6
REMARK    2  A    between atoms: C_7  and  C_8
REMARK                            x       y       z     vdW  Elec       q    Type
REMARK                         _______ _______ _______ _____ _____    ______ ____
ROOT
ATOM      1  C   UNL     1       3.210   6.115  17.911  0.00  0.00    +0.000 A 
ATOM      2  N   UNL     1       4.278   6.350  17.102  0.00  0.00    +0.000 NA
ATOM      3  C   UNL     1       4.865   5.292  16.516  0.00  0.00    +0.000 A 
ATOM      4  C   UNL     1       4.446   3.989  16.694  0.00  0.00    +0.000 A 
ATOM      5  C   UNL     1       3.347   3.740  17.521  0.00  0.00    +0.000 A 
ATOM      6  C   UNL     1       2.895   2.425  17.725  0.00  0.00    +0.000 A 
ATOM      7  C   UNL     1       1.790   2.165  18.535  0.00  0.00    +0.000 A 
ATOM      8  C   UNL     1       1.114   3.216  19.142  0.00  0.00    +0.000 A 
ATOM      9  C   UNL     1       1.553   4.528  18.950  0.00  0.00    +0.000 A 
ATOM     10  C   UNL     1       2.687   4.820  18.151  0.00  0.00    +0.000 A 
ENDROOT
BRANCH   1  12
ATOM     11  C   UNL     1       2.016   8.279  17.892  0.00  0.00    +0.000 C 
ATOM     12  C   UNL     1       2.675   7.322  18.568  0.00  0.00    +0.000 C 
BRANCH  11  17
ATOM     13  F   UNL     1       0.334  13.226  19.918  0.00  0.00    +0.000 F 
ATOM     14  C   UNL     1       0.724  12.037  19.438  0.00  0.00    +0.000 A 
ATOM     15  C   UNL     1       1.779  11.974  18.542  0.00  0.00    +0.000 A 
ATOM     16  C   UNL     1       2.184  10.733  18.045  0.00  0.00    +0.000 A 
ATOM     17  C   UNL     1       1.542   9.552  18.452  0.00  0.00    +0.000 A 
ATOM     18  C   UNL     1       0.465   9.643  19.346  0.00  0.00    +0.000 A 
ATOM     19  C   UNL     1       0.061  10.885  19.844  0.00  0.00    +0.000 A 
ENDBRANCH  11  17
ENDBRANCH   1  12
TORSDOF 2
ENDMDL
MODEL 9
REMARK VINA RESULT:      -7.3      5.029      6.523
REMARK  Name = 
REMARK  2 active torsions:
REMARK  status: ('A' for Active; 'I' for Inactive)
REMARK    1  A    between atoms: C_5  and  C_6
REMARK    2  A    between atoms: C_7  and  C_8
REMARK                            x       y       z     vdW  Elec       q    Type
REMARK                         _______ _______ _______ _____ _____    ______ ____
ROOT
ATOM      1  C   UNL     1       3.047   6.151  17.924  0.00  0.00    +0.000 A 
ATOM      2  N   UNL     1       4.182   6.610  17.331  0.00  0.00    +0.000 NA
ATOM      3  C   UNL     1       5.070   5.703  16.889  0.00  0.00    +0.000 A 
ATOM      4  C   UNL     1       4.895   4.339  17.009  0.00  0.00    +0.000 A 
ATOM      5  C   UNL     1       3.730   3.859  17.613  0.00  0.00    +0.000 A 
ATOM      6  C   UNL     1       3.519   2.477  17.751  0.00  0.00    +0.000 A 
ATOM      7  C   UNL     1       2.354   1.984  18.338  0.00  0.00    +0.000 A 
ATOM      8  C   UNL     1       1.377   2.866  18.783  0.00  0.00    +0.000 A 
ATOM      9  C   UNL     1       1.573   4.243  18.655  0.00  0.00    +0.000 A 
ATOM     10  C   UNL     1       2.758   4.772  18.083  0.00  0.00    +0.000 A 
ENDROOT
BRANCH   1  12
ATOM     11  C   UNL     1       2.213   7.631  19.718  0.00  0.00    +0.000 C 
ATOM     12  C   UNL     1       2.165   7.212  18.442  0.00  0.00    +0.000 C 
BRANCH  11  17
ATOM     13  F   UNL     1      -1.236  11.263  22.233  0.00  0.00    +0.000 F 
ATOM     14  C   UNL     1      -0.409  10.404  21.621  0.00  0.00    +0.000 A 
ATOM     15  C   UNL     1       0.073   9.306  22.316  0.00  0.00    +0.000 A 
ATOM     16  C   UNL     1       0.934   8.412  21.675  0.00  0.00    +0.000 A 
ATOM     17  C   UNL     1       1.304   8.608  20.334  0.00  0.00    +0.000 A 
ATOM     18  C   UNL     1       0.817   9.736  19.657  0.00  0.00    +0.000 A 
ATOM     19  C   UNL     1      -0.044  10.630  20.298  0.00  0.00    +0.000 A 
ENDBRANCH  11  17
ENDBRANCH   1  12
TORSDOF 2
ENDMDL
