MODEL 1
REMARK VINA RESULT:      -8.0      0.000      0.000
REMARK  Name = 
REMARK  10 active torsions:
REMARK  status: ('A' for Active; 'I' for Inactive)
REMARK    1  A    between atoms: C_1  and  C_2
REMARK    2  A    between atoms: C_2  and  O_3
REMARK    3  A    between atoms: O_3  and  C_4
REMARK    4  A    between atoms: C_4  and  C_6
REMARK    5  A    between atoms: C_7  and  C_8
REMARK    6  A    between atoms: C_8  and  O_9
REMARK    7  A    between atoms: O_9  and  C_10
REMARK    8  A    between atoms: C_10  and  C_12
REMARK    9  A    between atoms: C_13  and  C_14
REMARK   10  A    between atoms: C_24  and  C_25
REMARK                            x       y       z     vdW  Elec       q    Type
REMARK                         _______ _______ _______ _____ _____    ______ ____
ROOT
ATOM      1  C   UNL     1       2.767   4.666  19.171  0.00  0.00    +0.000 C 
ATOM      2  C   UNL     1       4.069   4.312  19.230  0.00  0.00    +0.000 C 
ATOM      3  N   UNL     1       4.394   2.992  19.005  0.00  0.00    +0.000 N 
ATOM      4  C   UNL     1       3.530   2.019  18.612  0.00  0.00    +0.000 C 
ATOM      5  O   UNL     1       3.902   0.882  18.345  0.00  0.00    +0.000 OA
ATOM      6  N   UNL     1       2.231   2.384  18.494  0.00  0.00    +0.000 N 
ATOM      7  C   UNL     1       1.677   3.642  18.958  0.00  0.00    +0.000 C 
ATOM      8  C   UNL     1       0.856   3.397  20.226  0.00  0.00    +0.000 C 
ATOM      9  H   UNL     1       5.371   2.720  19.027  0.00  0.00    +0.000 HD
ATOM     10  H   UNL     1       1.608   1.642  18.209  0.00  0.00    +0.000 HD
ENDROOT
BRANCH   1  11
ATOM     11  C   UNL     1       2.360   6.091  19.289  0.00  0.00    +0.000 C 
ATOM     12  O   UNL     1       2.108   6.660  20.340  0.00  0.00    +0.000 OA
BRANCH  11  13
ATOM     13  O   UNL     1       2.353   6.667  18.061  0.00  0.00    +0.000 OA
BRANCH  13  15
ATOM     14  C   UNL     1       1.670   8.976  17.826  0.00  0.00    +0.000 C 
ATOM     15  C   UNL     1       2.833   8.017  17.995  0.00  0.00    +0.000 C 
ENDBRANCH  13  15
ENDBRANCH  11  13
ENDBRANCH   1  11
BRANCH   2  16
ATOM     16  C   UNL     1       5.234   5.251  19.494  0.00  0.00    +0.000 C 
BRANCH  16  17
ATOM     17  O   UNL     1       5.914   5.555  18.255  0.00  0.00    +0.000 OA
BRANCH  17  18
ATOM     18  C   UNL     1       7.158   5.036  18.129  0.00  0.00    +0.000 C 
ATOM     19  O   UNL     1       8.023   4.989  18.989  0.00  0.00    +0.000 OA
BRANCH  18  20
ATOM     20  C   UNL     1       7.324   4.546  16.746  0.00  0.00    +0.000 C 
ATOM     21  C   UNL     1       6.739   5.215  15.738  0.00  0.00    +0.000 C 
BRANCH  21  22
ATOM     22  C   UNL     1       6.752   4.775  14.336  0.00  0.00    +0.000 A 
ATOM     23  C   UNL     1       5.816   3.812  13.928  0.00  0.00    +0.000 A 
ATOM     24  C   UNL     1       5.827   3.317  12.622  0.00  0.00    +0.000 A 
ATOM     25  C   UNL     1       6.758   3.794  11.703  0.00  0.00    +0.000 A 
ATOM     26  C   UNL     1       7.664   4.782  12.084  0.00  0.00    +0.000 A 
ATOM     27  C   UNL     1       7.655   5.276  13.391  0.00  0.00    +0.000 A 
ENDBRANCH  21  22
ENDBRANCH  18  20
ENDBRANCH  17  18
ENDBRANCH  16  17
ENDBRANCH   2  16
TORSDOF 8
ENDMDL
MODEL 2
REMARK VINA RESULT:      -7.7      4.096      6.075
REMARK  Name = 
REMARK  10 active torsions:
REMARK  status: ('A' for Active; 'I' for Inactive)
REMARK    1  A    between atoms: C_1  and  C_2
REMARK    2  A    between atoms: C_2  and  O_3
REMARK    3  A    between atoms: O_3  and  C_4
REMARK    4  A    between atoms: C_4  and  C_6
REMARK    5  A    between atoms: C_7  and  C_8
REMARK    6  A    between atoms: C_8  and  O_9
REMARK    7  A    between atoms: O_9  and  C_10
REMARK    8  A    between atoms: C_10  and  C_12
REMARK    9  A    between atoms: C_13  and  C_14
REMARK   10  A    between atoms: C_24  and  C_25
REMARK                            x       y       z     vdW  Elec       q    Type
REMARK                         _______ _______ _______ _____ _____    ______ ____
ROOT
ATOM      1  C   UNL     1       4.764   4.407  17.345  0.00  0.00    +0.000 C 
ATOM      2  C   UNL     1       5.771   4.297  18.238  0.00  0.00    +0.000 C 
ATOM      3  N   UNL     1       5.535   3.590  19.398  0.00  0.00    +0.000 N 
ATOM      4  C   UNL     1       4.407   2.888  19.682  0.00  0.00    +0.000 C 
ATOM      5  O   UNL     1       4.297   2.208  20.697  0.00  0.00    +0.000 OA
ATOM      6  N   UNL     1       3.417   2.948  18.760  0.00  0.00    +0.000 N 
ATOM      7  C   UNL     1       3.387   3.860  17.632  0.00  0.00    +0.000 C 
ATOM      8  C   UNL     1       2.367   4.968  17.903  0.00  0.00    +0.000 C 
ATOM      9  H   UNL     1       6.292   3.483  20.065  0.00  0.00    +0.000 HD
ATOM     10  H   UNL     1       2.586   2.425  18.999  0.00  0.00    +0.000 HD
ENDROOT
BRANCH   1  11
ATOM     11  C   UNL     1       4.987   5.056  16.025  0.00  0.00    +0.000 C 
ATOM     12  O   UNL     1       5.014   6.262  15.837  0.00  0.00    +0.000 OA
BRANCH  11  13
ATOM     13  O   UNL     1       5.193   4.107  15.079  0.00  0.00    +0.000 OA
BRANCH  13  15
ATOM     14  C   UNL     1       7.393   4.702  14.268  0.00  0.00    +0.000 C 
ATOM     15  C   UNL     1       5.928   4.521  13.919  0.00  0.00    +0.000 C 
ENDBRANCH  13  15
ENDBRANCH  11  13
ENDBRANCH   1  11
BRANCH   2  16
ATOM     16  C   UNL     1       7.174   4.859  18.072  0.00  0.00    +0.000 C 
BRANCH  16  17
ATOM     17  O   UNL     1       7.223   6.217  18.567  0.00  0.00    +0.000 OA
BRANCH  17  18
ATOM     18  C   UNL     1       7.739   7.130  17.713  0.00  0.00    +0.000 C 
ATOM     19  O   UNL     1       7.746   7.073  16.493  0.00  0.00    +0.000 OA
BRANCH  18  20
ATOM     20  C   UNL     1       8.334   8.226  18.503  0.00  0.00    +0.000 C 
ATOM     21  C   UNL     1       8.397   9.459  17.972  0.00  0.00    +0.000 C 
BRANCH  21  22
ATOM     22  C   UNL     1       9.050  10.606  18.618  0.00  0.00    +0.000 A 
ATOM     23  C   UNL     1       9.519  10.456  19.933  0.00  0.00    +0.000 A 
ATOM     24  C   UNL     1      10.092  11.535  20.611  0.00  0.00    +0.000 A 
ATOM     25  C   UNL     1      10.221  12.768  19.978  0.00  0.00    +0.000 A 
ATOM     26  C   UNL     1       9.799  12.917  18.659  0.00  0.00    +0.000 A 
ATOM     27  C   UNL     1       9.225  11.839  17.980  0.00  0.00    +0.000 A 
ENDBRANCH  21  22
ENDBRANCH  18  20
ENDBRANCH  17  18
ENDBRANCH  16  17
ENDBRANCH   2  16
TORSDOF 8
ENDMDL
MODEL 3
REMARK VINA RESULT:      -7.6      4.205      5.994
REMARK  Name = 
REMARK  10 active torsions:
REMARK  status: ('A' for Active; 'I' for Inactive)
REMARK    1  A    between atoms: C_1  and  C_2
REMARK    2  A    between atoms: C_2  and  O_3
REMARK    3  A    between atoms: O_3  and  C_4
REMARK    4  A    between atoms: C_4  and  C_6
REMARK    5  A    between atoms: C_7  and  C_8
REMARK    6  A    between atoms: C_8  and  O_9
REMARK    7  A    between atoms: O_9  and  C_10
REMARK    8  A    between atoms: C_10  and  C_12
REMARK    9  A    between atoms: C_13  and  C_14
REMARK   10  A    between atoms: C_24  and  C_25
REMARK                            x       y       z     vdW  Elec       q    Type
REMARK                         _______ _______ _______ _____ _____    ______ ____
ROOT
ATOM      1  C   UNL     1       4.375   4.620  18.323  0.00  0.00    +0.000 C 
ATOM      2  C   UNL     1       5.695   4.859  18.166  0.00  0.00    +0.000 C 
ATOM      3  N   UNL     1       6.306   4.402  17.018  0.00  0.00    +0.000 N 
ATOM      4  C   UNL     1       5.676   3.824  15.962  0.00  0.00    +0.000 C 
ATOM      5  O   UNL     1       6.269   3.519  14.933  0.00  0.00    +0.000 OA
ATOM      6  N   UNL     1       4.341   3.636  16.091  0.00  0.00    +0.000 N 
ATOM      7  C   UNL     1       3.596   3.797  17.325  0.00  0.00    +0.000 C 
ATOM      8  C   UNL     1       3.223   2.418  17.875  0.00  0.00    +0.000 C 
ATOM      9  H   UNL     1       7.293   4.595  16.882  0.00  0.00    +0.000 HD
ATOM     10  H   UNL     1       3.898   3.198  15.296  0.00  0.00    +0.000 HD
ENDROOT
BRANCH   1  11
ATOM     11  C   UNL     1       3.632   5.185  19.481  0.00  0.00    +0.000 C 
ATOM     12  O   UNL     1       3.257   6.343  19.571  0.00  0.00    +0.000 OA
BRANCH  11  13
ATOM     13  O   UNL     1       3.402   4.209  20.394  0.00  0.00    +0.000 OA
BRANCH  13  15
ATOM     14  C   UNL     1       1.839   2.888  21.683  0.00  0.00    +0.000 C 
ATOM     15  C   UNL     1       2.113   4.225  21.023  0.00  0.00    +0.000 C 
ENDBRANCH  13  15
ENDBRANCH  11  13
ENDBRANCH   1  11
BRANCH   2  16
ATOM     16  C   UNL     1       6.581   5.625  19.135  0.00  0.00    +0.000 C 
BRANCH  16  17
ATOM     17  O   UNL     1       7.778   6.074  18.459  0.00  0.00    +0.000 OA
BRANCH  17  18
ATOM     18  C   UNL     1       7.667   7.249  17.797  0.00  0.00    +0.000 C 
ATOM     19  O   UNL     1       7.082   7.444  16.742  0.00  0.00    +0.000 OA
BRANCH  18  20
ATOM     20  C   UNL     1       8.405   8.283  18.549  0.00  0.00    +0.000 C 
ATOM     21  C   UNL     1       8.455   9.535  18.066  0.00  0.00    +0.000 C 
BRANCH  21  22
ATOM     22  C   UNL     1       9.234  10.625  18.670  0.00  0.00    +0.000 A 
ATOM     23  C   UNL     1       9.511  10.567  20.045  0.00  0.00    +0.000 A 
ATOM     24  C   UNL     1      10.196  11.607  20.677  0.00  0.00    +0.000 A 
ATOM     25  C   UNL     1      10.628  12.707  19.941  0.00  0.00    +0.000 A 
ATOM     26  C   UNL     1      10.397  12.756  18.568  0.00  0.00    +0.000 A 
ATOM     27  C   UNL     1       9.712  11.716  17.935  0.00  0.00    +0.000 A 
ENDBRANCH  21  22
ENDBRANCH  18  20
ENDBRANCH  17  18
ENDBRANCH  16  17
ENDBRANCH   2  16
TORSDOF 8
ENDMDL
MODEL 4
REMARK VINA RESULT:      -7.5      3.974      6.134
REMARK  Name = 
REMARK  10 active torsions:
REMARK  status: ('A' for Active; 'I' for Inactive)
REMARK    1  A    between atoms: C_1  and  C_2
REMARK    2  A    between atoms: C_2  and  O_3
REMARK    3  A    between atoms: O_3  and  C_4
REMARK    4  A    between atoms: C_4  and  C_6
REMARK    5  A    between atoms: C_7  and  C_8
REMARK    6  A    between atoms: C_8  and  O_9
REMARK    7  A    between atoms: O_9  and  C_10
REMARK    8  A    between atoms: C_10  and  C_12
REMARK    9  A    between atoms: C_13  and  C_14
REMARK   10  A    between atoms: C_24  and  C_25
REMARK                            x       y       z     vdW  Elec       q    Type
REMARK                         _______ _______ _______ _____ _____    ______ ____
ROOT
ATOM      1  C   UNL     1       3.969   5.678  18.728  0.00  0.00    +0.000 C 
ATOM      2  C   UNL     1       4.062   6.567  17.716  0.00  0.00    +0.000 C 
ATOM      3  N   UNL     1       3.227   7.664  17.737  0.00  0.00    +0.000 N 
ATOM      4  C   UNL     1       2.386   8.000  18.750  0.00  0.00    +0.000 C 
ATOM      5  O   UNL     1       1.733   9.038  18.742  0.00  0.00    +0.000 OA
ATOM      6  N   UNL     1       2.333   7.140  19.794  0.00  0.00    +0.000 N 
ATOM      7  C   UNL     1       2.923   5.814  19.809  0.00  0.00    +0.000 C 
ATOM      8  C   UNL     1       1.816   4.765  19.681  0.00  0.00    +0.000 C 
ATOM      9  H   UNL     1       3.304   8.349  16.992  0.00  0.00    +0.000 HD
ATOM     10  H   UNL     1       1.694   7.408  20.530  0.00  0.00    +0.000 HD
ENDROOT
BRANCH   1  11
ATOM     11  C   UNL     1       4.917   4.536  18.827  0.00  0.00    +0.000 C 
ATOM     12  O   UNL     1       5.917   4.518  19.528  0.00  0.00    +0.000 OA
BRANCH  11  13
ATOM     13  O   UNL     1       4.479   3.512  18.054  0.00  0.00    +0.000 OA
BRANCH  13  15
ATOM     14  C   UNL     1       2.882   1.701  18.210  0.00  0.00    +0.000 C 
ATOM     15  C   UNL     1       4.177   2.289  18.739  0.00  0.00    +0.000 C 
ENDBRANCH  13  15
ENDBRANCH  11  13
ENDBRANCH   1  11
BRANCH   2  16
ATOM     16  C   UNL     1       5.037   6.492  16.553  0.00  0.00    +0.000 C 
BRANCH  16  17
ATOM     17  O   UNL     1       6.149   7.389  16.782  0.00  0.00    +0.000 OA
BRANCH  17  18
ATOM     18  C   UNL     1       7.301   6.800  17.178  0.00  0.00    +0.000 C 
ATOM     19  O   UNL     1       7.630   5.638  17.000  0.00  0.00    +0.000 OA
BRANCH  18  20
ATOM     20  C   UNL     1       8.113   7.798  17.902  0.00  0.00    +0.000 C 
ATOM     21  C   UNL     1       7.822   9.103  17.767  0.00  0.00    +0.000 C 
BRANCH  21  22
ATOM     22  C   UNL     1       8.613  10.192  18.358  0.00  0.00    +0.000 A 
ATOM     23  C   UNL     1       8.693  11.411  17.668  0.00  0.00    +0.000 A 
ATOM     24  C   UNL     1       9.481  12.456  18.158  0.00  0.00    +0.000 A 
ATOM     25  C   UNL     1      10.179  12.301  19.352  0.00  0.00    +0.000 A 
ATOM     26  C   UNL     1      10.073  11.112  20.069  0.00  0.00    +0.000 A 
ATOM     27  C   UNL     1       9.286  10.066  19.579  0.00  0.00    +0.000 A 
ENDBRANCH  21  22
ENDBRANCH  18  20
ENDBRANCH  17  18
ENDBRANCH  16  17
ENDBRANCH   2  16
TORSDOF 8
ENDMDL
MODEL 5
REMARK VINA RESULT:      -7.4      3.877      6.050
REMARK  Name = 
REMARK  10 active torsions:
REMARK  status: ('A' for Active; 'I' for Inactive)
REMARK    1  A    between atoms: C_1  and  C_2
REMARK    2  A    between atoms: C_2  and  O_3
REMARK    3  A    between atoms: O_3  and  C_4
REMARK    4  A    between atoms: C_4  and  C_6
REMARK    5  A    between atoms: C_7  and  C_8
REMARK    6  A    between atoms: C_8  and  O_9
REMARK    7  A    between atoms: O_9  and  C_10
REMARK    8  A    between atoms: C_10  and  C_12
REMARK    9  A    between atoms: C_13  and  C_14
REMARK   10  A    between atoms: C_24  and  C_25
REMARK                            x       y       z     vdW  Elec       q    Type
REMARK                         _______ _______ _______ _____ _____    ______ ____
ROOT
ATOM      1  C   UNL     1       3.939   5.401  18.567  0.00  0.00    +0.000 C 
ATOM      2  C   UNL     1       4.069   6.316  17.581  0.00  0.00    +0.000 C 
ATOM      3  N   UNL     1       3.308   7.463  17.656  0.00  0.00    +0.000 N 
ATOM      4  C   UNL     1       2.513   7.820  18.698  0.00  0.00    +0.000 C 
ATOM      5  O   UNL     1       1.930   8.898  18.738  0.00  0.00    +0.000 OA
ATOM      6  N   UNL     1       2.427   6.931  19.716  0.00  0.00    +0.000 N 
ATOM      7  C   UNL     1       2.928   5.571  19.676  0.00  0.00    +0.000 C 
ATOM      8  C   UNL     1       1.752   4.600  19.542  0.00  0.00    +0.000 C 
ATOM      9  H   UNL     1       3.415   8.165  16.931  0.00  0.00    +0.000 HD
ATOM     10  H   UNL     1       1.823   7.216  20.475  0.00  0.00    +0.000 HD
ENDROOT
BRANCH   1  11
ATOM     11  C   UNL     1       4.812   4.198  18.608  0.00  0.00    +0.000 C 
ATOM     12  O   UNL     1       5.613   3.947  19.494  0.00  0.00    +0.000 OA
BRANCH  11  13
ATOM     13  O   UNL     1       4.553   3.410  17.535  0.00  0.00    +0.000 OA
BRANCH  13  15
ATOM     14  C   UNL     1       3.542   1.418  18.463  0.00  0.00    +0.000 C 
ATOM     15  C   UNL     1       3.341   2.644  17.594  0.00  0.00    +0.000 C 
ENDBRANCH  13  15
ENDBRANCH  11  13
ENDBRANCH   1  11
BRANCH   2  16
ATOM     16  C   UNL     1       5.012   6.215  16.394  0.00  0.00    +0.000 C 
BRANCH  16  17
ATOM     17  O   UNL     1       6.098   7.159  16.544  0.00  0.00    +0.000 OA
BRANCH  17  18
ATOM     18  C   UNL     1       7.197   6.688  17.177  0.00  0.00    +0.000 C 
ATOM     19  O   UNL     1       7.672   5.566  17.085  0.00  0.00    +0.000 OA
BRANCH  18  20
ATOM     20  C   UNL     1       7.735   7.756  18.042  0.00  0.00    +0.000 C 
ATOM     21  C   UNL     1       8.005   8.959  17.507  0.00  0.00    +0.000 C 
BRANCH  21  22
ATOM     22  C   UNL     1       8.630  10.069  18.241  0.00  0.00    +0.000 A 
ATOM     23  C   UNL     1       9.231   9.798  19.480  0.00  0.00    +0.000 A 
ATOM     24  C   UNL     1       9.785  10.829  20.243  0.00  0.00    +0.000 A 
ATOM     25  C   UNL     1       9.763  12.138  19.767  0.00  0.00    +0.000 A 
ATOM     26  C   UNL     1       9.209  12.412  18.519  0.00  0.00    +0.000 A 
ATOM     27  C   UNL     1       8.654  11.382  17.756  0.00  0.00    +0.000 A 
ENDBRANCH  21  22
ENDBRANCH  18  20
ENDBRANCH  17  18
ENDBRANCH  16  17
ENDBRANCH   2  16
TORSDOF 8
ENDMDL
MODEL 6
REMARK VINA RESULT:      -7.3      3.437      7.973
REMARK  Name = 
REMARK  10 active torsions:
REMARK  status: ('A' for Active; 'I' for Inactive)
REMARK    1  A    between atoms: C_1  and  C_2
REMARK    2  A    between atoms: C_2  and  O_3
REMARK    3  A    between atoms: O_3  and  C_4
REMARK    4  A    between atoms: C_4  and  C_6
REMARK    5  A    between atoms: C_7  and  C_8
REMARK    6  A    between atoms: C_8  and  O_9
REMARK    7  A    between atoms: O_9  and  C_10
REMARK    8  A    between atoms: C_10  and  C_12
REMARK    9  A    between atoms: C_13  and  C_14
REMARK   10  A    between atoms: C_24  and  C_25
REMARK                            x       y       z     vdW  Elec       q    Type
REMARK                         _______ _______ _______ _____ _____    ______ ____
ROOT
ATOM      1  C   UNL     1       3.186   4.104  18.663  0.00  0.00    +0.000 C 
ATOM      2  C   UNL     1       3.488   5.368  19.033  0.00  0.00    +0.000 C 
ATOM      3  N   UNL     1       4.808   5.672  19.288  0.00  0.00    +0.000 N 
ATOM      4  C   UNL     1       5.865   4.841  19.089  0.00  0.00    +0.000 C 
ATOM      5  O   UNL     1       7.024   5.206  19.255  0.00  0.00    +0.000 OA
ATOM      6  N   UNL     1       5.571   3.591  18.661  0.00  0.00    +0.000 N 
ATOM      7  C   UNL     1       4.237   3.021  18.615  0.00  0.00    +0.000 C 
ATOM      8  C   UNL     1       4.079   2.008  19.751  0.00  0.00    +0.000 C 
ATOM      9  H   UNL     1       5.047   6.624  19.546  0.00  0.00    +0.000 HD
ATOM     10  H   UNL     1       6.373   2.990  18.530  0.00  0.00    +0.000 HD
ENDROOT
BRANCH   1  11
ATOM     11  C   UNL     1       1.801   3.739  18.263  0.00  0.00    +0.000 C 
ATOM     12  O   UNL     1       1.244   4.123  17.246  0.00  0.00    +0.000 OA
BRANCH  11  13
ATOM     13  O   UNL     1       1.273   2.888  19.176  0.00  0.00    +0.000 OA
BRANCH  13  15
ATOM     14  C   UNL     1       1.324   2.850  21.595  0.00  0.00    +0.000 C 
ATOM     15  C   UNL     1       0.724   3.490  20.357  0.00  0.00    +0.000 C 
ENDBRANCH  13  15
ENDBRANCH  11  13
ENDBRANCH   1  11
BRANCH   2  16
ATOM     16  C   UNL     1       2.500   6.515  19.168  0.00  0.00    +0.000 C 
BRANCH  16  17
ATOM     17  O   UNL     1       2.996   7.679  18.468  0.00  0.00    +0.000 OA
BRANCH  17  18
ATOM     18  C   UNL     1       2.097   8.671  18.274  0.00  0.00    +0.000 C 
ATOM     19  O   UNL     1       1.885   9.276  17.234  0.00  0.00    +0.000 OA
BRANCH  18  20
ATOM     20  C   UNL     1       1.410   8.937  19.553  0.00  0.00    +0.000 C 
ATOM     21  C   UNL     1       0.490   9.915  19.612  0.00  0.00    +0.000 C 
BRANCH  21  22
ATOM     22  C   UNL     1      -0.190  10.337  20.845  0.00  0.00    +0.000 A 
ATOM     23  C   UNL     1      -0.878  11.560  20.844  0.00  0.00    +0.000 A 
ATOM     24  C   UNL     1      -1.490  12.034  22.007  0.00  0.00    +0.000 A 
ATOM     25  C   UNL     1      -1.438  11.281  23.178  0.00  0.00    +0.000 A 
ATOM     26  C   UNL     1      -0.796  10.046  23.179  0.00  0.00    +0.000 A 
ATOM     27  C   UNL     1      -0.183   9.572  22.017  0.00  0.00    +0.000 A 
ENDBRANCH  21  22
ENDBRANCH  18  20
ENDBRANCH  17  18
ENDBRANCH  16  17
ENDBRANCH   2  16
TORSDOF 8
ENDMDL
MODEL 7
REMARK VINA RESULT:      -7.2      0.910      1.209
REMARK  Name = 
REMARK  10 active torsions:
REMARK  status: ('A' for Active; 'I' for Inactive)
REMARK    1  A    between atoms: C_1  and  C_2
REMARK    2  A    between atoms: C_2  and  O_3
REMARK    3  A    between atoms: O_3  and  C_4
REMARK    4  A    between atoms: C_4  and  C_6
REMARK    5  A    between atoms: C_7  and  C_8
REMARK    6  A    between atoms: C_8  and  O_9
REMARK    7  A    between atoms: O_9  and  C_10
REMARK    8  A    between atoms: C_10  and  C_12
REMARK    9  A    between atoms: C_13  and  C_14
REMARK   10  A    between atoms: C_24  and  C_25
REMARK                            x       y       z     vdW  Elec       q    Type
REMARK                         _______ _______ _______ _____ _____    ______ ____
ROOT
ATOM      1  C   UNL     1       2.857   4.866  18.948  0.00  0.00    +0.000 C 
ATOM      2  C   UNL     1       4.119   4.435  19.156  0.00  0.00    +0.000 C 
ATOM      3  N   UNL     1       4.378   3.089  19.010  0.00  0.00    +0.000 N 
ATOM      4  C   UNL     1       3.497   2.157  18.560  0.00  0.00    +0.000 C 
ATOM      5  O   UNL     1       3.819   0.989  18.371  0.00  0.00    +0.000 OA
ATOM      6  N   UNL     1       2.245   2.598  18.293  0.00  0.00    +0.000 N 
ATOM      7  C   UNL     1       1.730   3.905  18.655  0.00  0.00    +0.000 C 
ATOM      8  C   UNL     1       0.767   3.762  19.836  0.00  0.00    +0.000 C 
ATOM      9  H   UNL     1       5.328   2.758  19.143  0.00  0.00    +0.000 HD
ATOM     10  H   UNL     1       1.607   1.885  17.968  0.00  0.00    +0.000 HD
ENDROOT
BRANCH   1  11
ATOM     11  C   UNL     1       2.535   6.318  18.976  0.00  0.00    +0.000 C 
ATOM     12  O   UNL     1       2.531   7.051  18.000  0.00  0.00    +0.000 OA
BRANCH  11  13
ATOM     13  O   UNL     1       2.209   6.688  20.240  0.00  0.00    +0.000 OA
BRANCH  13  15
ATOM     14  C   UNL     1       0.556   8.035  21.382  0.00  0.00    +0.000 C 
ATOM     15  C   UNL     1       1.709   8.023  20.397  0.00  0.00    +0.000 C 
ENDBRANCH  13  15
ENDBRANCH  11  13
ENDBRANCH   1  11
BRANCH   2  16
ATOM     16  C   UNL     1       5.311   5.309  19.511  0.00  0.00    +0.000 C 
BRANCH  16  17
ATOM     17  O   UNL     1       5.861   5.904  18.313  0.00  0.00    +0.000 OA
BRANCH  17  18
ATOM     18  C   UNL     1       7.012   5.353  17.864  0.00  0.00    +0.000 C 
ATOM     19  O   UNL     1       7.915   4.885  18.540  0.00  0.00    +0.000 OA
BRANCH  18  20
ATOM     20  C   UNL     1       7.023   5.428  16.389  0.00  0.00    +0.000 C 
ATOM     21  C   UNL     1       6.608   4.370  15.675  0.00  0.00    +0.000 C 
BRANCH  21  22
ATOM     22  C   UNL     1       6.662   4.289  14.208  0.00  0.00    +0.000 A 
ATOM     23  C   UNL     1       5.756   3.441  13.551  0.00  0.00    +0.000 A 
ATOM     24  C   UNL     1       5.807   3.284  12.163  0.00  0.00    +0.000 A 
ATOM     25  C   UNL     1       6.749   3.987  11.416  0.00  0.00    +0.000 A 
ATOM     26  C   UNL     1       7.624   4.864  12.052  0.00  0.00    +0.000 A 
ATOM     27  C   UNL     1       7.575   5.021  13.440  0.00  0.00    +0.000 A 
ENDBRANCH  21  22
ENDBRANCH  18  20
ENDBRANCH  17  18
ENDBRANCH  16  17
ENDBRANCH   2  16
TORSDOF 8
ENDMDL
MODEL 8
REMARK VINA RESULT:      -7.2      0.544      1.132
REMARK  Name = 
REMARK  10 active torsions:
REMARK  status: ('A' for Active; 'I' for Inactive)
REMARK    1  A    between atoms: C_1  and  C_2
REMARK    2  A    between atoms: C_2  and  O_3
REMARK    3  A    between atoms: O_3  and  C_4
REMARK    4  A    between atoms: C_4  and  C_6
REMARK    5  A    between atoms: C_7  and  C_8
REMARK    6  A    between atoms: C_8  and  O_9
REMARK    7  A    between atoms: O_9  and  C_10
REMARK    8  A    between atoms: C_10  and  C_12
REMARK    9  A    between atoms: C_13  and  C_14
REMARK   10  A    between atoms: C_24  and  C_25
REMARK                            x       y       z     vdW  Elec       q    Type
REMARK                         _______ _______ _______ _____ _____    ______ ____
ROOT
ATOM      1  C   UNL     1       2.785   4.756  19.151  0.00  0.00    +0.000 C 
ATOM      2  C   UNL     1       4.082   4.383  19.184  0.00  0.00    +0.000 C 
ATOM      3  N   UNL     1       4.385   3.064  18.922  0.00  0.00    +0.000 N 
ATOM      4  C   UNL     1       3.502   2.114  18.517  0.00  0.00    +0.000 C 
ATOM      5  O   UNL     1       3.855   0.978  18.217  0.00  0.00    +0.000 OA
ATOM      6  N   UNL     1       2.208   2.500  18.426  0.00  0.00    +0.000 N 
ATOM      7  C   UNL     1       1.678   3.753  18.929  0.00  0.00    +0.000 C 
ATOM      8  C   UNL     1       0.871   3.489  20.202  0.00  0.00    +0.000 C 
ATOM      9  H   UNL     1       5.359   2.778  18.923  0.00  0.00    +0.000 HD
ATOM     10  H   UNL     1       1.570   1.773  18.132  0.00  0.00    +0.000 HD
ENDROOT
BRANCH   1  11
ATOM     11  C   UNL     1       2.400   6.184  19.310  0.00  0.00    +0.000 C 
ATOM     12  O   UNL     1       2.267   6.756  20.381  0.00  0.00    +0.000 OA
BRANCH  11  13
ATOM     13  O   UNL     1       2.261   6.757  18.090  0.00  0.00    +0.000 OA
BRANCH  13  15
ATOM     14  C   UNL     1       1.577   9.052  17.748  0.00  0.00    +0.000 C 
ATOM     15  C   UNL     1       2.740   8.104  17.967  0.00  0.00    +0.000 C 
ENDBRANCH  13  15
ENDBRANCH  11  13
ENDBRANCH   1  11
BRANCH   2  16
ATOM     16  C   UNL     1       5.265   5.299  19.454  0.00  0.00    +0.000 C 
BRANCH  16  17
ATOM     17  O   UNL     1       5.425   6.234  18.363  0.00  0.00    +0.000 OA
BRANCH  17  18
ATOM     18  C   UNL     1       6.581   6.129  17.669  0.00  0.00    +0.000 C 
ATOM     19  O   UNL     1       7.711   6.318  18.094  0.00  0.00    +0.000 OA
BRANCH  18  20
ATOM     20  C   UNL     1       6.261   5.769  16.274  0.00  0.00    +0.000 C 
ATOM     21  C   UNL     1       7.023   4.864  15.638  0.00  0.00    +0.000 C 
BRANCH  21  22
ATOM     22  C   UNL     1       6.864   4.495  14.225  0.00  0.00    +0.000 A 
ATOM     23  C   UNL     1       7.723   5.077  13.280  0.00  0.00    +0.000 A 
ATOM     24  C   UNL     1       7.572   4.804  11.918  0.00  0.00    +0.000 A 
ATOM     25  C   UNL     1       6.576   3.931  11.487  0.00  0.00    +0.000 A 
ATOM     26  C   UNL     1       5.746   3.314  12.419  0.00  0.00    +0.000 A 
ATOM     27  C   UNL     1       5.895   3.587  13.781  0.00  0.00    +0.000 A 
ENDBRANCH  21  22
ENDBRANCH  18  20
ENDBRANCH  17  18
ENDBRANCH  16  17
ENDBRANCH   2  16
TORSDOF 8
ENDMDL
MODEL 9
REMARK VINA RESULT:      -7.2      4.351      6.529
REMARK  Name = 
REMARK  10 active torsions:
REMARK  status: ('A' for Active; 'I' for Inactive)
REMARK    1  A    between atoms: C_1  and  C_2
REMARK    2  A    between atoms: C_2  and  O_3
REMARK    3  A    between atoms: O_3  and  C_4
REMARK    4  A    between atoms: C_4  and  C_6
REMARK    5  A    between atoms: C_7  and  C_8
REMARK    6  A    between atoms: C_8  and  O_9
REMARK    7  A    between atoms: O_9  and  C_10
REMARK    8  A    between atoms: C_10  and  C_12
REMARK    9  A    between atoms: C_13  and  C_14
REMARK   10  A    between atoms: C_24  and  C_25
REMARK                            x       y       z     vdW  Elec       q    Type
REMARK                         _______ _______ _______ _____ _____    ______ ____
ROOT
ATOM      1  C   UNL     1       3.946   5.093  17.857  0.00  0.00    +0.000 C 
ATOM      2  C   UNL     1       4.556   6.157  17.292  0.00  0.00    +0.000 C 
ATOM      3  N   UNL     1       3.930   7.382  17.370  0.00  0.00    +0.000 N 
ATOM      4  C   UNL     1       2.795   7.649  18.069  0.00  0.00    +0.000 C 
ATOM      5  O   UNL     1       2.338   8.782  18.167  0.00  0.00    +0.000 OA
ATOM      6  N   UNL     1       2.212   6.594  18.687  0.00  0.00    +0.000 N 
ATOM      7  C   UNL     1       2.574   5.205  18.478  0.00  0.00    +0.000 C 
ATOM      8  C   UNL     1       1.496   4.521  17.633  0.00  0.00    +0.000 C 
ATOM      9  H   UNL     1       4.391   8.191  16.967  0.00  0.00    +0.000 HD
ATOM     10  H   UNL     1       1.365   6.817  19.192  0.00  0.00    +0.000 HD
ENDROOT
BRANCH   1  11
ATOM     11  C   UNL     1       4.620   3.768  17.909  0.00  0.00    +0.000 C 
ATOM     12  O   UNL     1       4.814   3.046  16.944  0.00  0.00    +0.000 OA
BRANCH  11  13
ATOM     13  O   UNL     1       5.018   3.509  19.179  0.00  0.00    +0.000 OA
BRANCH  13  15
ATOM     14  C   UNL     1       4.952   1.581  20.639  0.00  0.00    +0.000 C 
ATOM     15  C   UNL     1       4.150   2.670  19.954  0.00  0.00    +0.000 C 
ENDBRANCH  13  15
ENDBRANCH  11  13
ENDBRANCH   1  11
BRANCH   2  16
ATOM     16  C   UNL     1       5.906   6.140  16.593  0.00  0.00    +0.000 C 
BRANCH  16  17
ATOM     17  O   UNL     1       6.567   7.415  16.766  0.00  0.00    +0.000 OA
BRANCH  17  18
ATOM     18  C   UNL     1       7.540   7.445  17.706  0.00  0.00    +0.000 C 
ATOM     19  O   UNL     1       7.920   6.513  18.398  0.00  0.00    +0.000 OA
BRANCH  18  20
ATOM     20  C   UNL     1       8.068   8.821  17.790  0.00  0.00    +0.000 C 
ATOM     21  C   UNL     1       8.875   9.153  18.811  0.00  0.00    +0.000 C 
BRANCH  21  22
ATOM     22  C   UNL     1       9.385  10.509  19.056  0.00  0.00    +0.000 A 
ATOM     23  C   UNL     1       9.430  10.979  20.377  0.00  0.00    +0.000 A 
ATOM     24  C   UNL     1       9.850  12.283  20.655  0.00  0.00    +0.000 A 
ATOM     25  C   UNL     1      10.249  13.123  19.619  0.00  0.00    +0.000 A 
ATOM     26  C   UNL     1      10.249  12.653  18.308  0.00  0.00    +0.000 A 
ATOM     27  C   UNL     1       9.828  11.351  18.028  0.00  0.00    +0.000 A 
ENDBRANCH  21  22
ENDBRANCH  18  20
ENDBRANCH  17  18
ENDBRANCH  16  17
ENDBRANCH   2  16
TORSDOF 8
ENDMDL
