MODEL 1
REMARK VINA RESULT:      -8.7      0.000      0.000
REMARK  Name = 
REMARK  4 active torsions:
REMARK  status: ('A' for Active; 'I' for Inactive)
REMARK    1  A    between atoms: C_6  and  N_7
REMARK    2  A    between atoms: C_12  and  N_13
REMARK    3  A    between atoms: C_15  and  C_16
REMARK    4  A    between atoms: N_18  and  C_19
REMARK                            x       y       z     vdW  Elec       q    Type
REMARK                         _______ _______ _______ _____ _____    ______ ____
ROOT
ATOM      1  N   UNL     1       0.981   6.749  20.386  0.00  0.00    +0.000 N 
ATOM      2  C   UNL     1       2.152   6.047  20.257  0.00  0.00    +0.000 C 
ATOM      3  O   UNL     1       3.268   6.564  20.230  0.00  0.00    +0.000 OA
ATOM      4  N   UNL     1       2.024   4.687  20.084  0.00  0.00    +0.000 N 
ATOM      5  C   UNL     1       0.838   3.873  20.307  0.00  0.00    +0.000 C 
ATOM      6  C   UNL     1       1.217   2.465  19.824  0.00  0.00    +0.000 C 
ATOM      7  C   UNL     1       2.713   2.412  20.151  0.00  0.00    +0.000 C 
ATOM      8  C   UNL     1       3.212   3.839  19.884  0.00  0.00    +0.000 C 
ATOM      9  H   UNL     1       0.147   6.266  20.674  0.00  0.00    +0.000 HD
ENDROOT
BRANCH   1  15
ATOM     10  N   UNL     1       2.451  11.087  17.839  0.00  0.00    +0.000 N 
ATOM     11  C   UNL     1       1.322  11.303  18.579  0.00  0.00    +0.000 C 
ATOM     12  O   UNL     1       0.662  12.328  18.569  0.00  0.00    +0.000 OA
ATOM     13  N   UNL     1       1.025  10.229  19.443  0.00  0.00    +0.000 N 
ATOM     14  C   UNL     1       1.328   8.896  19.219  0.00  0.00    +0.000 A 
ATOM     15  C   UNL     1       0.886   8.132  20.272  0.00  0.00    +0.000 A 
ATOM     16  C   UNL     1       0.286   9.026  21.209  0.00  0.00    +0.000 A 
ATOM     17  C   UNL     1      -0.306   8.864  22.481  0.00  0.00    +0.000 A 
ATOM     18  C   UNL     1      -0.748   9.983  23.194  0.00  0.00    +0.000 A 
ATOM     19  C   UNL     1      -0.625  11.258  22.651  0.00  0.00    +0.000 A 
ATOM     20  C   UNL     1      -0.076  11.446  21.382  0.00  0.00    +0.000 A 
ATOM     21  C   UNL     1       0.376  10.316  20.674  0.00  0.00    +0.000 A 
ATOM     22  H   UNL     1       2.799  11.890  17.330  0.00  0.00    +0.000 HD
ATOM     23  H   UNL     1       3.142  10.408  18.138  0.00  0.00    +0.000 HD
ENDBRANCH   1  15
BRANCH   8  24
ATOM     24  C   UNL     1       3.837   4.005  18.469  0.00  0.00    +0.000 C 
ATOM     25  O   UNL     1       3.310   3.582  17.444  0.00  0.00    +0.000 OA
ATOM     26  N   UNL     1       5.076   4.610  18.470  0.00  0.00    +0.000 N 
ATOM     27  H   UNL     1       5.374   5.045  19.344  0.00  0.00    +0.000 HD
BRANCH  26  28
ATOM     28  C   UNL     1       5.923   4.757  17.296  0.00  0.00    +0.000 C 
ATOM     29  C   UNL     1       5.576   6.006  16.473  0.00  0.00    +0.000 C 
ATOM     30  C   UNL     1       6.068   7.313  17.099  0.00  0.00    +0.000 C 
ATOM     31  C   UNL     1       7.546   7.251  17.474  0.00  0.00    +0.000 C 
ATOM     32  C   UNL     1       7.839   6.057  18.374  0.00  0.00    +0.000 C 
ATOM     33  C   UNL     1       7.399   4.749  17.717  0.00  0.00    +0.000 C 
ENDBRANCH  26  28
ENDBRANCH   8  24
BRANCH   6  34
ATOM     34  N   UNL     1       0.966   2.255  18.399  0.00  0.00    +0.000 NA
ATOM     35  H   UNL     1       0.028   1.879  18.238  0.00  0.00    +0.000 HD
ATOM     36  H   UNL     1       1.620   1.584  18.001  0.00  0.00    +0.000 HD
ENDBRANCH   6  34
TORSDOF 4
ENDMDL
MODEL 2
REMARK VINA RESULT:      -8.6      1.821      4.500
REMARK  Name = 
REMARK  4 active torsions:
REMARK  status: ('A' for Active; 'I' for Inactive)
REMARK    1  A    between atoms: C_6  and  N_7
REMARK    2  A    between atoms: C_12  and  N_13
REMARK    3  A    between atoms: C_15  and  C_16
REMARK    4  A    between atoms: N_18  and  C_19
REMARK                            x       y       z     vdW  Elec       q    Type
REMARK                         _______ _______ _______ _____ _____    ______ ____
ROOT
ATOM      1  N   UNL     1       3.523   8.288  17.815  0.00  0.00    +0.000 N 
ATOM      2  C   UNL     1       3.539   6.951  17.509  0.00  0.00    +0.000 C 
ATOM      3  O   UNL     1       2.542   6.232  17.502  0.00  0.00    +0.000 OA
ATOM      4  N   UNL     1       4.779   6.403  17.264  0.00  0.00    +0.000 N 
ATOM      5  C   UNL     1       6.025   7.110  17.007  0.00  0.00    +0.000 C 
ATOM      6  C   UNL     1       7.105   6.019  16.947  0.00  0.00    +0.000 C 
ATOM      7  C   UNL     1       6.325   4.836  16.365  0.00  0.00    +0.000 C 
ATOM      8  C   UNL     1       4.923   4.965  16.976  0.00  0.00    +0.000 C 
ATOM      9  H   UNL     1       4.300   8.865  17.539  0.00  0.00    +0.000 HD
ENDROOT
BRANCH   1  15
ATOM     10  N   UNL     1       0.551  12.602  17.946  0.00  0.00    +0.000 N 
ATOM     11  C   UNL     1      -0.090  11.538  18.518  0.00  0.00    +0.000 C 
ATOM     12  O   UNL     1      -1.246  11.542  18.907  0.00  0.00    +0.000 OA
ATOM     13  N   UNL     1       0.757  10.425  18.697  0.00  0.00    +0.000 N 
ATOM     14  C   UNL     1       1.842  10.093  17.904  0.00  0.00    +0.000 A 
ATOM     15  C   UNL     1       2.432   8.945  18.373  0.00  0.00    +0.000 A 
ATOM     16  C   UNL     1       1.690   8.540  19.524  0.00  0.00    +0.000 A 
ATOM     17  C   UNL     1       1.816   7.482  20.451  0.00  0.00    +0.000 A 
ATOM     18  C   UNL     1       0.943   7.402  21.542  0.00  0.00    +0.000 A 
ATOM     19  C   UNL     1      -0.063   8.348  21.711  0.00  0.00    +0.000 A 
ATOM     20  C   UNL     1      -0.233   9.383  20.792  0.00  0.00    +0.000 A 
ATOM     21  C   UNL     1       0.655   9.465  19.702  0.00  0.00    +0.000 A 
ATOM     22  H   UNL     1       0.037  13.474  17.949  0.00  0.00    +0.000 HD
ATOM     23  H   UNL     1       1.561  12.674  17.979  0.00  0.00    +0.000 HD
ENDBRANCH   1  15
BRANCH   8  24
ATOM     24  C   UNL     1       4.730   4.077  18.239  0.00  0.00    +0.000 C 
ATOM     25  O   UNL     1       5.578   3.965  19.120  0.00  0.00    +0.000 OA
ATOM     26  N   UNL     1       3.549   3.368  18.252  0.00  0.00    +0.000 N 
ATOM     27  H   UNL     1       2.852   3.624  17.551  0.00  0.00    +0.000 HD
BRANCH  26  28
ATOM     28  C   UNL     1       3.197   2.370  19.251  0.00  0.00    +0.000 C 
ATOM     29  C   UNL     1       3.343   2.896  20.686  0.00  0.00    +0.000 C 
ATOM     30  C   UNL     1       2.221   3.844  21.112  0.00  0.00    +0.000 C 
ATOM     31  C   UNL     1       0.839   3.258  20.842  0.00  0.00    +0.000 C 
ATOM     32  C   UNL     1       0.690   2.839  19.385  0.00  0.00    +0.000 C 
ATOM     33  C   UNL     1       1.779   1.845  18.982  0.00  0.00    +0.000 C 
ENDBRANCH  26  28
ENDBRANCH   8  24
BRANCH   6  34
ATOM     34  N   UNL     1       7.676   5.699  18.255  0.00  0.00    +0.000 NA
ATOM     35  H   UNL     1       7.200   6.210  19.003  0.00  0.00    +0.000 HD
ATOM     36  H   UNL     1       8.658   5.961  18.305  0.00  0.00    +0.000 HD
ENDBRANCH   6  34
TORSDOF 4
ENDMDL
MODEL 3
REMARK VINA RESULT:      -8.4      1.234      2.451
REMARK  Name = 
REMARK  4 active torsions:
REMARK  status: ('A' for Active; 'I' for Inactive)
REMARK    1  A    between atoms: C_6  and  N_7
REMARK    2  A    between atoms: C_12  and  N_13
REMARK    3  A    between atoms: C_15  and  C_16
REMARK    4  A    between atoms: N_18  and  C_19
REMARK                            x       y       z     vdW  Elec       q    Type
REMARK                         _______ _______ _______ _____ _____    ______ ____
ROOT
ATOM      1  N   UNL     1       1.020   6.293  20.661  0.00  0.00    +0.000 N 
ATOM      2  C   UNL     1       2.204   5.646  20.417  0.00  0.00    +0.000 C 
ATOM      3  O   UNL     1       3.303   6.198  20.397  0.00  0.00    +0.000 OA
ATOM      4  N   UNL     1       2.108   4.306  20.115  0.00  0.00    +0.000 N 
ATOM      5  C   UNL     1       0.956   3.436  20.303  0.00  0.00    +0.000 C 
ATOM      6  C   UNL     1       1.354   2.094  19.668  0.00  0.00    +0.000 C 
ATOM      7  C   UNL     1       2.863   2.059  19.928  0.00  0.00    +0.000 C 
ATOM      8  C   UNL     1       3.310   3.520  19.785  0.00  0.00    +0.000 C 
ATOM      9  H   UNL     1       0.213   5.758  20.933  0.00  0.00    +0.000 HD
ENDROOT
BRANCH   1  15
ATOM     10  N   UNL     1      -1.120  10.478  22.978  0.00  0.00    +0.000 N 
ATOM     11  C   UNL     1      -0.054  10.832  22.198  0.00  0.00    +0.000 C 
ATOM     12  O   UNL     1       0.424  11.951  22.129  0.00  0.00    +0.000 OA
ATOM     13  N   UNL     1       0.406   9.770  21.393  0.00  0.00    +0.000 N 
ATOM     14  C   UNL     1       0.335   8.423  21.704  0.00  0.00    +0.000 A 
ATOM     15  C   UNL     1       0.882   7.677  20.689  0.00  0.00    +0.000 A 
ATOM     16  C   UNL     1       1.309   8.597  19.684  0.00  0.00    +0.000 A 
ATOM     17  C   UNL     1       1.901   8.455  18.410  0.00  0.00    +0.000 A 
ATOM     18  C   UNL     1       2.138   9.585  17.619  0.00  0.00    +0.000 A 
ATOM     19  C   UNL     1       1.810  10.854  18.087  0.00  0.00    +0.000 A 
ATOM     20  C   UNL     1       1.257  11.027  19.356  0.00  0.00    +0.000 A 
ATOM     21  C   UNL     1       1.012   9.886  20.143  0.00  0.00    +0.000 A 
ATOM     22  H   UNL     1      -1.590  11.243  23.447  0.00  0.00    +0.000 HD
ATOM     23  H   UNL     1      -1.691   9.677  22.738  0.00  0.00    +0.000 HD
ENDBRANCH   1  15
BRANCH   8  24
ATOM     24  C   UNL     1       3.869   3.844  18.369  0.00  0.00    +0.000 C 
ATOM     25  O   UNL     1       3.275   3.570  17.330  0.00  0.00    +0.000 OA
ATOM     26  N   UNL     1       5.127   4.407  18.378  0.00  0.00    +0.000 N 
ATOM     27  H   UNL     1       5.484   4.719  19.282  0.00  0.00    +0.000 HD
BRANCH  26  28
ATOM     28  C   UNL     1       5.919   4.675  17.187  0.00  0.00    +0.000 C 
ATOM     29  C   UNL     1       5.467   5.946  16.454  0.00  0.00    +0.000 C 
ATOM     30  C   UNL     1       5.903   7.242  17.141  0.00  0.00    +0.000 C 
ATOM     31  C   UNL     1       7.395   7.249  17.462  0.00  0.00    +0.000 C 
ATOM     32  C   UNL     1       7.793   6.025  18.277  0.00  0.00    +0.000 C 
ATOM     33  C   UNL     1       7.408   4.733  17.557  0.00  0.00    +0.000 C 
ENDBRANCH  26  28
ENDBRANCH   8  24
BRANCH   6  34
ATOM     34  N   UNL     1       1.048   2.018  18.240  0.00  0.00    +0.000 NA
ATOM     35  H   UNL     1       0.225   2.580  18.006  0.00  0.00    +0.000 HD
ATOM     36  H   UNL     1       0.838   1.064  17.956  0.00  0.00    +0.000 HD
ENDBRANCH   6  34
TORSDOF 4
ENDMDL
MODEL 4
REMARK VINA RESULT:      -7.8      2.690      8.111
REMARK  Name = 
REMARK  4 active torsions:
REMARK  status: ('A' for Active; 'I' for Inactive)
REMARK    1  A    between atoms: C_6  and  N_7
REMARK    2  A    between atoms: C_12  and  N_13
REMARK    3  A    between atoms: C_15  and  C_16
REMARK    4  A    between atoms: N_18  and  C_19
REMARK                            x       y       z     vdW  Elec       q    Type
REMARK                         _______ _______ _______ _____ _____    ______ ____
ROOT
ATOM      1  N   UNL     1       2.082   7.473  18.915  0.00  0.00    +0.000 N 
ATOM      2  C   UNL     1       1.733   8.658  18.318  0.00  0.00    +0.000 C 
ATOM      3  O   UNL     1       2.022   8.960  17.162  0.00  0.00    +0.000 OA
ATOM      4  N   UNL     1       1.076   9.566  19.118  0.00  0.00    +0.000 N 
ATOM      5  C   UNL     1       0.457   9.321  20.412  0.00  0.00    +0.000 C 
ATOM      6  C   UNL     1       0.004  10.701  20.913  0.00  0.00    +0.000 C 
ATOM      7  C   UNL     1      -0.340  11.414  19.601  0.00  0.00    +0.000 C 
ATOM      8  C   UNL     1       0.698  10.892  18.599  0.00  0.00    +0.000 C 
ATOM      9  H   UNL     1       1.592   7.176  19.742  0.00  0.00    +0.000 HD
ENDROOT
BRANCH   1  15
ATOM     10  N   UNL     1       6.579   6.737  16.326  0.00  0.00    +0.000 N 
ATOM     11  C   UNL     1       6.187   5.600  16.976  0.00  0.00    +0.000 C 
ATOM     12  O   UNL     1       6.842   4.575  17.054  0.00  0.00    +0.000 OA
ATOM     13  N   UNL     1       4.880   5.695  17.499  0.00  0.00    +0.000 N 
ATOM     14  C   UNL     1       4.258   6.855  17.928  0.00  0.00    +0.000 A 
ATOM     15  C   UNL     1       2.992   6.569  18.376  0.00  0.00    +0.000 A 
ATOM     16  C   UNL     1       2.801   5.165  18.210  0.00  0.00    +0.000 A 
ATOM     17  C   UNL     1       1.721   4.285  18.443  0.00  0.00    +0.000 A 
ATOM     18  C   UNL     1       1.833   2.934  18.099  0.00  0.00    +0.000 A 
ATOM     19  C   UNL     1       3.010   2.443  17.543  0.00  0.00    +0.000 A 
ATOM     20  C   UNL     1       4.106   3.281  17.334  0.00  0.00    +0.000 A 
ATOM     21  C   UNL     1       3.984   4.642  17.673  0.00  0.00    +0.000 A 
ATOM     22  H   UNL     1       7.436   6.661  15.793  0.00  0.00    +0.000 HD
ATOM     23  H   UNL     1       5.891   7.397  15.983  0.00  0.00    +0.000 HD
ENDBRANCH   1  15
BRANCH   8  24
ATOM     24  C   UNL     1       1.918  11.845  18.443  0.00  0.00    +0.000 C 
ATOM     25  O   UNL     1       2.898  11.580  17.753  0.00  0.00    +0.000 OA
ATOM     26  N   UNL     1       1.836  12.991  19.204  0.00  0.00    +0.000 N 
ATOM     27  H   UNL     1       0.934  13.190  19.639  0.00  0.00    +0.000 HD
BRANCH  26  28
ATOM     28  C   UNL     1       2.904  13.972  19.337  0.00  0.00    +0.000 C 
ATOM     29  C   UNL     1       2.739  15.155  18.373  0.00  0.00    +0.000 C 
ATOM     30  C   UNL     1       1.656  16.149  18.797  0.00  0.00    +0.000 C 
ATOM     31  C   UNL     1       1.818  16.593  20.247  0.00  0.00    +0.000 C 
ATOM     32  C   UNL     1       1.876  15.398  21.190  0.00  0.00    +0.000 C 
ATOM     33  C   UNL     1       2.999  14.439  20.796  0.00  0.00    +0.000 C 
ENDBRANCH  26  28
ENDBRANCH   8  24
BRANCH   6  34
ATOM     34  N   UNL     1       1.041  11.413  21.660  0.00  0.00    +0.000 NA
ATOM     35  H   UNL     1       1.910  11.473  21.123  0.00  0.00    +0.000 HD
ATOM     36  H   UNL     1       1.268  10.933  22.528  0.00  0.00    +0.000 HD
ENDBRANCH   6  34
TORSDOF 4
ENDMDL
MODEL 5
REMARK VINA RESULT:      -7.6      2.865      7.902
REMARK  Name = 
REMARK  4 active torsions:
REMARK  status: ('A' for Active; 'I' for Inactive)
REMARK    1  A    between atoms: C_6  and  N_7
REMARK    2  A    between atoms: C_12  and  N_13
REMARK    3  A    between atoms: C_15  and  C_16
REMARK    4  A    between atoms: N_18  and  C_19
REMARK                            x       y       z     vdW  Elec       q    Type
REMARK                         _______ _______ _______ _____ _____    ______ ____
ROOT
ATOM      1  N   UNL     1       1.474   8.260  19.253  0.00  0.00    +0.000 N 
ATOM      2  C   UNL     1       1.428   9.594  18.940  0.00  0.00    +0.000 C 
ATOM      3  O   UNL     1       2.119  10.125  18.072  0.00  0.00    +0.000 OA
ATOM      4  N   UNL     1       0.590  10.367  19.712  0.00  0.00    +0.000 N 
ATOM      5  C   UNL     1      -0.455   9.908  20.616  0.00  0.00    +0.000 C 
ATOM      6  C   UNL     1      -0.969  11.175  21.317  0.00  0.00    +0.000 C 
ATOM      7  C   UNL     1      -0.791  12.234  20.225  0.00  0.00    +0.000 C 
ATOM      8  C   UNL     1       0.498  11.822  19.500  0.00  0.00    +0.000 C 
ATOM      9  H   UNL     1       0.710   7.847  19.760  0.00  0.00    +0.000 HD
ENDROOT
BRANCH   1  15
ATOM     10  N   UNL     1       4.989   7.108  15.540  0.00  0.00    +0.000 N 
ATOM     11  C   UNL     1       5.244   6.425  16.696  0.00  0.00    +0.000 C 
ATOM     12  O   UNL     1       6.223   5.726  16.896  0.00  0.00    +0.000 OA
ATOM     13  N   UNL     1       4.201   6.541  17.638  0.00  0.00    +0.000 N 
ATOM     14  C   UNL     1       3.347   7.622  17.778  0.00  0.00    +0.000 A 
ATOM     15  C   UNL     1       2.458   7.388  18.797  0.00  0.00    +0.000 A 
ATOM     16  C   UNL     1       2.758   6.094  19.319  0.00  0.00    +0.000 A 
ATOM     17  C   UNL     1       2.190   5.286  20.329  0.00  0.00    +0.000 A 
ATOM     18  C   UNL     1       2.687   3.998  20.556  0.00  0.00    +0.000 A 
ATOM     19  C   UNL     1       3.752   3.510  19.803  0.00  0.00    +0.000 A 
ATOM     20  C   UNL     1       4.355   4.299  18.823  0.00  0.00    +0.000 A 
ATOM     21  C   UNL     1       3.844   5.591  18.593  0.00  0.00    +0.000 A 
ATOM     22  H   UNL     1       5.624   6.923  14.774  0.00  0.00    +0.000 HD
ATOM     23  H   UNL     1       4.040   7.359  15.288  0.00  0.00    +0.000 HD
ENDBRANCH   1  15
BRANCH   8  24
ATOM     24  C   UNL     1       1.752  12.584  20.018  0.00  0.00    +0.000 C 
ATOM     25  O   UNL     1       2.135  12.539  21.184  0.00  0.00    +0.000 OA
ATOM     26  N   UNL     1       2.360  13.376  19.068  0.00  0.00    +0.000 N 
ATOM     27  H   UNL     1       2.056  13.249  18.102  0.00  0.00    +0.000 HD
BRANCH  26  28
ATOM     28  C   UNL     1       3.462  14.288  19.336  0.00  0.00    +0.000 C 
ATOM     29  C   UNL     1       4.283  14.604  18.078  0.00  0.00    +0.000 C 
ATOM     30  C   UNL     1       3.595  15.580  17.122  0.00  0.00    +0.000 C 
ATOM     31  C   UNL     1       3.107  16.837  17.834  0.00  0.00    +0.000 C 
ATOM     32  C   UNL     1       2.212  16.492  19.018  0.00  0.00    +0.000 C 
ATOM     33  C   UNL     1       2.928  15.565  20.000  0.00  0.00    +0.000 C 
ENDBRANCH  26  28
ENDBRANCH   8  24
BRANCH   6  34
ATOM     34  N   UNL     1      -0.216  11.512  22.525  0.00  0.00    +0.000 NA
ATOM     35  H   UNL     1      -0.385  12.480  22.810  0.00  0.00    +0.000 HD
ATOM     36  H   UNL     1       0.786  11.424  22.375  0.00  0.00    +0.000 HD
ENDBRANCH   6  34
TORSDOF 4
ENDMDL
MODEL 6
REMARK VINA RESULT:      -7.5      2.515      7.898
REMARK  Name = 
REMARK  4 active torsions:
REMARK  status: ('A' for Active; 'I' for Inactive)
REMARK    1  A    between atoms: C_6  and  N_7
REMARK    2  A    between atoms: C_12  and  N_13
REMARK    3  A    between atoms: C_15  and  C_16
REMARK    4  A    between atoms: N_18  and  C_19
REMARK                            x       y       z     vdW  Elec       q    Type
REMARK                         _______ _______ _______ _____ _____    ______ ____
ROOT
ATOM      1  N   UNL     1       1.602   7.690  20.003  0.00  0.00    +0.000 N 
ATOM      2  C   UNL     1       1.376   8.719  19.125  0.00  0.00    +0.000 C 
ATOM      3  O   UNL     1       1.742   8.718  17.951  0.00  0.00    +0.000 OA
ATOM      4  N   UNL     1       0.756   9.833  19.646  0.00  0.00    +0.000 N 
ATOM      5  C   UNL     1       0.060   9.944  20.920  0.00  0.00    +0.000 C 
ATOM      6  C   UNL     1      -0.305  11.431  21.053  0.00  0.00    +0.000 C 
ATOM      7  C   UNL     1      -0.531  11.831  19.592  0.00  0.00    +0.000 C 
ATOM      8  C   UNL     1       0.509  11.019  18.808  0.00  0.00    +0.000 C 
ATOM      9  H   UNL     1       1.052   7.631  20.844  0.00  0.00    +0.000 HD
ENDROOT
BRANCH   1  15
ATOM     10  N   UNL     1       5.979   6.001  17.669  0.00  0.00    +0.000 N 
ATOM     11  C   UNL     1       5.572   5.137  18.648  0.00  0.00    +0.000 C 
ATOM     12  O   UNL     1       6.195   4.159  19.024  0.00  0.00    +0.000 OA
ATOM     13  N   UNL     1       4.289   5.445  19.144  0.00  0.00    +0.000 N 
ATOM     14  C   UNL     1       3.721   6.706  19.208  0.00  0.00    +0.000 A 
ATOM     15  C   UNL     1       2.462   6.626  19.750  0.00  0.00    +0.000 A 
ATOM     16  C   UNL     1       2.219   5.249  20.032  0.00  0.00    +0.000 A 
ATOM     17  C   UNL     1       1.119   4.531  20.551  0.00  0.00    +0.000 A 
ATOM     18  C   UNL     1       1.173   3.136  20.640  0.00  0.00    +0.000 A 
ATOM     19  C   UNL     1       2.314   2.448  20.236  0.00  0.00    +0.000 A 
ATOM     20  C   UNL     1       3.428   3.133  19.753  0.00  0.00    +0.000 A 
ATOM     21  C   UNL     1       3.364   4.536  19.657  0.00  0.00    +0.000 A 
ATOM     22  H   UNL     1       6.815   5.728  17.166  0.00  0.00    +0.000 HD
ATOM     23  H   UNL     1       5.302   6.551  17.153  0.00  0.00    +0.000 HD
ENDBRANCH   1  15
BRANCH   8  24
ATOM     24  C   UNL     1       1.807  11.826  18.512  0.00  0.00    +0.000 C 
ATOM     25  O   UNL     1       2.735  11.386  17.840  0.00  0.00    +0.000 OA
ATOM     26  N   UNL     1       1.855  13.057  19.129  0.00  0.00    +0.000 N 
ATOM     27  H   UNL     1       0.990  13.392  19.554  0.00  0.00    +0.000 HD
BRANCH  26  28
ATOM     28  C   UNL     1       3.013  13.940  19.119  0.00  0.00    +0.000 C 
ATOM     29  C   UNL     1       2.890  15.058  18.075  0.00  0.00    +0.000 C 
ATOM     30  C   UNL     1       1.931  16.179  18.481  0.00  0.00    +0.000 C 
ATOM     31  C   UNL     1       2.228  16.712  19.879  0.00  0.00    +0.000 C 
ATOM     32  C   UNL     1       2.242  15.590  20.909  0.00  0.00    +0.000 C 
ATOM     33  C   UNL     1       3.246  14.503  20.527  0.00  0.00    +0.000 C 
ENDBRANCH  26  28
ENDBRANCH   8  24
BRANCH   6  34
ATOM     34  N   UNL     1       0.748  12.230  21.678  0.00  0.00    +0.000 NA
ATOM     35  H   UNL     1       0.549  12.396  22.668  0.00  0.00    +0.000 HD
ATOM     36  H   UNL     1       0.828  13.145  21.241  0.00  0.00    +0.000 HD
ENDBRANCH   6  34
TORSDOF 4
ENDMDL
MODEL 7
REMARK VINA RESULT:      -7.4      2.929      8.026
REMARK  Name = 
REMARK  4 active torsions:
REMARK  status: ('A' for Active; 'I' for Inactive)
REMARK    1  A    between atoms: C_6  and  N_7
REMARK    2  A    between atoms: C_12  and  N_13
REMARK    3  A    between atoms: C_15  and  C_16
REMARK    4  A    between atoms: N_18  and  C_19
REMARK                            x       y       z     vdW  Elec       q    Type
REMARK                         _______ _______ _______ _____ _____    ______ ____
ROOT
ATOM      1  N   UNL     1       1.692   8.100  18.826  0.00  0.00    +0.000 N 
ATOM      2  C   UNL     1       1.598   9.443  18.559  0.00  0.00    +0.000 C 
ATOM      3  O   UNL     1       2.269  10.028  17.712  0.00  0.00    +0.000 OA
ATOM      4  N   UNL     1       0.732  10.157  19.358  0.00  0.00    +0.000 N 
ATOM      5  C   UNL     1      -0.296   9.629  20.243  0.00  0.00    +0.000 C 
ATOM      6  C   UNL     1      -0.855  10.851  20.988  0.00  0.00    +0.000 C 
ATOM      7  C   UNL     1      -0.715  11.953  19.934  0.00  0.00    +0.000 C 
ATOM      8  C   UNL     1       0.588  11.614  19.197  0.00  0.00    +0.000 C 
ATOM      9  H   UNL     1       0.943   7.642  19.317  0.00  0.00    +0.000 HD
ENDROOT
BRANCH   1  15
ATOM     10  N   UNL     1       6.523   7.758  16.825  0.00  0.00    +0.000 N 
ATOM     11  C   UNL     1       6.102   6.554  17.316  0.00  0.00    +0.000 C 
ATOM     12  O   UNL     1       6.788   5.549  17.395  0.00  0.00    +0.000 OA
ATOM     13  N   UNL     1       4.734   6.556  17.660  0.00  0.00    +0.000 N 
ATOM     14  C   UNL     1       4.007   7.650  18.098  0.00  0.00    +0.000 A 
ATOM     15  C   UNL     1       2.707   7.281  18.341  0.00  0.00    +0.000 A 
ATOM     16  C   UNL     1       2.606   5.891  18.032  0.00  0.00    +0.000 A 
ATOM     17  C   UNL     1       1.546   4.958  18.039  0.00  0.00    +0.000 A 
ATOM     18  C   UNL     1       1.766   3.648  17.600  0.00  0.00    +0.000 A 
ATOM     19  C   UNL     1       3.029   3.251  17.170  0.00  0.00    +0.000 A 
ATOM     20  C   UNL     1       4.102   4.142  17.186  0.00  0.00    +0.000 A 
ATOM     21  C   UNL     1       3.872   5.461  17.620  0.00  0.00    +0.000 A 
ATOM     22  H   UNL     1       7.447   7.761  16.410  0.00  0.00    +0.000 HD
ATOM     23  H   UNL     1       5.858   8.423  16.448  0.00  0.00    +0.000 HD
ENDBRANCH   1  15
BRANCH   8  24
ATOM     24  C   UNL     1       1.813  12.403  19.743  0.00  0.00    +0.000 C 
ATOM     25  O   UNL     1       2.204  12.322  20.904  0.00  0.00    +0.000 OA
ATOM     26  N   UNL     1       2.384  13.258  18.826  0.00  0.00    +0.000 N 
ATOM     27  H   UNL     1       2.080  13.162  17.856  0.00  0.00    +0.000 HD
BRANCH  26  28
ATOM     28  C   UNL     1       3.451  14.201  19.130  0.00  0.00    +0.000 C 
ATOM     29  C   UNL     1       4.207  14.658  17.874  0.00  0.00    +0.000 C 
ATOM     30  C   UNL     1       3.436  15.671  17.025  0.00  0.00    +0.000 C 
ATOM     31  C   UNL     1       2.917  16.841  17.855  0.00  0.00    +0.000 C 
ATOM     32  C   UNL     1       2.085  16.357  19.036  0.00  0.00    +0.000 C 
ATOM     33  C   UNL     1       2.882  15.392  19.913  0.00  0.00    +0.000 C 
ENDBRANCH  26  28
ENDBRANCH   8  24
BRANCH   6  34
ATOM     34  N   UNL     1      -0.115  11.172  22.208  0.00  0.00    +0.000 NA
ATOM     35  H   UNL     1       0.835  10.792  22.177  0.00  0.00    +0.000 HD
ATOM     36  H   UNL     1      -0.561  10.769  23.030  0.00  0.00    +0.000 HD
ENDBRANCH   6  34
TORSDOF 4
ENDMDL
MODEL 8
REMARK VINA RESULT:      -7.4      5.572     11.060
REMARK  Name = 
REMARK  4 active torsions:
REMARK  status: ('A' for Active; 'I' for Inactive)
REMARK    1  A    between atoms: C_6  and  N_7
REMARK    2  A    between atoms: C_12  and  N_13
REMARK    3  A    between atoms: C_15  and  C_16
REMARK    4  A    between atoms: N_18  and  C_19
REMARK                            x       y       z     vdW  Elec       q    Type
REMARK                         _______ _______ _______ _____ _____    ______ ____
ROOT
ATOM      1  N   UNL     1      -1.564  13.264  20.821  0.00  0.00    +0.000 N 
ATOM      2  C   UNL     1      -2.092  12.939  22.044  0.00  0.00    +0.000 C 
ATOM      3  O   UNL     1      -2.110  11.800  22.509  0.00  0.00    +0.000 OA
ATOM      4  N   UNL     1      -2.689  13.969  22.737  0.00  0.00    +0.000 N 
ATOM      5  C   UNL     1      -2.578  15.396  22.472  0.00  0.00    +0.000 C 
ATOM      6  C   UNL     1      -3.554  16.067  23.450  0.00  0.00    +0.000 C 
ATOM      7  C   UNL     1      -3.490  15.123  24.655  0.00  0.00    +0.000 C 
ATOM      8  C   UNL     1      -3.335  13.726  24.038  0.00  0.00    +0.000 C 
ATOM      9  H   UNL     1      -1.333  14.223  20.624  0.00  0.00    +0.000 HD
ENDROOT
BRANCH   1  15
ATOM     10  N   UNL     1       2.309  11.024  18.092  0.00  0.00    +0.000 N 
ATOM     11  C   UNL     1       1.174  10.262  18.063  0.00  0.00    +0.000 C 
ATOM     12  O   UNL     1       1.089   9.149  17.572  0.00  0.00    +0.000 OA
ATOM     13  N   UNL     1       0.055  10.933  18.598  0.00  0.00    +0.000 N 
ATOM     14  C   UNL     1       0.082  11.898  19.590  0.00  0.00    +0.000 A 
ATOM     15  C   UNL     1      -1.193  12.328  19.861  0.00  0.00    +0.000 A 
ATOM     16  C   UNL     1      -2.066  11.608  18.991  0.00  0.00    +0.000 A 
ATOM     17  C   UNL     1      -3.460  11.626  18.763  0.00  0.00    +0.000 A 
ATOM     18  C   UNL     1      -4.014  10.824  17.759  0.00  0.00    +0.000 A 
ATOM     19  C   UNL     1      -3.202   9.993  16.992  0.00  0.00    +0.000 A 
ATOM     20  C   UNL     1      -1.828   9.929  17.219  0.00  0.00    +0.000 A 
ATOM     21  C   UNL     1      -1.275  10.745  18.224  0.00  0.00    +0.000 A 
ATOM     22  H   UNL     1       3.096  10.655  17.572  0.00  0.00    +0.000 HD
ATOM     23  H   UNL     1       2.251  12.033  18.167  0.00  0.00    +0.000 HD
ENDBRANCH   1  15
BRANCH   8  24
ATOM     24  C   UNL     1      -4.690  12.972  23.905  0.00  0.00    +0.000 C 
ATOM     25  O   UNL     1      -5.051  12.092  24.681  0.00  0.00    +0.000 OA
ATOM     26  N   UNL     1      -5.425  13.330  22.795  0.00  0.00    +0.000 N 
ATOM     27  H   UNL     1      -5.113  14.157  22.285  0.00  0.00    +0.000 HD
BRANCH  26  28
ATOM     28  C   UNL     1      -6.656  12.677  22.375  0.00  0.00    +0.000 C 
ATOM     29  C   UNL     1      -7.868  13.617  22.429  0.00  0.00    +0.000 C 
ATOM     30  C   UNL     1      -7.913  14.631  21.284  0.00  0.00    +0.000 C 
ATOM     31  C   UNL     1      -7.747  13.967  19.920  0.00  0.00    +0.000 C 
ATOM     32  C   UNL     1      -6.481  13.122  19.866  0.00  0.00    +0.000 C 
ATOM     33  C   UNL     1      -6.470  12.072  20.977  0.00  0.00    +0.000 C 
ENDBRANCH  26  28
ENDBRANCH   8  24
BRANCH   6  34
ATOM     34  N   UNL     1      -4.913  16.181  22.922  0.00  0.00    +0.000 NA
ATOM     35  H   UNL     1      -4.907  16.404  21.923  0.00  0.00    +0.000 HD
ATOM     36  H   UNL     1      -5.429  16.927  23.383  0.00  0.00    +0.000 HD
ENDBRANCH   6  34
TORSDOF 4
ENDMDL
MODEL 9
REMARK VINA RESULT:      -7.3      2.839      8.163
REMARK  Name = 
REMARK  4 active torsions:
REMARK  status: ('A' for Active; 'I' for Inactive)
REMARK    1  A    between atoms: C_6  and  N_7
REMARK    2  A    between atoms: C_12  and  N_13
REMARK    3  A    between atoms: C_15  and  C_16
REMARK    4  A    between atoms: N_18  and  C_19
REMARK                            x       y       z     vdW  Elec       q    Type
REMARK                         _______ _______ _______ _____ _____    ______ ____
ROOT
ATOM      1  N   UNL     1       1.737   8.157  19.345  0.00  0.00    +0.000 N 
ATOM      2  C   UNL     1       1.470   9.294  18.626  0.00  0.00    +0.000 C 
ATOM      3  O   UNL     1       1.791   9.460  17.450  0.00  0.00    +0.000 OA
ATOM      4  N   UNL     1       0.860  10.317  19.318  0.00  0.00    +0.000 N 
ATOM      5  C   UNL     1       0.210  10.242  20.619  0.00  0.00    +0.000 C 
ATOM      6  C   UNL     1      -0.162  11.691  20.970  0.00  0.00    +0.000 C 
ATOM      7  C   UNL     1      -0.445  12.286  19.587  0.00  0.00    +0.000 C 
ATOM      8  C   UNL     1       0.572  11.604  18.662  0.00  0.00    +0.000 C 
ATOM      9  H   UNL     1       1.220   7.975  20.188  0.00  0.00    +0.000 HD
ENDROOT
BRANCH   1  15
ATOM     10  N   UNL     1       5.196   6.523  15.764  0.00  0.00    +0.000 N 
ATOM     11  C   UNL     1       5.293   5.796  16.918  0.00  0.00    +0.000 C 
ATOM     12  O   UNL     1       6.144   4.953  17.147  0.00  0.00    +0.000 OA
ATOM     13  N   UNL     1       4.239   6.060  17.816  0.00  0.00    +0.000 N 
ATOM     14  C   UNL     1       3.555   7.257  17.939  0.00  0.00    +0.000 A 
ATOM     15  C   UNL     1       2.596   7.150  18.916  0.00  0.00    +0.000 A 
ATOM     16  C   UNL     1       2.671   5.820  19.427  0.00  0.00    +0.000 A 
ATOM     17  C   UNL     1       1.943   5.097  20.398  0.00  0.00    +0.000 A 
ATOM     18  C   UNL     1       2.227   3.746  20.622  0.00  0.00    +0.000 A 
ATOM     19  C   UNL     1       3.238   3.110  19.907  0.00  0.00    +0.000 A 
ATOM     20  C   UNL     1       3.996   3.808  18.967  0.00  0.00    +0.000 A 
ATOM     21  C   UNL     1       3.699   5.165  18.739  0.00  0.00    +0.000 A 
ATOM     22  H   UNL     1       5.829   6.251  15.022  0.00  0.00    +0.000 HD
ATOM     23  H   UNL     1       4.309   6.918  15.477  0.00  0.00    +0.000 HD
ENDBRANCH   1  15
BRANCH   8  24
ATOM     24  C   UNL     1       1.850  12.461  18.434  0.00  0.00    +0.000 C 
ATOM     25  O   UNL     1       2.855  12.037  17.869  0.00  0.00    +0.000 OA
ATOM     26  N   UNL     1       1.785  13.724  18.983  0.00  0.00    +0.000 N 
ATOM     27  H   UNL     1       0.870  14.034  19.313  0.00  0.00    +0.000 HD
BRANCH  26  28
ATOM     28  C   UNL     1       2.895  14.664  19.024  0.00  0.00    +0.000 C 
ATOM     29  C   UNL     1       2.751  15.789  17.989  0.00  0.00    +0.000 C 
ATOM     30  C   UNL     1       1.722  16.853  18.375  0.00  0.00    +0.000 C 
ATOM     31  C   UNL     1       1.944  17.383  19.788  0.00  0.00    +0.000 C 
ATOM     32  C   UNL     1       1.980  16.249  20.805  0.00  0.00    +0.000 C 
ATOM     33  C   UNL     1       3.051  15.219  20.446  0.00  0.00    +0.000 C 
ENDBRANCH  26  28
ENDBRANCH   8  24
BRANCH   6  34
ATOM     34  N   UNL     1       0.907  12.410  21.661  0.00  0.00    +0.000 NA
ATOM     35  H   UNL     1       1.466  12.964  21.006  0.00  0.00    +0.000 HD
ATOM     36  H   UNL     1       1.550  11.769  22.121  0.00  0.00    +0.000 HD
ENDBRANCH   6  34
TORSDOF 4
ENDMDL
