MODEL 1
REMARK VINA RESULT:      -7.1      0.000      0.000
REMARK  Name = 
REMARK  4 active torsions:
REMARK  status: ('A' for Active; 'I' for Inactive)
REMARK    1  A    between atoms: C_2  and  C_3
REMARK    2  A    between atoms: C_3  and  N_4
REMARK    3  A    between atoms: N_4  and  C_5
REMARK    4  A    between atoms: N_14  and  C_15
REMARK                            x       y       z     vdW  Elec       q    Type
REMARK                         _______ _______ _______ _____ _____    ______ ____
ROOT
ATOM      1  C   UNL     1       4.369   5.194  17.551  0.00  0.00    +0.000 A 
ATOM      2  N   UNL     1       4.776   3.913  17.744  0.00  0.00    +0.000 NA
ATOM      3  C   UNL     1       4.392   3.247  18.838  0.00  0.00    +0.000 A 
ATOM      4  N   UNL     1       3.594   3.682  19.806  0.00  0.00    +0.000 NA
ATOM      5  C   UNL     1       3.167   4.935  19.592  0.00  0.00    +0.000 A 
ATOM      6  S   UNL     1       2.123   5.646  20.739  0.00  0.00    +0.000 S 
ATOM      7  C   UNL     1       2.040   7.070  19.841  0.00  0.00    +0.000 A 
ATOM      8  C   UNL     1       1.234   8.194  20.245  0.00  0.00    +0.000 A 
ATOM      9  O   UNL     1       0.600   8.245  21.288  0.00  0.00    +0.000 OA
ATOM     10  N   UNL     1       1.287   9.228  19.303  0.00  0.00    +0.000 N 
ATOM     11  C   UNL     1       2.061   9.108  18.152  0.00  0.00    +0.000 A 
ATOM     12  N   UNL     1       2.790   8.092  17.780  0.00  0.00    +0.000 NA
ATOM     13  C   UNL     1       2.782   7.013  18.688  0.00  0.00    +0.000 A 
ATOM     14  C   UNL     1       3.483   5.762  18.514  0.00  0.00    +0.000 A 
ENDROOT
BRANCH  10  15
ATOM     15  C   UNL     1       0.567  10.429  19.557  0.00  0.00    +0.000 A 
ATOM     16  C   UNL     1      -0.729  10.590  19.047  0.00  0.00    +0.000 A 
ATOM     17  C   UNL     1      -1.455  11.754  19.318  0.00  0.00    +0.000 A 
ATOM     18  C   UNL     1      -0.873  12.777  20.064  0.00  0.00    +0.000 A 
ATOM     19 CL   UNL     1      -1.768  14.208  20.396  0.00  0.00    +0.000 Cl
ATOM     20  C   UNL     1       0.431  12.647  20.538  0.00  0.00    +0.000 A 
ATOM     21  C   UNL     1       1.147  11.469  20.297  0.00  0.00    +0.000 A 
ENDBRANCH  10  15
BRANCH   1  22
ATOM     22  N   UNL     1       4.889   5.875  16.449  0.00  0.00    +0.000 N 
ATOM     23  H   UNL     1       4.288   5.817  15.632  0.00  0.00    +0.000 HD
BRANCH  22  24
ATOM     24  C   UNL     1       6.323   5.704  16.186  0.00  0.00    +0.000 C 
BRANCH  24  26
ATOM     25  C   UNL     1       7.725   7.496  17.859  0.00  0.00    +0.000 C 
ATOM     26  C   UNL     1       7.077   6.668  17.087  0.00  0.00    +0.000 C 
ENDBRANCH  24  26
ENDBRANCH  22  24
ENDBRANCH   1  22
TORSDOF 4
ENDMDL
MODEL 2
REMARK VINA RESULT:      -7.0      3.482      7.715
REMARK  Name = 
REMARK  4 active torsions:
REMARK  status: ('A' for Active; 'I' for Inactive)
REMARK    1  A    between atoms: C_2  and  C_3
REMARK    2  A    between atoms: C_3  and  N_4
REMARK    3  A    between atoms: N_4  and  C_5
REMARK    4  A    between atoms: N_14  and  C_15
REMARK                            x       y       z     vdW  Elec       q    Type
REMARK                         _______ _______ _______ _____ _____    ______ ____
ROOT
ATOM      1  C   UNL     1      -0.496  11.625  20.200  0.00  0.00    +0.000 A 
ATOM      2  N   UNL     1      -1.117  12.205  21.260  0.00  0.00    +0.000 NA
ATOM      3  C   UNL     1      -1.131  11.588  22.447  0.00  0.00    +0.000 A 
ATOM      4  N   UNL     1      -0.561  10.431  22.758  0.00  0.00    +0.000 NA
ATOM      5  C   UNL     1       0.081   9.880  21.717  0.00  0.00    +0.000 A 
ATOM      6  S   UNL     1       0.878   8.390  21.949  0.00  0.00    +0.000 S 
ATOM      7  C   UNL     1       1.395   8.371  20.344  0.00  0.00    +0.000 A 
ATOM      8  C   UNL     1       2.218   7.317  19.809  0.00  0.00    +0.000 A 
ATOM      9  O   UNL     1       2.558   6.324  20.435  0.00  0.00    +0.000 OA
ATOM     10  N   UNL     1       2.561   7.562  18.474  0.00  0.00    +0.000 N 
ATOM     11  C   UNL     1       2.105   8.701  17.816  0.00  0.00    +0.000 A 
ATOM     12  N   UNL     1       1.363   9.660  18.297  0.00  0.00    +0.000 NA
ATOM     13  C   UNL     1       0.980   9.473  19.641  0.00  0.00    +0.000 A 
ATOM     14  C   UNL     1       0.178  10.387  20.422  0.00  0.00    +0.000 A 
ENDROOT
BRANCH  10  15
ATOM     15  C   UNL     1       3.352   6.604  17.779  0.00  0.00    +0.000 A 
ATOM     16  C   UNL     1       4.496   7.015  17.080  0.00  0.00    +0.000 A 
ATOM     17  C   UNL     1       5.297   6.077  16.420  0.00  0.00    +0.000 A 
ATOM     18  C   UNL     1       4.933   4.732  16.422  0.00  0.00    +0.000 A 
ATOM     19 CL   UNL     1       5.920   3.580  15.611  0.00  0.00    +0.000 Cl
ATOM     20  C   UNL     1       3.775   4.318  17.076  0.00  0.00    +0.000 A 
ATOM     21  C   UNL     1       2.991   5.249  17.765  0.00  0.00    +0.000 A 
ENDBRANCH  10  15
BRANCH   1  22
ATOM     22  N   UNL     1      -0.608  12.261  18.963  0.00  0.00    +0.000 N 
ATOM     23  H   UNL     1      -0.155  13.170  18.947  0.00  0.00    +0.000 HD
BRANCH  22  24
ATOM     24  C   UNL     1      -1.920  12.201  18.308  0.00  0.00    +0.000 C 
BRANCH  24  26
ATOM     25  C   UNL     1      -2.051   9.778  16.863  0.00  0.00    +0.000 C 
ATOM     26  C   UNL     1      -1.991  10.897  17.530  0.00  0.00    +0.000 C 
ENDBRANCH  24  26
ENDBRANCH  22  24
ENDBRANCH   1  22
TORSDOF 4
ENDMDL
MODEL 3
REMARK VINA RESULT:      -7.0      0.732      1.325
REMARK  Name = 
REMARK  4 active torsions:
REMARK  status: ('A' for Active; 'I' for Inactive)
REMARK    1  A    between atoms: C_2  and  C_3
REMARK    2  A    between atoms: C_3  and  N_4
REMARK    3  A    between atoms: N_4  and  C_5
REMARK    4  A    between atoms: N_14  and  C_15
REMARK                            x       y       z     vdW  Elec       q    Type
REMARK                         _______ _______ _______ _____ _____    ______ ____
ROOT
ATOM      1  C   UNL     1       4.326   5.143  17.492  0.00  0.00    +0.000 A 
ATOM      2  N   UNL     1       4.732   3.863  17.697  0.00  0.00    +0.000 NA
ATOM      3  C   UNL     1       4.375   3.218  18.814  0.00  0.00    +0.000 A 
ATOM      4  N   UNL     1       3.606   3.675  19.794  0.00  0.00    +0.000 NA
ATOM      5  C   UNL     1       3.179   4.927  19.570  0.00  0.00    +0.000 A 
ATOM      6  S   UNL     1       2.170   5.663  20.731  0.00  0.00    +0.000 S 
ATOM      7  C   UNL     1       2.069   7.071  19.810  0.00  0.00    +0.000 A 
ATOM      8  C   UNL     1       1.279   8.206  20.215  0.00  0.00    +0.000 A 
ATOM      9  O   UNL     1       0.674   8.280  21.274  0.00  0.00    +0.000 OA
ATOM     10  N   UNL     1       1.312   9.223  19.254  0.00  0.00    +0.000 N 
ATOM     11  C   UNL     1       2.054   9.079  18.085  0.00  0.00    +0.000 A 
ATOM     12  N   UNL     1       2.767   8.052  17.711  0.00  0.00    +0.000 NA
ATOM     13  C   UNL     1       2.779   6.990  18.639  0.00  0.00    +0.000 A 
ATOM     14  C   UNL     1       3.470   5.732  18.469  0.00  0.00    +0.000 A 
ENDROOT
BRANCH  10  15
ATOM     15  C   UNL     1       0.605  10.432  19.505  0.00  0.00    +0.000 A 
ATOM     16  C   UNL     1      -0.697  10.599  19.012  0.00  0.00    +0.000 A 
ATOM     17  C   UNL     1      -1.411  11.771  19.281  0.00  0.00    +0.000 A 
ATOM     18  C   UNL     1      -0.810  12.797  20.008  0.00  0.00    +0.000 A 
ATOM     19 CL   UNL     1      -1.690  14.237  20.338  0.00  0.00    +0.000 Cl
ATOM     20  C   UNL     1       0.499  12.661  20.466  0.00  0.00    +0.000 A 
ATOM     21  C   UNL     1       1.202  11.475  20.227  0.00  0.00    +0.000 A 
ENDBRANCH  10  15
BRANCH   1  22
ATOM     22  N   UNL     1       4.820   5.801  16.365  0.00  0.00    +0.000 N 
ATOM     23  H   UNL     1       4.151   5.825  15.601  0.00  0.00    +0.000 HD
BRANCH  22  24
ATOM     24  C   UNL     1       6.203   5.500  15.979  0.00  0.00    +0.000 C 
BRANCH  24  26
ATOM     25  C   UNL     1       6.119   3.923  13.637  0.00  0.00    +0.000 C 
ATOM     26  C   UNL     1       6.158   4.651  14.719  0.00  0.00    +0.000 C 
ENDBRANCH  24  26
ENDBRANCH  22  24
ENDBRANCH   1  22
TORSDOF 4
ENDMDL
MODEL 4
REMARK VINA RESULT:      -6.9      3.516      7.625
REMARK  Name = 
REMARK  4 active torsions:
REMARK  status: ('A' for Active; 'I' for Inactive)
REMARK    1  A    between atoms: C_2  and  C_3
REMARK    2  A    between atoms: C_3  and  N_4
REMARK    3  A    between atoms: N_4  and  C_5
REMARK    4  A    between atoms: N_14  and  C_15
REMARK                            x       y       z     vdW  Elec       q    Type
REMARK                         _______ _______ _______ _____ _____    ______ ____
ROOT
ATOM      1  C   UNL     1      -0.767  12.127  20.254  0.00  0.00    +0.000 A 
ATOM      2  N   UNL     1      -1.305  12.825  21.287  0.00  0.00    +0.000 NA
ATOM      3  C   UNL     1      -1.238  12.337  22.531  0.00  0.00    +0.000 A 
ATOM      4  N   UNL     1      -0.656  11.210  22.922  0.00  0.00    +0.000 NA
ATOM      5  C   UNL     1      -0.097  10.542  21.902  0.00  0.00    +0.000 A 
ATOM      6  S   UNL     1       0.703   9.072  22.232  0.00  0.00    +0.000 S 
ATOM      7  C   UNL     1       1.101   8.876  20.606  0.00  0.00    +0.000 A 
ATOM      8  C   UNL     1       1.874   7.758  20.128  0.00  0.00    +0.000 A 
ATOM      9  O   UNL     1       2.250   6.832  20.830  0.00  0.00    +0.000 OA
ATOM     10  N   UNL     1       2.120   7.856  18.753  0.00  0.00    +0.000 N 
ATOM     11  C   UNL     1       1.628   8.927  18.013  0.00  0.00    +0.000 A 
ATOM     12  N   UNL     1       0.931   9.943  18.441  0.00  0.00    +0.000 NA
ATOM     13  C   UNL     1       0.646   9.905  19.821  0.00  0.00    +0.000 A 
ATOM     14  C   UNL     1      -0.090  10.909  20.556  0.00  0.00    +0.000 A 
ENDROOT
BRANCH  10  15
ATOM     15  C   UNL     1       2.851   6.818  18.109  0.00  0.00    +0.000 A 
ATOM     16  C   UNL     1       4.046   7.114  17.438  0.00  0.00    +0.000 A 
ATOM     17  C   UNL     1       4.786   6.096  16.829  0.00  0.00    +0.000 A 
ATOM     18  C   UNL     1       4.313   4.786  16.853  0.00  0.00    +0.000 A 
ATOM     19 CL   UNL     1       5.225   3.535  16.103  0.00  0.00    +0.000 Cl
ATOM     20  C   UNL     1       3.104   4.486  17.478  0.00  0.00    +0.000 A 
ATOM     21  C   UNL     1       2.379   5.497  18.117  0.00  0.00    +0.000 A 
ENDBRANCH  10  15
BRANCH   1  22
ATOM     22  N   UNL     1      -0.964  12.631  18.967  0.00  0.00    +0.000 N 
ATOM     23  H   UNL     1      -0.935  11.907  18.254  0.00  0.00    +0.000 HD
BRANCH  22  24
ATOM     24  C   UNL     1      -0.256  13.872  18.630  0.00  0.00    +0.000 C 
BRANCH  24  26
ATOM     25  C   UNL     1       2.473  13.238  18.281  0.00  0.00    +0.000 C 
ATOM     26  C   UNL     1       1.213  13.531  18.442  0.00  0.00    +0.000 C 
ENDBRANCH  24  26
ENDBRANCH  22  24
ENDBRANCH   1  22
TORSDOF 4
ENDMDL
MODEL 5
REMARK VINA RESULT:      -6.9      1.960      3.672
REMARK  Name = 
REMARK  4 active torsions:
REMARK  status: ('A' for Active; 'I' for Inactive)
REMARK    1  A    between atoms: C_2  and  C_3
REMARK    2  A    between atoms: C_3  and  N_4
REMARK    3  A    between atoms: N_4  and  C_5
REMARK    4  A    between atoms: N_14  and  C_15
REMARK                            x       y       z     vdW  Elec       q    Type
REMARK                         _______ _______ _______ _____ _____    ______ ____
ROOT
ATOM      1  C   UNL     1       3.128   4.501  20.201  0.00  0.00    +0.000 A 
ATOM      2  N   UNL     1       3.961   3.564  19.678  0.00  0.00    +0.000 NA
ATOM      3  C   UNL     1       4.564   3.784  18.505  0.00  0.00    +0.000 A 
ATOM      4  N   UNL     1       4.479   4.872  17.749  0.00  0.00    +0.000 NA
ATOM      5  C   UNL     1       3.683   5.808  18.287  0.00  0.00    +0.000 A 
ATOM      6  S   UNL     1       3.471   7.277  17.447  0.00  0.00    +0.000 S 
ATOM      7  C   UNL     1       2.450   7.866  18.651  0.00  0.00    +0.000 A 
ATOM      8  C   UNL     1       1.873   9.185  18.600  0.00  0.00    +0.000 A 
ATOM      9  O   UNL     1       2.012   9.961  17.667  0.00  0.00    +0.000 OA
ATOM     10  N   UNL     1       1.113   9.458  19.744  0.00  0.00    +0.000 N 
ATOM     11  C   UNL     1       0.972   8.508  20.751  0.00  0.00    +0.000 A 
ATOM     12  N   UNL     1       1.495   7.314  20.805  0.00  0.00    +0.000 NA
ATOM     13  C   UNL     1       2.273   6.975  19.679  0.00  0.00    +0.000 A 
ATOM     14  C   UNL     1       2.979   5.728  19.488  0.00  0.00    +0.000 A 
ENDROOT
BRANCH  10  15
ATOM     15  C   UNL     1       0.448  10.711  19.847  0.00  0.00    +0.000 A 
ATOM     16  C   UNL     1       1.078  11.790  20.483  0.00  0.00    +0.000 A 
ATOM     17  C   UNL     1       0.444  13.034  20.562  0.00  0.00    +0.000 A 
ATOM     18  C   UNL     1      -0.838  13.192  20.041  0.00  0.00    +0.000 A 
ATOM     19 CL   UNL     1      -1.615  14.724  20.138  0.00  0.00    +0.000 Cl
ATOM     20  C   UNL     1      -1.493  12.117  19.445  0.00  0.00    +0.000 A 
ATOM     21  C   UNL     1      -0.847  10.880  19.335  0.00  0.00    +0.000 A 
ENDBRANCH  10  15
BRANCH   1  22
ATOM     22  N   UNL     1       2.442   4.171  21.371  0.00  0.00    +0.000 N 
ATOM     23  H   UNL     1       2.971   4.389  22.210  0.00  0.00    +0.000 HD
BRANCH  22  24
ATOM     24  C   UNL     1       1.747   2.879  21.385  0.00  0.00    +0.000 C 
BRANCH  24  26
ATOM     25  C   UNL     1       0.508   2.541  18.869  0.00  0.00    +0.000 C 
ATOM     26  C   UNL     1       1.080   2.697  20.031  0.00  0.00    +0.000 C 
ENDBRANCH  24  26
ENDBRANCH  22  24
ENDBRANCH   1  22
TORSDOF 4
ENDMDL
MODEL 6
REMARK VINA RESULT:      -6.9      3.675      7.993
REMARK  Name = 
REMARK  4 active torsions:
REMARK  status: ('A' for Active; 'I' for Inactive)
REMARK    1  A    between atoms: C_2  and  C_3
REMARK    2  A    between atoms: C_3  and  N_4
REMARK    3  A    between atoms: N_4  and  C_5
REMARK    4  A    between atoms: N_14  and  C_15
REMARK                            x       y       z     vdW  Elec       q    Type
REMARK                         _______ _______ _______ _____ _____    ______ ____
ROOT
ATOM      1  C   UNL     1      -1.850  12.106  19.364  0.00  0.00    +0.000 A 
ATOM      2  N   UNL     1      -2.469  12.909  20.267  0.00  0.00    +0.000 NA
ATOM      3  C   UNL     1      -2.259  12.729  21.576  0.00  0.00    +0.000 A 
ATOM      4  N   UNL     1      -1.457  11.839  22.147  0.00  0.00    +0.000 NA
ATOM      5  C   UNL     1      -0.822  11.072  21.248  0.00  0.00    +0.000 A 
ATOM      6  S   UNL     1       0.257   9.879  21.814  0.00  0.00    +0.000 S 
ATOM      7  C   UNL     1       0.619   9.400  20.239  0.00  0.00    +0.000 A 
ATOM      8  C   UNL     1       1.572   8.360  19.944  0.00  0.00    +0.000 A 
ATOM      9  O   UNL     1       2.146   7.695  20.793  0.00  0.00    +0.000 OA
ATOM     10  N   UNL     1       1.739   8.193  18.565  0.00  0.00    +0.000 N 
ATOM     11  C   UNL     1       1.021   8.967  17.658  0.00  0.00    +0.000 A 
ATOM     12  N   UNL     1       0.160   9.913  17.919  0.00  0.00    +0.000 NA
ATOM     13  C   UNL     1      -0.056  10.132  19.295  0.00  0.00    +0.000 A 
ATOM     14  C   UNL     1      -0.940  11.126  19.859  0.00  0.00    +0.000 A 
ENDROOT
BRANCH  10  15
ATOM     15  C   UNL     1       2.628   7.185  18.096  0.00  0.00    +0.000 A 
ATOM     16  C   UNL     1       2.280   5.832  18.217  0.00  0.00    +0.000 A 
ATOM     17  C   UNL     1       3.134   4.837  17.731  0.00  0.00    +0.000 A 
ATOM     18  C   UNL     1       4.355   5.188  17.161  0.00  0.00    +0.000 A 
ATOM     19 CL   UNL     1       5.403   3.962  16.563  0.00  0.00    +0.000 Cl
ATOM     20  C   UNL     1       4.731   6.527  17.075  0.00  0.00    +0.000 A 
ATOM     21  C   UNL     1       3.864   7.527  17.530  0.00  0.00    +0.000 A 
ENDBRANCH  10  15
BRANCH   1  22
ATOM     22  N   UNL     1      -2.192  12.269  18.020  0.00  0.00    +0.000 N 
ATOM     23  H   UNL     1      -2.082  13.227  17.701  0.00  0.00    +0.000 HD
BRANCH  22  24
ATOM     24  C   UNL     1      -3.410  11.591  17.563  0.00  0.00    +0.000 C 
BRANCH  24  26
ATOM     25  C   UNL     1      -2.818  10.312  15.116  0.00  0.00    +0.000 C 
ATOM     26  C   UNL     1      -3.092  10.902  16.246  0.00  0.00    +0.000 C 
ENDBRANCH  24  26
ENDBRANCH  22  24
ENDBRANCH   1  22
TORSDOF 4
ENDMDL
MODEL 7
REMARK VINA RESULT:      -6.8      3.501      7.499
REMARK  Name = 
REMARK  4 active torsions:
REMARK  status: ('A' for Active; 'I' for Inactive)
REMARK    1  A    between atoms: C_2  and  C_3
REMARK    2  A    between atoms: C_3  and  N_4
REMARK    3  A    between atoms: N_4  and  C_5
REMARK    4  A    between atoms: N_14  and  C_15
REMARK                            x       y       z     vdW  Elec       q    Type
REMARK                         _______ _______ _______ _____ _____    ______ ____
ROOT
ATOM      1  C   UNL     1      -0.657  11.657  20.071  0.00  0.00    +0.000 A 
ATOM      2  N   UNL     1      -1.304  12.247  21.110  0.00  0.00    +0.000 NA
ATOM      3  C   UNL     1      -1.314  11.660  22.312  0.00  0.00    +0.000 A 
ATOM      4  N   UNL     1      -0.717  10.526  22.658  0.00  0.00    +0.000 NA
ATOM      5  C   UNL     1      -0.052   9.966  21.637  0.00  0.00    +0.000 A 
ATOM      6  S   UNL     1       0.781   8.503  21.913  0.00  0.00    +0.000 S 
ATOM      7  C   UNL     1       1.314   8.457  20.315  0.00  0.00    +0.000 A 
ATOM      8  C   UNL     1       2.169   7.411  19.813  0.00  0.00    +0.000 A 
ATOM      9  O   UNL     1       2.527   6.444  20.468  0.00  0.00    +0.000 OA
ATOM     10  N   UNL     1       2.518   7.631  18.476  0.00  0.00    +0.000 N 
ATOM     11  C   UNL     1       2.040   8.741  17.785  0.00  0.00    +0.000 A 
ATOM     12  N   UNL     1       1.269   9.693  18.235  0.00  0.00    +0.000 NA
ATOM     13  C   UNL     1       0.878   9.530  19.580  0.00  0.00    +0.000 A 
ATOM     14  C   UNL     1       0.045  10.443  20.330  0.00  0.00    +0.000 A 
ENDROOT
BRANCH  10  15
ATOM     15  C   UNL     1       3.340   6.678  17.813  0.00  0.00    +0.000 A 
ATOM     16  C   UNL     1       2.973   5.325  17.798  0.00  0.00    +0.000 A 
ATOM     17  C   UNL     1       3.759   4.386  17.122  0.00  0.00    +0.000 A 
ATOM     18  C   UNL     1       4.935   4.789  16.495  0.00  0.00    +0.000 A 
ATOM     19 CL   UNL     1       5.900   3.633  15.665  0.00  0.00    +0.000 Cl
ATOM     20  C   UNL     1       5.334   6.124  16.541  0.00  0.00    +0.000 A 
ATOM     21  C   UNL     1       4.532   7.070  17.187  0.00  0.00    +0.000 A 
ENDBRANCH  10  15
BRANCH   1  22
ATOM     22  N   UNL     1      -0.774  12.258  18.817  0.00  0.00    +0.000 N 
ATOM     23  H   UNL     1      -0.634  11.603  18.054  0.00  0.00    +0.000 HD
BRANCH  22  24
ATOM     24  C   UNL     1      -0.125  13.564  18.649  0.00  0.00    +0.000 C 
BRANCH  24  26
ATOM     25  C   UNL     1       2.640  13.112  18.297  0.00  0.00    +0.000 C 
ATOM     26  C   UNL     1       1.363  13.321  18.459  0.00  0.00    +0.000 C 
ENDBRANCH  24  26
ENDBRANCH  22  24
ENDBRANCH   1  22
TORSDOF 4
ENDMDL
MODEL 8
REMARK VINA RESULT:      -6.8      1.128      1.136
REMARK  Name = 
REMARK  4 active torsions:
REMARK  status: ('A' for Active; 'I' for Inactive)
REMARK    1  A    between atoms: C_2  and  C_3
REMARK    2  A    between atoms: C_3  and  N_4
REMARK    3  A    between atoms: N_4  and  C_5
REMARK    4  A    between atoms: N_14  and  C_15
REMARK                            x       y       z     vdW  Elec       q    Type
REMARK                         _______ _______ _______ _____ _____    ______ ____
ROOT
ATOM      1  C   UNL     1       4.226   4.307  17.806  0.00  0.00    +0.000 A 
ATOM      2  N   UNL     1       4.418   3.039  18.252  0.00  0.00    +0.000 NA
ATOM      3  C   UNL     1       3.918   2.663  19.435  0.00  0.00    +0.000 A 
ATOM      4  N   UNL     1       3.190   3.394  20.269  0.00  0.00    +0.000 NA
ATOM      5  C   UNL     1       2.974   4.635  19.807  0.00  0.00    +0.000 A 
ATOM      6  S   UNL     1       2.045   5.706  20.755  0.00  0.00    +0.000 S 
ATOM      7  C   UNL     1       2.204   6.927  19.604  0.00  0.00    +0.000 A 
ATOM      8  C   UNL     1       1.586   8.220  19.756  0.00  0.00    +0.000 A 
ATOM      9  O   UNL     1       0.957   8.569  20.744  0.00  0.00    +0.000 OA
ATOM     10  N   UNL     1       1.817   9.033  18.641  0.00  0.00    +0.000 N 
ATOM     11  C   UNL     1       2.576   8.576  17.567  0.00  0.00    +0.000 A 
ATOM     12  N   UNL     1       3.134   7.406  17.422  0.00  0.00    +0.000 NA
ATOM     13  C   UNL     1       2.941   6.536  18.515  0.00  0.00    +0.000 A 
ATOM     14  C   UNL     1       3.433   5.180  18.608  0.00  0.00    +0.000 A 
ENDROOT
BRANCH  10  15
ATOM     15  C   UNL     1       1.298  10.359  18.636  0.00  0.00    +0.000 A 
ATOM     16  C   UNL     1      -0.086  10.570  18.696  0.00  0.00    +0.000 A 
ATOM     17  C   UNL     1      -0.603  11.869  18.722  0.00  0.00    +0.000 A 
ATOM     18  C   UNL     1       0.259  12.960  18.646  0.00  0.00    +0.000 A 
ATOM     19 CL   UNL     1      -0.379  14.557  18.679  0.00  0.00    +0.000 Cl
ATOM     20  C   UNL     1       1.635  12.763  18.542  0.00  0.00    +0.000 A 
ATOM     21  C   UNL     1       2.157  11.465  18.549  0.00  0.00    +0.000 A 
ENDBRANCH  10  15
BRANCH   1  22
ATOM     22  N   UNL     1       4.863   4.675  16.619  0.00  0.00    +0.000 N 
ATOM     23  H   UNL     1       4.410   4.289  15.796  0.00  0.00    +0.000 HD
BRANCH  22  24
ATOM     24  C   UNL     1       6.329   4.617  16.614  0.00  0.00    +0.000 C 
BRANCH  24  26
ATOM     25  C   UNL     1       7.292   7.117  17.507  0.00  0.00    +0.000 C 
ATOM     26  C   UNL     1       6.847   5.963  17.095  0.00  0.00    +0.000 C 
ENDBRANCH  24  26
ENDBRANCH  22  24
ENDBRANCH   1  22
TORSDOF 4
ENDMDL
MODEL 9
REMARK VINA RESULT:      -6.8      2.181      3.832
REMARK  Name = 
REMARK  4 active torsions:
REMARK  status: ('A' for Active; 'I' for Inactive)
REMARK    1  A    between atoms: C_2  and  C_3
REMARK    2  A    between atoms: C_3  and  N_4
REMARK    3  A    between atoms: N_4  and  C_5
REMARK    4  A    between atoms: N_14  and  C_15
REMARK                            x       y       z     vdW  Elec       q    Type
REMARK                         _______ _______ _______ _____ _____    ______ ____
ROOT
ATOM      1  C   UNL     1       4.698   3.719  17.689  0.00  0.00    +0.000 A 
ATOM      2  N   UNL     1       5.554   3.320  16.712  0.00  0.00    +0.000 NA
ATOM      3  C   UNL     1       5.899   4.169  15.737  0.00  0.00    +0.000 A 
ATOM      4  N   UNL     1       5.520   5.434  15.602  0.00  0.00    +0.000 NA
ATOM      5  C   UNL     1       4.703   5.832  16.588  0.00  0.00    +0.000 A 
ATOM      6  S   UNL     1       4.129   7.438  16.571  0.00  0.00    +0.000 S 
ATOM      7  C   UNL     1       3.263   7.187  17.995  0.00  0.00    +0.000 A 
ATOM      8  C   UNL     1       2.497   8.229  18.630  0.00  0.00    +0.000 A 
ATOM      9  O   UNL     1       2.351   9.352  18.170  0.00  0.00    +0.000 OA
ATOM     10  N   UNL     1       1.922   7.787  19.827  0.00  0.00    +0.000 N 
ATOM     11  C   UNL     1       2.105   6.480  20.268  0.00  0.00    +0.000 A 
ATOM     12  N   UNL     1       2.801   5.533  19.700  0.00  0.00    +0.000 NA
ATOM     13  C   UNL     1       3.407   5.914  18.485  0.00  0.00    +0.000 A 
ATOM     14  C   UNL     1       4.244   5.070  17.663  0.00  0.00    +0.000 A 
ENDROOT
BRANCH  10  15
ATOM     15  C   UNL     1       1.107   8.684  20.573  0.00  0.00    +0.000 A 
ATOM     16  C   UNL     1       1.107   8.632  21.974  0.00  0.00    +0.000 A 
ATOM     17  C   UNL     1       0.333   9.531  22.715  0.00  0.00    +0.000 A 
ATOM     18  C   UNL     1      -0.474  10.456  22.058  0.00  0.00    +0.000 A 
ATOM     19 CL   UNL     1      -1.425  11.560  22.972  0.00  0.00    +0.000 Cl
ATOM     20  C   UNL     1      -0.517  10.489  20.665  0.00  0.00    +0.000 A 
ATOM     21  C   UNL     1       0.282   9.613  19.922  0.00  0.00    +0.000 A 
ENDBRANCH  10  15
BRANCH   1  22
ATOM     22  N   UNL     1       4.289   2.758  18.615  0.00  0.00    +0.000 N 
ATOM     23  H   UNL     1       5.059   2.395  19.169  0.00  0.00    +0.000 HD
BRANCH  22  24
ATOM     24  C   UNL     1       3.328   1.755  18.144  0.00  0.00    +0.000 C 
BRANCH  24  26
ATOM     25  C   UNL     1       0.744   2.629  18.874  0.00  0.00    +0.000 C 
ATOM     26  C   UNL     1       1.937   2.226  18.536  0.00  0.00    +0.000 C 
ENDBRANCH  24  26
ENDBRANCH  22  24
ENDBRANCH   1  22
TORSDOF 4
ENDMDL
