MODEL 1
REMARK VINA RESULT:      -8.8      0.000      0.000
REMARK  Name = 
REMARK  8 active torsions:
REMARK  status: ('A' for Active; 'I' for Inactive)
REMARK    1  A    between atoms: C_1  and  C_2
REMARK    2  A    between atoms: C_2  and  C_3
REMARK    3  A    between atoms: C_2  and  C_4
REMARK    4  A    between atoms: C_2  and  C_5
REMARK    5  A    between atoms: C_8  and  C_9
REMARK    6  A    between atoms: C_15  and  N_16
REMARK    7  A    between atoms: N_19  and  C_20
REMARK    8  A    between atoms: C_20  and  C_21
REMARK                            x       y       z     vdW  Elec       q    Type
REMARK                         _______ _______ _______ _____ _____    ______ ____
ROOT
ATOM      1  C   UNL     1       0.945   9.001  20.679  0.00  0.00    +0.000 A 
ATOM      2  C   UNL     1      -0.079   8.881  21.593  0.00  0.00    +0.000 A 
ATOM      3  N   UNL     1      -0.385  10.163  21.970  0.00  0.00    +0.000 N 
ATOM      4  C   UNL     1      -1.308  10.588  22.919  0.00  0.00    +0.000 A 
ATOM      5  C   UNL     1      -1.430  11.897  23.158  0.00  0.00    +0.000 A 
ATOM      6  C   UNL     1      -0.613  12.828  22.393  0.00  0.00    +0.000 A 
ATOM      7  C   UNL     1       0.274  12.446  21.437  0.00  0.00    +0.000 A 
ATOM      8  C   UNL     1       0.430  11.018  21.229  0.00  0.00    +0.000 A 
ATOM      9  N   UNL     1       1.256  10.323  20.461  0.00  0.00    +0.000 NA
ENDROOT
BRANCH   1  13
ATOM     10  C   UNL     1       2.923   5.717  18.725  0.00  0.00    +0.000 A 
ATOM     11  C   UNL     1       2.339   5.572  19.993  0.00  0.00    +0.000 A 
ATOM     12  C   UNL     1       1.701   6.639  20.635  0.00  0.00    +0.000 A 
ATOM     13  C   UNL     1       1.626   7.894  20.030  0.00  0.00    +0.000 A 
ATOM     14  C   UNL     1       2.219   8.065  18.776  0.00  0.00    +0.000 A 
ATOM     15  C   UNL     1       2.864   6.995  18.137  0.00  0.00    +0.000 A 
BRANCH  10  17
ATOM     16  C   UNL     1       2.522   3.597  17.326  0.00  0.00    +0.000 C 
ATOM     17  C   UNL     1       3.563   4.533  17.979  0.00  0.00    +0.000 C 
ATOM     18  C   UNL     1       4.408   3.677  18.946  0.00  0.00    +0.000 C 
ATOM     19  C   UNL     1       4.477   5.056  16.850  0.00  0.00    +0.000 C 
ENDBRANCH  10  17
ENDBRANCH   1  13
BRANCH   7  20
ATOM     20  N   UNL     1       0.940  13.409  20.649  0.00  0.00    +0.000 N 
ATOM     21  C   UNL     1       0.552  13.632  19.239  0.00  0.00    +0.000 C 
ATOM     22  C   UNL     1       0.852  15.100  18.839  0.00  0.00    +0.000 C 
ATOM     23  N   UNL     1       2.255  15.550  19.023  0.00  0.00    +0.000 NA
ATOM     24  C   UNL     1       2.677  15.181  20.402  0.00  0.00    +0.000 C 
ATOM     25  C   UNL     1       2.361  13.739  20.880  0.00  0.00    +0.000 C 
BRANCH  23  26
ATOM     26  C   UNL     1       3.172  15.024  17.982  0.00  0.00    +0.000 C 
BRANCH  26  27
ATOM     27  C   UNL     1       4.631  15.477  18.096  0.00  0.00    +0.000 A 
ATOM     28  C   UNL     1       4.940  16.761  18.519  0.00  0.00    +0.000 A 
ATOM     29  N   UNL     1       6.210  17.215  18.661  0.00  0.00    +0.000 NA
ATOM     30  C   UNL     1       7.196  16.327  18.439  0.00  0.00    +0.000 A 
ATOM     31  C   UNL     1       8.517  16.736  18.595  0.00  0.00    +0.000 A 
ATOM     32  C   UNL     1       9.579  15.838  18.490  0.00  0.00    +0.000 A 
ATOM     33  C   UNL     1       9.311  14.507  18.202  0.00  0.00    +0.000 A 
ATOM     34  C   UNL     1       7.989  14.099  17.977  0.00  0.00    +0.000 A 
ATOM     35  C   UNL     1       6.913  14.985  18.085  0.00  0.00    +0.000 A 
ATOM     36  N   UNL     1       5.630  14.569  17.887  0.00  0.00    +0.000 NA
ENDBRANCH  26  27
ENDBRANCH  23  26
ENDBRANCH   7  20
TORSDOF 5
ENDMDL
MODEL 2
REMARK VINA RESULT:      -8.7      0.261      1.125
REMARK  Name = 
REMARK  8 active torsions:
REMARK  status: ('A' for Active; 'I' for Inactive)
REMARK    1  A    between atoms: C_1  and  C_2
REMARK    2  A    between atoms: C_2  and  C_3
REMARK    3  A    between atoms: C_2  and  C_4
REMARK    4  A    between atoms: C_2  and  C_5
REMARK    5  A    between atoms: C_8  and  C_9
REMARK    6  A    between atoms: C_15  and  N_16
REMARK    7  A    between atoms: N_19  and  C_20
REMARK    8  A    between atoms: C_20  and  C_21
REMARK                            x       y       z     vdW  Elec       q    Type
REMARK                         _______ _______ _______ _____ _____    ______ ____
ROOT
ATOM      1  C   UNL     1       1.043   9.025  20.525  0.00  0.00    +0.000 A 
ATOM      2  C   UNL     1       0.029   8.849  21.441  0.00  0.00    +0.000 A 
ATOM      3  N   UNL     1      -0.307  10.108  21.864  0.00  0.00    +0.000 N 
ATOM      4  C   UNL     1      -1.234  10.477  22.832  0.00  0.00    +0.000 A 
ATOM      5  C   UNL     1      -1.387  11.773  23.118  0.00  0.00    +0.000 A 
ATOM      6  C   UNL     1      -0.600  12.751  22.379  0.00  0.00    +0.000 A 
ATOM      7  C   UNL     1       0.290  12.425  21.405  0.00  0.00    +0.000 A 
ATOM      8  C   UNL     1       0.481  11.009  21.147  0.00  0.00    +0.000 A 
ATOM      9  N   UNL     1       1.318  10.362  20.351  0.00  0.00    +0.000 NA
ENDROOT
BRANCH   1  13
ATOM     10  C   UNL     1       3.169   5.875  18.510  0.00  0.00    +0.000 A 
ATOM     11  C   UNL     1       3.011   7.141  17.927  0.00  0.00    +0.000 A 
ATOM     12  C   UNL     1       2.314   8.166  18.576  0.00  0.00    +0.000 A 
ATOM     13  C   UNL     1       1.747   7.960  19.834  0.00  0.00    +0.000 A 
ATOM     14  C   UNL     1       1.877   6.699  20.423  0.00  0.00    +0.000 A 
ATOM     15  C   UNL     1       2.571   5.671  19.768  0.00  0.00    +0.000 A 
BRANCH  10  17
ATOM     16  C   UNL     1       5.034   4.125  18.787  0.00  0.00    +0.000 C 
ATOM     17  C   UNL     1       3.995   4.763  17.838  0.00  0.00    +0.000 C 
ATOM     18  C   UNL     1       4.764   5.320  16.622  0.00  0.00    +0.000 C 
ATOM     19  C   UNL     1       3.059   3.632  17.359  0.00  0.00    +0.000 C 
ENDBRANCH  10  17
ENDBRANCH   1  13
BRANCH   7  20
ATOM     20  N   UNL     1       0.926  13.431  20.647  0.00  0.00    +0.000 N 
ATOM     21  C   UNL     1       0.475  13.740  19.272  0.00  0.00    +0.000 C 
ATOM     22  C   UNL     1       0.767  15.228  18.948  0.00  0.00    +0.000 C 
ATOM     23  N   UNL     1       2.180  15.660  19.094  0.00  0.00    +0.000 NA
ATOM     24  C   UNL     1       2.662  15.207  20.427  0.00  0.00    +0.000 C 
ATOM     25  C   UNL     1       2.358  13.740  20.831  0.00  0.00    +0.000 C 
BRANCH  23  26
ATOM     26  C   UNL     1       3.045  15.195  17.982  0.00  0.00    +0.000 C 
BRANCH  26  27
ATOM     27  C   UNL     1       4.526  15.564  18.097  0.00  0.00    +0.000 A 
ATOM     28  C   UNL     1       4.908  16.813  18.565  0.00  0.00    +0.000 A 
ATOM     29  N   UNL     1       6.202  17.192  18.710  0.00  0.00    +0.000 NA
ATOM     30  C   UNL     1       7.136  16.263  18.445  0.00  0.00    +0.000 A 
ATOM     31  C   UNL     1       8.479  16.595  18.602  0.00  0.00    +0.000 A 
ATOM     32  C   UNL     1       9.490  15.645  18.450  0.00  0.00    +0.000 A 
ATOM     33  C   UNL     1       9.149  14.343  18.116  0.00  0.00    +0.000 A 
ATOM     34  C   UNL     1       7.805  14.015  17.890  0.00  0.00    +0.000 A 
ATOM     35  C   UNL     1       6.779  14.952  18.043  0.00  0.00    +0.000 A 
ATOM     36  N   UNL     1       5.473  14.613  17.843  0.00  0.00    +0.000 NA
ENDBRANCH  26  27
ENDBRANCH  23  26
ENDBRANCH   7  20
TORSDOF 5
ENDMDL
MODEL 3
REMARK VINA RESULT:      -8.7      0.951      1.131
REMARK  Name = 
REMARK  8 active torsions:
REMARK  status: ('A' for Active; 'I' for Inactive)
REMARK    1  A    between atoms: C_1  and  C_2
REMARK    2  A    between atoms: C_2  and  C_3
REMARK    3  A    between atoms: C_2  and  C_4
REMARK    4  A    between atoms: C_2  and  C_5
REMARK    5  A    between atoms: C_8  and  C_9
REMARK    6  A    between atoms: C_15  and  N_16
REMARK    7  A    between atoms: N_19  and  C_20
REMARK    8  A    between atoms: C_20  and  C_21
REMARK                            x       y       z     vdW  Elec       q    Type
REMARK                         _______ _______ _______ _____ _____    ______ ____
ROOT
ATOM      1  C   UNL     1       0.858   9.781  20.647  0.00  0.00    +0.000 A 
ATOM      2  C   UNL     1      -0.253   9.845  21.459  0.00  0.00    +0.000 A 
ATOM      3  N   UNL     1      -0.389  11.168  21.792  0.00  0.00    +0.000 N 
ATOM      4  C   UNL     1      -1.319  11.755  22.642  0.00  0.00    +0.000 A 
ATOM      5  C   UNL     1      -1.255  13.072  22.856  0.00  0.00    +0.000 A 
ATOM      6  C   UNL     1      -0.233  13.846  22.164  0.00  0.00    +0.000 A 
ATOM      7  C   UNL     1       0.669  13.307  21.303  0.00  0.00    +0.000 A 
ATOM      8  C   UNL     1       0.617  11.867  21.125  0.00  0.00    +0.000 A 
ATOM      9  N   UNL     1       1.392  11.033  20.448  0.00  0.00    +0.000 NA
ENDROOT
BRANCH   1  13
ATOM     10  C   UNL     1       2.462   6.173  18.938  0.00  0.00    +0.000 A 
ATOM     11  C   UNL     1       2.092   6.242  20.290  0.00  0.00    +0.000 A 
ATOM     12  C   UNL     1       1.577   7.416  20.851  0.00  0.00    +0.000 A 
ATOM     13  C   UNL     1       1.415   8.566  20.078  0.00  0.00    +0.000 A 
ATOM     14  C   UNL     1       1.796   8.524  18.734  0.00  0.00    +0.000 A 
ATOM     15  C   UNL     1       2.319   7.347  18.176  0.00  0.00    +0.000 A 
BRANCH  10  17
ATOM     16  C   UNL     1       1.838   4.072  17.593  0.00  0.00    +0.000 C 
ATOM     17  C   UNL     1       2.962   4.868  18.294  0.00  0.00    +0.000 C 
ATOM     18  C   UNL     1       3.586   3.942  19.359  0.00  0.00    +0.000 C 
ATOM     19  C   UNL     1       4.030   5.187  17.224  0.00  0.00    +0.000 C 
ENDBRANCH  10  17
ENDBRANCH   1  13
BRANCH   7  20
ATOM     20  N   UNL     1       1.550  14.134  20.575  0.00  0.00    +0.000 N 
ATOM     21  C   UNL     1       1.176  14.644  19.237  0.00  0.00    +0.000 C 
ATOM     22  C   UNL     1       1.876  16.004  18.981  0.00  0.00    +0.000 C 
ATOM     23  N   UNL     1       3.356  16.005  19.094  0.00  0.00    +0.000 NA
ATOM     24  C   UNL     1       3.718  15.351  20.381  0.00  0.00    +0.000 C 
ATOM     25  C   UNL     1       3.015  14.010  20.719  0.00  0.00    +0.000 C 
BRANCH  23  26
ATOM     26  C   UNL     1       4.025  15.382  17.925  0.00  0.00    +0.000 C 
BRANCH  26  27
ATOM     27  C   UNL     1       5.553  15.299  18.005  0.00  0.00    +0.000 A 
ATOM     28  C   UNL     1       6.289  16.340  18.548  0.00  0.00    +0.000 A 
ATOM     29  N   UNL     1       7.640  16.318  18.666  0.00  0.00    +0.000 NA
ATOM     30  C   UNL     1       8.259  15.185  18.292  0.00  0.00    +0.000 A 
ATOM     31  C   UNL     1       9.643  15.102  18.416  0.00  0.00    +0.000 A 
ATOM     32  C   UNL     1      10.332  13.918  18.150  0.00  0.00    +0.000 A 
ATOM     33  C   UNL     1       9.621  12.802  17.734  0.00  0.00    +0.000 A 
ATOM     34  C   UNL     1       8.236  12.895  17.541  0.00  0.00    +0.000 A 
ATOM     35  C   UNL     1       7.529  14.071  17.808  0.00  0.00    +0.000 A 
ATOM     36  N   UNL     1       6.178  14.140  17.640  0.00  0.00    +0.000 NA
ENDBRANCH  26  27
ENDBRANCH  23  26
ENDBRANCH   7  20
TORSDOF 5
ENDMDL
MODEL 4
REMARK VINA RESULT:      -8.6      1.697      2.927
REMARK  Name = 
REMARK  8 active torsions:
REMARK  status: ('A' for Active; 'I' for Inactive)
REMARK    1  A    between atoms: C_1  and  C_2
REMARK    2  A    between atoms: C_2  and  C_3
REMARK    3  A    between atoms: C_2  and  C_4
REMARK    4  A    between atoms: C_2  and  C_5
REMARK    5  A    between atoms: C_8  and  C_9
REMARK    6  A    between atoms: C_15  and  N_16
REMARK    7  A    between atoms: N_19  and  C_20
REMARK    8  A    between atoms: C_20  and  C_21
REMARK                            x       y       z     vdW  Elec       q    Type
REMARK                         _______ _______ _______ _____ _____    ______ ____
ROOT
ATOM      1  C   UNL     1       1.017  10.824  19.212  0.00  0.00    +0.000 A 
ATOM      2  C   UNL     1      -0.307  11.179  19.351  0.00  0.00    +0.000 A 
ATOM      3  N   UNL     1      -0.308  12.542  19.502  0.00  0.00    +0.000 N 
ATOM      4  C   UNL     1      -1.387  13.386  19.739  0.00  0.00    +0.000 A 
ATOM      5  C   UNL     1      -1.162  14.694  19.887  0.00  0.00    +0.000 A 
ATOM      6  C   UNL     1       0.202  15.189  19.762  0.00  0.00    +0.000 A 
ATOM      7  C   UNL     1       1.274  14.394  19.500  0.00  0.00    +0.000 A 
ATOM      8  C   UNL     1       1.016  12.970  19.395  0.00  0.00    +0.000 A 
ATOM      9  N   UNL     1       1.828  11.935  19.243  0.00  0.00    +0.000 NA
ENDROOT
BRANCH   1  13
ATOM     10  C   UNL     1       2.441   6.792  18.746  0.00  0.00    +0.000 A 
ATOM     11  C   UNL     1       1.925   7.250  19.968  0.00  0.00    +0.000 A 
ATOM     12  C   UNL     1       1.468   8.562  20.125  0.00  0.00    +0.000 A 
ATOM     13  C   UNL     1       1.512   9.467  19.064  0.00  0.00    +0.000 A 
ATOM     14  C   UNL     1       2.041   9.036  17.844  0.00  0.00    +0.000 A 
ATOM     15  C   UNL     1       2.505   7.720  17.690  0.00  0.00    +0.000 A 
BRANCH  10  17
ATOM     16  C   UNL     1       4.192   5.202  17.733  0.00  0.00    +0.000 C 
ATOM     17  C   UNL     1       2.880   5.331  18.541  0.00  0.00    +0.000 C 
ATOM     18  C   UNL     1       1.794   4.540  17.783  0.00  0.00    +0.000 C 
ATOM     19  C   UNL     1       3.121   4.658  19.910  0.00  0.00    +0.000 C 
ENDBRANCH  10  17
ENDBRANCH   1  13
BRANCH   7  20
ATOM     20  N   UNL     1       2.547  14.958  19.270  0.00  0.00    +0.000 N 
ATOM     21  C   UNL     1       3.620  14.166  18.631  0.00  0.00    +0.000 C 
ATOM     22  C   UNL     1       4.578  15.111  17.857  0.00  0.00    +0.000 C 
ATOM     23  N   UNL     1       5.199  16.199  18.653  0.00  0.00    +0.000 NA
ATOM     24  C   UNL     1       4.118  16.890  19.407  0.00  0.00    +0.000 C 
ATOM     25  C   UNL     1       3.097  15.998  20.163  0.00  0.00    +0.000 C 
BRANCH  23  26
ATOM     26  C   UNL     1       6.295  15.721  19.530  0.00  0.00    +0.000 C 
BRANCH  26  27
ATOM     27  C   UNL     1       7.595  15.339  18.816  0.00  0.00    +0.000 A 
ATOM     28  C   UNL     1       8.458  16.319  18.350  0.00  0.00    +0.000 A 
ATOM     29  N   UNL     1       9.633  16.045  17.729  0.00  0.00    +0.000 NA
ATOM     30  C   UNL     1       9.980  14.750  17.639  0.00  0.00    +0.000 A 
ATOM     31  C   UNL     1      11.188  14.417  17.032  0.00  0.00    +0.000 A 
ATOM     32  C   UNL     1      11.657  13.104  17.007  0.00  0.00    +0.000 A 
ATOM     33  C   UNL     1      10.891  12.102  17.584  0.00  0.00    +0.000 A 
ATOM     34  C   UNL     1       9.642  12.416  18.138  0.00  0.00    +0.000 A 
ATOM     35  C   UNL     1       9.159  13.727  18.177  0.00  0.00    +0.000 A 
ATOM     36  N   UNL     1       7.954  14.023  18.741  0.00  0.00    +0.000 NA
ENDBRANCH  26  27
ENDBRANCH  23  26
ENDBRANCH   7  20
TORSDOF 5
ENDMDL
MODEL 5
REMARK VINA RESULT:      -8.5      1.541      1.984
REMARK  Name = 
REMARK  8 active torsions:
REMARK  status: ('A' for Active; 'I' for Inactive)
REMARK    1  A    between atoms: C_1  and  C_2
REMARK    2  A    between atoms: C_2  and  C_3
REMARK    3  A    between atoms: C_2  and  C_4
REMARK    4  A    between atoms: C_2  and  C_5
REMARK    5  A    between atoms: C_8  and  C_9
REMARK    6  A    between atoms: C_15  and  N_16
REMARK    7  A    between atoms: N_19  and  C_20
REMARK    8  A    between atoms: C_20  and  C_21
REMARK                            x       y       z     vdW  Elec       q    Type
REMARK                         _______ _______ _______ _____ _____    ______ ____
ROOT
ATOM      1  C   UNL     1       0.704  10.281  19.346  0.00  0.00    +0.000 A 
ATOM      2  C   UNL     1      -0.662  10.304  19.526  0.00  0.00    +0.000 A 
ATOM      3  N   UNL     1      -0.971  11.606  19.825  0.00  0.00    +0.000 N 
ATOM      4  C   UNL     1      -2.208  12.148  20.154  0.00  0.00    +0.000 A 
ATOM      5  C   UNL     1      -2.285  13.450  20.444  0.00  0.00    +0.000 A 
ATOM      6  C   UNL     1      -1.074  14.256  20.372  0.00  0.00    +0.000 A 
ATOM      7  C   UNL     1       0.143  13.763  20.022  0.00  0.00    +0.000 A 
ATOM      8  C   UNL     1       0.216  12.336  19.763  0.00  0.00    +0.000 A 
ATOM      9  N   UNL     1       1.239  11.539  19.497  0.00  0.00    +0.000 NA
ENDROOT
BRANCH   1  13
ATOM     10  C   UNL     1       3.003   6.760  18.437  0.00  0.00    +0.000 A 
ATOM     11  C   UNL     1       2.350   6.911  19.670  0.00  0.00    +0.000 A 
ATOM     12  C   UNL     1       1.608   8.057  19.972  0.00  0.00    +0.000 A 
ATOM     13  C   UNL     1       1.493   9.098  19.050  0.00  0.00    +0.000 A 
ATOM     14  C   UNL     1       2.151   8.976  17.823  0.00  0.00    +0.000 A 
ATOM     15  C   UNL     1       2.901   7.828  17.525  0.00  0.00    +0.000 A 
BRANCH  10  17
ATOM     16  C   UNL     1       4.751   5.019  19.162  0.00  0.00    +0.000 C 
ATOM     17  C   UNL     1       3.762   5.474  18.066  0.00  0.00    +0.000 C 
ATOM     18  C   UNL     1       4.574   5.678  16.770  0.00  0.00    +0.000 C 
ATOM     19  C   UNL     1       2.761   4.318  17.848  0.00  0.00    +0.000 C 
ENDBRANCH  10  17
ENDBRANCH   1  13
BRANCH   7  20
ATOM     20  N   UNL     1       1.246  14.626  19.853  0.00  0.00    +0.000 N 
ATOM     21  C   UNL     1       1.138  15.833  19.004  0.00  0.00    +0.000 C 
ATOM     22  C   UNL     1       2.111  16.925  19.521  0.00  0.00    +0.000 C 
ATOM     23  N   UNL     1       3.540  16.533  19.610  0.00  0.00    +0.000 NA
ATOM     24  C   UNL     1       3.615  15.237  20.338  0.00  0.00    +0.000 C 
ATOM     25  C   UNL     1       2.632  14.119  19.900  0.00  0.00    +0.000 C 
BRANCH  23  26
ATOM     26  C   UNL     1       4.211  16.487  18.287  0.00  0.00    +0.000 C 
BRANCH  26  27
ATOM     27  C   UNL     1       5.655  15.977  18.295  0.00  0.00    +0.000 A 
ATOM     28  C   UNL     1       6.647  16.678  18.962  0.00  0.00    +0.000 A 
ATOM     29  N   UNL     1       7.938  16.267  19.024  0.00  0.00    +0.000 NA
ATOM     30  C   UNL     1       8.222  15.081  18.458  0.00  0.00    +0.000 A 
ATOM     31  C   UNL     1       9.528  14.602  18.516  0.00  0.00    +0.000 A 
ATOM     32  C   UNL     1       9.864  13.332  18.047  0.00  0.00    +0.000 A 
ATOM     33  C   UNL     1       8.874  12.534  17.493  0.00  0.00    +0.000 A 
ATOM     34  C   UNL     1       7.569  13.032  17.369  0.00  0.00    +0.000 A 
ATOM     35  C   UNL     1       7.214  14.300  17.838  0.00  0.00    +0.000 A 
ATOM     36  N   UNL     1       5.937  14.763  17.734  0.00  0.00    +0.000 NA
ENDBRANCH  26  27
ENDBRANCH  23  26
ENDBRANCH   7  20
TORSDOF 5
ENDMDL
MODEL 6
REMARK VINA RESULT:      -8.4      2.016      3.934
REMARK  Name = 
REMARK  8 active torsions:
REMARK  status: ('A' for Active; 'I' for Inactive)
REMARK    1  A    between atoms: C_1  and  C_2
REMARK    2  A    between atoms: C_2  and  C_3
REMARK    3  A    between atoms: C_2  and  C_4
REMARK    4  A    between atoms: C_2  and  C_5
REMARK    5  A    between atoms: C_8  and  C_9
REMARK    6  A    between atoms: C_15  and  N_16
REMARK    7  A    between atoms: N_19  and  C_20
REMARK    8  A    between atoms: C_20  and  C_21
REMARK                            x       y       z     vdW  Elec       q    Type
REMARK                         _______ _______ _______ _____ _____    ______ ____
ROOT
ATOM      1  C   UNL     1       1.226  11.475  19.034  0.00  0.00    +0.000 A 
ATOM      2  C   UNL     1      -0.020  12.047  18.896  0.00  0.00    +0.000 A 
ATOM      3  N   UNL     1       0.189  13.400  18.957  0.00  0.00    +0.000 N 
ATOM      4  C   UNL     1      -0.753  14.423  18.930  0.00  0.00    +0.000 A 
ATOM      5  C   UNL     1      -0.334  15.687  19.035  0.00  0.00    +0.000 A 
ATOM      6  C   UNL     1       1.095  15.945  19.142  0.00  0.00    +0.000 A 
ATOM      7  C   UNL     1       2.042  14.970  19.139  0.00  0.00    +0.000 A 
ATOM      8  C   UNL     1       1.564  13.601  19.077  0.00  0.00    +0.000 A 
ATOM      9  N   UNL     1       2.198  12.441  19.149  0.00  0.00    +0.000 NA
ENDROOT
BRANCH   1  13
ATOM     10  C   UNL     1       2.072   7.259  19.163  0.00  0.00    +0.000 A 
ATOM     11  C   UNL     1       2.238   8.003  17.986  0.00  0.00    +0.000 A 
ATOM     12  C   UNL     1       1.957   9.373  17.937  0.00  0.00    +0.000 A 
ATOM     13  C   UNL     1       1.497  10.048  19.069  0.00  0.00    +0.000 A 
ATOM     14  C   UNL     1       1.307   9.320  20.246  0.00  0.00    +0.000 A 
ATOM     15  C   UNL     1       1.583   7.945  20.290  0.00  0.00    +0.000 A 
BRANCH  10  17
ATOM     16  C   UNL     1       3.957   5.536  19.473  0.00  0.00    +0.000 C 
ATOM     17  C   UNL     1       2.446   5.768  19.246  0.00  0.00    +0.000 C 
ATOM     18  C   UNL     1       2.060   5.039  17.942  0.00  0.00    +0.000 C 
ATOM     19  C   UNL     1       1.701   5.105  20.426  0.00  0.00    +0.000 C 
ENDBRANCH  10  17
ENDBRANCH   1  13
BRANCH   7  20
ATOM     20  N   UNL     1       3.414  15.301  19.121  0.00  0.00    +0.000 N 
ATOM     21  C   UNL     1       3.919  16.379  18.242  0.00  0.00    +0.000 C 
ATOM     22  C   UNL     1       5.178  17.024  18.878  0.00  0.00    +0.000 C 
ATOM     23  N   UNL     1       6.297  16.099  19.188  0.00  0.00    +0.000 NA
ATOM     24  C   UNL     1       5.740  14.944  19.943  0.00  0.00    +0.000 C 
ATOM     25  C   UNL     1       4.451  14.284  19.385  0.00  0.00    +0.000 C 
BRANCH  23  26
ATOM     26  C   UNL     1       7.055  15.683  17.982  0.00  0.00    +0.000 C 
BRANCH  26  27
ATOM     27  C   UNL     1       8.043  14.531  18.186  0.00  0.00    +0.000 A 
ATOM     28  C   UNL     1       7.838  13.308  17.565  0.00  0.00    +0.000 A 
ATOM     29  N   UNL     1       8.686  12.257  17.688  0.00  0.00    +0.000 NA
ATOM     30  C   UNL     1       9.807  12.467  18.400  0.00  0.00    +0.000 A 
ATOM     31  C   UNL     1      10.722  11.426  18.536  0.00  0.00    +0.000 A 
ATOM     32  C   UNL     1      11.953  11.612  19.166  0.00  0.00    +0.000 A 
ATOM     33  C   UNL     1      12.264  12.861  19.685  0.00  0.00    +0.000 A 
ATOM     34  C   UNL     1      11.322  13.896  19.612  0.00  0.00    +0.000 A 
ATOM     35  C   UNL     1      10.086  13.729  18.980  0.00  0.00    +0.000 A 
ATOM     36  N   UNL     1       9.189  14.752  18.895  0.00  0.00    +0.000 NA
ENDBRANCH  26  27
ENDBRANCH  23  26
ENDBRANCH   7  20
TORSDOF 5
ENDMDL
MODEL 7
REMARK VINA RESULT:      -8.4      1.489      2.087
REMARK  Name = 
REMARK  8 active torsions:
REMARK  status: ('A' for Active; 'I' for Inactive)
REMARK    1  A    between atoms: C_1  and  C_2
REMARK    2  A    between atoms: C_2  and  C_3
REMARK    3  A    between atoms: C_2  and  C_4
REMARK    4  A    between atoms: C_2  and  C_5
REMARK    5  A    between atoms: C_8  and  C_9
REMARK    6  A    between atoms: C_15  and  N_16
REMARK    7  A    between atoms: N_19  and  C_20
REMARK    8  A    between atoms: C_20  and  C_21
REMARK                            x       y       z     vdW  Elec       q    Type
REMARK                         _______ _______ _______ _____ _____    ______ ____
ROOT
ATOM      1  C   UNL     1       0.731  10.283  19.434  0.00  0.00    +0.000 A 
ATOM      2  C   UNL     1      -0.620  10.358  19.696  0.00  0.00    +0.000 A 
ATOM      3  N   UNL     1      -0.860  11.668  20.016  0.00  0.00    +0.000 N 
ATOM      4  C   UNL     1      -2.054  12.256  20.420  0.00  0.00    +0.000 A 
ATOM      5  C   UNL     1      -2.064  13.558  20.717  0.00  0.00    +0.000 A 
ATOM      6  C   UNL     1      -0.830  14.318  20.574  0.00  0.00    +0.000 A 
ATOM      7  C   UNL     1       0.345  13.781  20.150  0.00  0.00    +0.000 A 
ATOM      8  C   UNL     1       0.347  12.354  19.884  0.00  0.00    +0.000 A 
ATOM      9  N   UNL     1       1.322  11.520  19.555  0.00  0.00    +0.000 NA
ENDROOT
BRANCH   1  13
ATOM     10  C   UNL     1       2.916   6.714  18.436  0.00  0.00    +0.000 A 
ATOM     11  C   UNL     1       2.743   7.751  17.507  0.00  0.00    +0.000 A 
ATOM     12  C   UNL     1       2.027   8.910  17.825  0.00  0.00    +0.000 A 
ATOM     13  C   UNL     1       1.455   9.073  19.088  0.00  0.00    +0.000 A 
ATOM     14  C   UNL     1       1.600   8.043  20.021  0.00  0.00    +0.000 A 
ATOM     15  C   UNL     1       2.312   6.878  19.697  0.00  0.00    +0.000 A 
BRANCH  10  17
ATOM     16  C   UNL     1       4.683   5.657  16.895  0.00  0.00    +0.000 C 
ATOM     17  C   UNL     1       3.762   5.468  18.121  0.00  0.00    +0.000 C 
ATOM     18  C   UNL     1       2.853   4.256  17.830  0.00  0.00    +0.000 C 
ATOM     19  C   UNL     1       4.669   5.131  19.325  0.00  0.00    +0.000 C 
ENDBRANCH  10  17
ENDBRANCH   1  13
BRANCH   7  20
ATOM     20  N   UNL     1       1.467  14.603  19.917  0.00  0.00    +0.000 N 
ATOM     21  C   UNL     1       1.372  15.777  19.021  0.00  0.00    +0.000 C 
ATOM     22  C   UNL     1       2.390  16.859  19.467  0.00  0.00    +0.000 C 
ATOM     23  N   UNL     1       3.809  16.427  19.536  0.00  0.00    +0.000 NA
ATOM     24  C   UNL     1       3.865  15.161  20.315  0.00  0.00    +0.000 C 
ATOM     25  C   UNL     1       2.839  14.056  19.951  0.00  0.00    +0.000 C 
BRANCH  23  26
ATOM     26  C   UNL     1       4.442  16.307  18.199  0.00  0.00    +0.000 C 
BRANCH  26  27
ATOM     27  C   UNL     1       5.915  15.888  18.201  0.00  0.00    +0.000 A 
ATOM     28  C   UNL     1       6.879  16.700  18.779  0.00  0.00    +0.000 A 
ATOM     29  N   UNL     1       8.195  16.376  18.832  0.00  0.00    +0.000 NA
ATOM     30  C   UNL     1       8.538  15.167  18.353  0.00  0.00    +0.000 A 
ATOM     31  C   UNL     1       9.873  14.776  18.405  0.00  0.00    +0.000 A 
ATOM     32  C   UNL     1      10.276  13.495  18.028  0.00  0.00    +0.000 A 
ATOM     33  C   UNL     1       9.324  12.595  17.570  0.00  0.00    +0.000 A 
ATOM     34  C   UNL     1       7.988  13.002  17.450  0.00  0.00    +0.000 A 
ATOM     35  C   UNL     1       7.566  14.279  17.829  0.00  0.00    +0.000 A 
ATOM     36  N   UNL     1       6.258  14.653  17.729  0.00  0.00    +0.000 NA
ENDBRANCH  26  27
ENDBRANCH  23  26
ENDBRANCH   7  20
TORSDOF 5
ENDMDL
MODEL 8
REMARK VINA RESULT:      -8.4      1.683      2.845
REMARK  Name = 
REMARK  8 active torsions:
REMARK  status: ('A' for Active; 'I' for Inactive)
REMARK    1  A    between atoms: C_1  and  C_2
REMARK    2  A    between atoms: C_2  and  C_3
REMARK    3  A    between atoms: C_2  and  C_4
REMARK    4  A    between atoms: C_2  and  C_5
REMARK    5  A    between atoms: C_8  and  C_9
REMARK    6  A    between atoms: C_15  and  N_16
REMARK    7  A    between atoms: N_19  and  C_20
REMARK    8  A    between atoms: C_20  and  C_21
REMARK                            x       y       z     vdW  Elec       q    Type
REMARK                         _______ _______ _______ _____ _____    ______ ____
ROOT
ATOM      1  C   UNL     1       0.827  10.805  19.593  0.00  0.00    +0.000 A 
ATOM      2  C   UNL     1      -0.481  11.195  19.782  0.00  0.00    +0.000 A 
ATOM      3  N   UNL     1      -0.447  12.562  19.869  0.00  0.00    +0.000 N 
ATOM      4  C   UNL     1      -1.497  13.439  20.120  0.00  0.00    +0.000 A 
ATOM      5  C   UNL     1      -1.239  14.747  20.197  0.00  0.00    +0.000 A 
ATOM      6  C   UNL     1       0.126  15.206  19.982  0.00  0.00    +0.000 A 
ATOM      7  C   UNL     1       1.167  14.378  19.704  0.00  0.00    +0.000 A 
ATOM      8  C   UNL     1       0.877  12.956  19.678  0.00  0.00    +0.000 A 
ATOM      9  N   UNL     1       1.660  11.899  19.533  0.00  0.00    +0.000 NA
ENDROOT
BRANCH   1  13
ATOM     10  C   UNL     1       2.235   6.751  19.292  0.00  0.00    +0.000 A 
ATOM     11  C   UNL     1       2.234   7.611  18.183  0.00  0.00    +0.000 A 
ATOM     12  C   UNL     1       1.770   8.927  18.275  0.00  0.00    +0.000 A 
ATOM     13  C   UNL     1       1.288   9.432  19.483  0.00  0.00    +0.000 A 
ATOM     14  C   UNL     1       1.263   8.586  20.595  0.00  0.00    +0.000 A 
ATOM     15  C   UNL     1       1.723   7.263  20.498  0.00  0.00    +0.000 A 
BRANCH  10  17
ATOM     16  C   UNL     1       2.452   4.596  17.904  0.00  0.00    +0.000 C 
ATOM     17  C   UNL     1       2.810   5.325  19.219  0.00  0.00    +0.000 C 
ATOM     18  C   UNL     1       2.272   4.465  20.382  0.00  0.00    +0.000 C 
ATOM     19  C   UNL     1       4.350   5.374  19.308  0.00  0.00    +0.000 C 
ENDBRANCH  10  17
ENDBRANCH   1  13
BRANCH   7  20
ATOM     20  N   UNL     1       2.438  14.904  19.385  0.00  0.00    +0.000 N 
ATOM     21  C   UNL     1       2.628  15.742  18.181  0.00  0.00    +0.000 C 
ATOM     22  C   UNL     1       3.794  16.738  18.417  0.00  0.00    +0.000 C 
ATOM     23  N   UNL     1       5.099  16.135  18.789  0.00  0.00    +0.000 NA
ATOM     24  C   UNL     1       4.860  15.181  19.905  0.00  0.00    +0.000 C 
ATOM     25  C   UNL     1       3.677  14.189  19.752  0.00  0.00    +0.000 C 
BRANCH  23  26
ATOM     26  C   UNL     1       5.797  15.511  17.639  0.00  0.00    +0.000 C 
BRANCH  26  27
ATOM     27  C   UNL     1       7.205  14.982  17.927  0.00  0.00    +0.000 A 
ATOM     28  C   UNL     1       8.163  15.804  18.501  0.00  0.00    +0.000 A 
ATOM     29  N   UNL     1       9.419  15.390  18.800  0.00  0.00    +0.000 NA
ATOM     30  C   UNL     1       9.695  14.092  18.580  0.00  0.00    +0.000 A 
ATOM     31  C   UNL     1      10.964  13.611  18.893  0.00  0.00    +0.000 A 
ATOM     32  C   UNL     1      11.278  12.256  18.793  0.00  0.00    +0.000 A 
ATOM     33  C   UNL     1      10.306  11.369  18.352  0.00  0.00    +0.000 A 
ATOM     34  C   UNL     1       9.047  11.852  17.971  0.00  0.00    +0.000 A 
ATOM     35  C   UNL     1       8.714  13.206  18.070  0.00  0.00    +0.000 A 
ATOM     36  N   UNL     1       7.477  13.660  17.718  0.00  0.00    +0.000 NA
ENDBRANCH  26  27
ENDBRANCH  23  26
ENDBRANCH   7  20
TORSDOF 5
ENDMDL
MODEL 9
REMARK VINA RESULT:      -8.3      1.009      1.779
REMARK  Name = 
REMARK  8 active torsions:
REMARK  status: ('A' for Active; 'I' for Inactive)
REMARK    1  A    between atoms: C_1  and  C_2
REMARK    2  A    between atoms: C_2  and  C_3
REMARK    3  A    between atoms: C_2  and  C_4
REMARK    4  A    between atoms: C_2  and  C_5
REMARK    5  A    between atoms: C_8  and  C_9
REMARK    6  A    between atoms: C_15  and  N_16
REMARK    7  A    between atoms: N_19  and  C_20
REMARK    8  A    between atoms: C_20  and  C_21
REMARK                            x       y       z     vdW  Elec       q    Type
REMARK                         _______ _______ _______ _____ _____    ______ ____
ROOT
ATOM      1  C   UNL     1       0.634  10.207  20.818  0.00  0.00    +0.000 A 
ATOM      2  C   UNL     1      -0.471  10.150  21.640  0.00  0.00    +0.000 A 
ATOM      3  N   UNL     1      -0.683  11.437  22.059  0.00  0.00    +0.000 N 
ATOM      4  C   UNL     1      -1.638  11.911  22.952  0.00  0.00    +0.000 A 
ATOM      5  C   UNL     1      -1.653  13.213  23.250  0.00  0.00    +0.000 A 
ATOM      6  C   UNL     1      -0.688  14.091  22.602  0.00  0.00    +0.000 A 
ATOM      7  C   UNL     1       0.236  13.664  21.702  0.00  0.00    +0.000 A 
ATOM      8  C   UNL     1       0.271  12.239  21.432  0.00  0.00    +0.000 A 
ATOM      9  N   UNL     1       1.088  11.500  20.697  0.00  0.00    +0.000 NA
ENDROOT
BRANCH   1  13
ATOM     10  C   UNL     1       2.525   6.842  18.918  0.00  0.00    +0.000 A 
ATOM     11  C   UNL     1       2.275   8.033  18.219  0.00  0.00    +0.000 A 
ATOM     12  C   UNL     1       1.653   9.127  18.831  0.00  0.00    +0.000 A 
ATOM     13  C   UNL     1       1.257   9.067  20.168  0.00  0.00    +0.000 A 
ATOM     14  C   UNL     1       1.480   7.883  20.876  0.00  0.00    +0.000 A 
ATOM     15  C   UNL     1       2.098   6.785  20.258  0.00  0.00    +0.000 A 
BRANCH  10  17
ATOM     16  C   UNL     1       2.321   4.583  17.705  0.00  0.00    +0.000 C 
ATOM     17  C   UNL     1       3.272   5.660  18.276  0.00  0.00    +0.000 C 
ATOM     18  C   UNL     1       4.183   4.967  19.311  0.00  0.00    +0.000 C 
ATOM     19  C   UNL     1       4.144   6.164  17.105  0.00  0.00    +0.000 C 
ENDBRANCH  10  17
ENDBRANCH   1  13
BRANCH   7  20
ATOM     20  N   UNL     1       1.056  14.590  21.022  0.00  0.00    +0.000 N 
ATOM     21  C   UNL     1       0.567  15.287  19.812  0.00  0.00    +0.000 C 
ATOM     22  C   UNL     1       1.257  16.672  19.691  0.00  0.00    +0.000 C 
ATOM     23  N   UNL     1       2.742  16.658  19.665  0.00  0.00    +0.000 NA
ATOM     24  C   UNL     1       3.212  15.825  20.806  0.00  0.00    +0.000 C 
ATOM     25  C   UNL     1       2.526  14.448  21.010  0.00  0.00    +0.000 C 
BRANCH  23  26
ATOM     26  C   UNL     1       3.293  16.211  18.363  0.00  0.00    +0.000 C 
BRANCH  26  27
ATOM     27  C   UNL     1       4.795  15.914  18.347  0.00  0.00    +0.000 A 
ATOM     28  C   UNL     1       5.271  14.707  17.859  0.00  0.00    +0.000 A 
ATOM     29  N   UNL     1       6.589  14.392  17.800  0.00  0.00    +0.000 NA
ATOM     30  C   UNL     1       7.455  15.350  18.175  0.00  0.00    +0.000 A 
ATOM     31  C   UNL     1       8.820  15.086  18.110  0.00  0.00    +0.000 A 
ATOM     32  C   UNL     1       9.770  16.072  18.378  0.00  0.00    +0.000 A 
ATOM     33  C   UNL     1       9.342  17.341  18.739  0.00  0.00    +0.000 A 
ATOM     34  C   UNL     1       7.970  17.598  18.874  0.00  0.00    +0.000 A 
ATOM     35  C   UNL     1       7.005  16.624  18.603  0.00  0.00    +0.000 A 
ATOM     36  N   UNL     1       5.673  16.894  18.714  0.00  0.00    +0.000 NA
ENDBRANCH  26  27
ENDBRANCH  23  26
ENDBRANCH   7  20
TORSDOF 5
ENDMDL
