MODEL 1
REMARK VINA RESULT:      -7.8      0.000      0.000
REMARK  Name = 
REMARK  11 active torsions:
REMARK  status: ('A' for Active; 'I' for Inactive)
REMARK    1  A    between atoms: C_1  and  C_2
REMARK    2  A    between atoms: C_2  and  O_3
REMARK    3  A    between atoms: O_3  and  C_4
REMARK    4  A    between atoms: C_10  and  C_12
REMARK    5  A    between atoms: C_12  and  S_13
REMARK    6  A    between atoms: S_13  and  C_14
REMARK    7  A    between atoms: C_17  and  C_18
REMARK    8  A    between atoms: C_21  and  C_22
REMARK    9  A    between atoms: C_22  and  C_23
REMARK   10  A    between atoms: C_22  and  C_24
REMARK   11  A    between atoms: C_22  and  C_25
REMARK                            x       y       z     vdW  Elec       q    Type
REMARK                         _______ _______ _______ _____ _____    ______ ____
ROOT
ATOM      1  S   UNL     1       2.429   4.776  20.788  0.00  0.00    +0.000 S 
ENDROOT
BRANCH   1   2
ATOM      2  C   UNL     1       2.037   6.409  20.352  0.00  0.00    +0.000 A 
ATOM      3  N   UNL     1       2.431   7.022  19.255  0.00  0.00    +0.000 NA
ATOM      4  N   UNL     1       1.864   8.282  19.282  0.00  0.00    +0.000 NA
ATOM      5  C   UNL     1       1.170   8.367  20.401  0.00  0.00    +0.000 A 
ATOM      6  O   UNL     1       1.242   7.211  21.138  0.00  0.00    +0.000 OA
BRANCH   5   7
ATOM      7  C   UNL     1       0.408   9.485  20.950  0.00  0.00    +0.000 A 
ATOM      8  C   UNL     1       0.032   9.473  22.298  0.00  0.00    +0.000 A 
ATOM      9  C   UNL     1      -0.773  10.487  22.838  0.00  0.00    +0.000 A 
ATOM     10  C   UNL     1      -1.226  11.566  22.061  0.00  0.00    +0.000 A 
ATOM     11  C   UNL     1      -0.822  11.585  20.714  0.00  0.00    +0.000 A 
ATOM     12  C   UNL     1      -0.012  10.571  20.171  0.00  0.00    +0.000 A 
BRANCH  10  13
ATOM     13  C   UNL     1      -2.091  12.698  22.650  0.00  0.00    +0.000 C 
ATOM     14  C   UNL     1      -3.145  12.181  23.657  0.00  0.00    +0.000 C 
ATOM     15  C   UNL     1      -1.188  13.706  23.393  0.00  0.00    +0.000 C 
ATOM     16  C   UNL     1      -2.857  13.460  21.546  0.00  0.00    +0.000 C 
ENDBRANCH  10  13
ENDBRANCH   5   7
ENDBRANCH   1   2
BRANCH   1  17
ATOM     17  C   UNL     1       3.261   4.142  19.286  0.00  0.00    +0.000 C 
BRANCH  17  24
ATOM     18  C   UNL     1       7.139   4.832  14.181  0.00  0.00    +0.000 C 
ATOM     19  O   UNL     1       8.215   5.397  14.052  0.00  0.00    +0.000 OA
ATOM     20  N   UNL     1       6.606   4.455  15.399  0.00  0.00    +0.000 N 
ATOM     21  C   UNL     1       7.298   4.826  16.631  0.00  0.00    +0.000 C 
ATOM     22  C   UNL     1       6.376   5.658  17.536  0.00  0.00    +0.000 C 
ATOM     23  N   UNL     1       5.089   4.977  17.762  0.00  0.00    +0.000 N 
ATOM     24  C   UNL     1       4.612   4.842  19.069  0.00  0.00    +0.000 C 
ATOM     25  O   UNL     1       5.290   5.263  20.011  0.00  0.00    +0.000 OA
ATOM     26  C   UNL     1       4.386   4.598  16.526  0.00  0.00    +0.000 C 
ATOM     27  C   UNL     1       5.307   3.798  15.581  0.00  0.00    +0.000 C 
BRANCH  18  28
ATOM     28  O   UNL     1       6.282   4.598  13.151  0.00  0.00    +0.000 OA
BRANCH  28  30
ATOM     29  C   UNL     1       5.506   2.773  11.836  0.00  0.00    +0.000 C 
ATOM     30  C   UNL     1       6.721   3.599  12.220  0.00  0.00    +0.000 C 
ENDBRANCH  28  30
ENDBRANCH  18  28
ENDBRANCH  17  24
ENDBRANCH   1  17
TORSDOF 7
ENDMDL
MODEL 2
REMARK VINA RESULT:      -7.5      0.312      1.237
REMARK  Name = 
REMARK  11 active torsions:
REMARK  status: ('A' for Active; 'I' for Inactive)
REMARK    1  A    between atoms: C_1  and  C_2
REMARK    2  A    between atoms: C_2  and  O_3
REMARK    3  A    between atoms: O_3  and  C_4
REMARK    4  A    between atoms: C_10  and  C_12
REMARK    5  A    between atoms: C_12  and  S_13
REMARK    6  A    between atoms: S_13  and  C_14
REMARK    7  A    between atoms: C_17  and  C_18
REMARK    8  A    between atoms: C_21  and  C_22
REMARK    9  A    between atoms: C_22  and  C_23
REMARK   10  A    between atoms: C_22  and  C_24
REMARK   11  A    between atoms: C_22  and  C_25
REMARK                            x       y       z     vdW  Elec       q    Type
REMARK                         _______ _______ _______ _____ _____    ______ ____
ROOT
ATOM      1  S   UNL     1       2.450   4.813  20.857  0.00  0.00    +0.000 S 
ENDROOT
BRANCH   1   2
ATOM      2  C   UNL     1       2.011   6.420  20.370  0.00  0.00    +0.000 A 
ATOM      3  N   UNL     1       2.399   7.015  19.261  0.00  0.00    +0.000 NA
ATOM      4  N   UNL     1       1.792   8.256  19.245  0.00  0.00    +0.000 NA
ATOM      5  C   UNL     1       1.082   8.349  20.353  0.00  0.00    +0.000 A 
ATOM      6  O   UNL     1       1.181   7.217  21.123  0.00  0.00    +0.000 OA
BRANCH   5   7
ATOM      7  C   UNL     1       0.277   9.457  20.861  0.00  0.00    +0.000 A 
ATOM      8  C   UNL     1      -0.397  10.294  19.965  0.00  0.00    +0.000 A 
ATOM      9  C   UNL     1      -1.108  11.417  20.411  0.00  0.00    +0.000 A 
ATOM     10  C   UNL     1      -1.191  11.747  21.775  0.00  0.00    +0.000 A 
ATOM     11  C   UNL     1      -0.534  10.886  22.672  0.00  0.00    +0.000 A 
ATOM     12  C   UNL     1       0.177   9.757  22.226  0.00  0.00    +0.000 A 
BRANCH  10  13
ATOM     13  C   UNL     1      -1.989  12.966  22.279  0.00  0.00    +0.000 C 
ATOM     14  C   UNL     1      -2.255  14.007  21.167  0.00  0.00    +0.000 C 
ATOM     15  C   UNL     1      -3.358  12.500  22.821  0.00  0.00    +0.000 C 
ATOM     16  C   UNL     1      -1.246  13.700  23.417  0.00  0.00    +0.000 C 
ENDBRANCH  10  13
ENDBRANCH   5   7
ENDBRANCH   1   2
BRANCH   1  17
ATOM     17  C   UNL     1       3.283   4.151  19.368  0.00  0.00    +0.000 C 
BRANCH  17  24
ATOM     18  C   UNL     1       7.097   4.801  14.209  0.00  0.00    +0.000 C 
ATOM     19  O   UNL     1       8.163   5.378  14.058  0.00  0.00    +0.000 OA
ATOM     20  N   UNL     1       6.583   4.439  15.440  0.00  0.00    +0.000 N 
ATOM     21  C   UNL     1       7.282   4.842  16.657  0.00  0.00    +0.000 C 
ATOM     22  C   UNL     1       6.358   5.678  17.557  0.00  0.00    +0.000 C 
ATOM     23  N   UNL     1       5.083   4.983  17.809  0.00  0.00    +0.000 N 
ATOM     24  C   UNL     1       4.622   4.866  19.124  0.00  0.00    +0.000 C 
ATOM     25  O   UNL     1       5.304   5.314  20.050  0.00  0.00    +0.000 OA
ATOM     26  C   UNL     1       4.373   4.571  16.588  0.00  0.00    +0.000 C 
ATOM     27  C   UNL     1       5.295   3.767  15.648  0.00  0.00    +0.000 C 
BRANCH  18  28
ATOM     28  O   UNL     1       6.233   4.536  13.193  0.00  0.00    +0.000 OA
BRANCH  28  30
ATOM     29  C   UNL     1       5.545   2.743  11.787  0.00  0.00    +0.000 C 
ATOM     30  C   UNL     1       6.719   3.603  12.219  0.00  0.00    +0.000 C 
ENDBRANCH  28  30
ENDBRANCH  18  28
ENDBRANCH  17  24
ENDBRANCH   1  17
TORSDOF 7
ENDMDL
MODEL 3
REMARK VINA RESULT:      -7.4      5.101      9.351
REMARK  Name = 
REMARK  11 active torsions:
REMARK  status: ('A' for Active; 'I' for Inactive)
REMARK    1  A    between atoms: C_1  and  C_2
REMARK    2  A    between atoms: C_2  and  O_3
REMARK    3  A    between atoms: O_3  and  C_4
REMARK    4  A    between atoms: C_10  and  C_12
REMARK    5  A    between atoms: C_12  and  S_13
REMARK    6  A    between atoms: S_13  and  C_14
REMARK    7  A    between atoms: C_17  and  C_18
REMARK    8  A    between atoms: C_21  and  C_22
REMARK    9  A    between atoms: C_22  and  C_23
REMARK   10  A    between atoms: C_22  and  C_24
REMARK   11  A    between atoms: C_22  and  C_25
REMARK                            x       y       z     vdW  Elec       q    Type
REMARK                         _______ _______ _______ _____ _____    ______ ____
ROOT
ATOM      1  S   UNL     1       6.112   5.976  16.397  0.00  0.00    +0.000 S 
ENDROOT
BRANCH   1   2
ATOM      2  C   UNL     1       7.151   6.882  17.452  0.00  0.00    +0.000 A 
ATOM      3  N   UNL     1       7.825   6.387  18.469  0.00  0.00    +0.000 NA
ATOM      4  N   UNL     1       8.552   7.432  19.007  0.00  0.00    +0.000 NA
ATOM      5  C   UNL     1       8.266   8.505  18.294  0.00  0.00    +0.000 A 
ATOM      6  O   UNL     1       7.372   8.230  17.289  0.00  0.00    +0.000 OA
BRANCH   5   7
ATOM      7  C   UNL     1       8.721   9.883  18.450  0.00  0.00    +0.000 A 
ATOM      8  C   UNL     1       8.235  10.876  17.592  0.00  0.00    +0.000 A 
ATOM      9  C   UNL     1       8.713  12.193  17.657  0.00  0.00    +0.000 A 
ATOM     10  C   UNL     1       9.688  12.582  18.591  0.00  0.00    +0.000 A 
ATOM     11  C   UNL     1      10.153  11.585  19.468  0.00  0.00    +0.000 A 
ATOM     12  C   UNL     1       9.671  10.265  19.407  0.00  0.00    +0.000 A 
BRANCH  10  13
ATOM     13  C   UNL     1      10.204  14.031  18.687  0.00  0.00    +0.000 C 
ATOM     14  C   UNL     1       9.073  15.078  18.556  0.00  0.00    +0.000 C 
ATOM     15  C   UNL     1      10.887  14.248  20.055  0.00  0.00    +0.000 C 
ATOM     16  C   UNL     1      11.236  14.341  17.580  0.00  0.00    +0.000 C 
ENDBRANCH  10  13
ENDBRANCH   5   7
ENDBRANCH   1   2
BRANCH   1  17
ATOM     17  C   UNL     1       4.484   6.772  16.648  0.00  0.00    +0.000 C 
BRANCH  17  24
ATOM     18  C   UNL     1       0.035   9.277  20.587  0.00  0.00    +0.000 C 
ATOM     19  O   UNL     1      -0.456   8.858  21.624  0.00  0.00    +0.000 OA
ATOM     20  N   UNL     1       1.223   8.814  20.053  0.00  0.00    +0.000 N 
ATOM     21  C   UNL     1       1.906   7.691  20.689  0.00  0.00    +0.000 C 
ATOM     22  C   UNL     1       2.086   6.536  19.691  0.00  0.00    +0.000 C 
ATOM     23  N   UNL     1       2.732   6.996  18.449  0.00  0.00    +0.000 N 
ATOM     24  C   UNL     1       3.830   6.288  17.953  0.00  0.00    +0.000 C 
ATOM     25  O   UNL     1       4.260   5.314  18.577  0.00  0.00    +0.000 OA
ATOM     26  C   UNL     1       2.051   8.129  17.803  0.00  0.00    +0.000 C 
ATOM     27  C   UNL     1       1.820   9.285  18.799  0.00  0.00    +0.000 C 
BRANCH  18  28
ATOM     28  O   UNL     1      -0.578  10.177  19.772  0.00  0.00    +0.000 OA
BRANCH  28  30
ATOM     29  C   UNL     1       0.325  12.179  20.688  0.00  0.00    +0.000 C 
ATOM     30  C   UNL     1      -0.952  11.406  20.410  0.00  0.00    +0.000 C 
ENDBRANCH  28  30
ENDBRANCH  18  28
ENDBRANCH  17  24
ENDBRANCH   1  17
TORSDOF 7
ENDMDL
MODEL 4
REMARK VINA RESULT:      -7.3      5.499      8.709
REMARK  Name = 
REMARK  11 active torsions:
REMARK  status: ('A' for Active; 'I' for Inactive)
REMARK    1  A    between atoms: C_1  and  C_2
REMARK    2  A    between atoms: C_2  and  O_3
REMARK    3  A    between atoms: O_3  and  C_4
REMARK    4  A    between atoms: C_10  and  C_12
REMARK    5  A    between atoms: C_12  and  S_13
REMARK    6  A    between atoms: S_13  and  C_14
REMARK    7  A    between atoms: C_17  and  C_18
REMARK    8  A    between atoms: C_21  and  C_22
REMARK    9  A    between atoms: C_22  and  C_23
REMARK   10  A    between atoms: C_22  and  C_24
REMARK   11  A    between atoms: C_22  and  C_25
REMARK                            x       y       z     vdW  Elec       q    Type
REMARK                         _______ _______ _______ _____ _____    ______ ____
ROOT
ATOM      1  S   UNL     1       6.737   6.581  15.913  0.00  0.00    +0.000 S 
ENDROOT
BRANCH   1   2
ATOM      2  C   UNL     1       7.544   7.341  17.249  0.00  0.00    +0.000 A 
ATOM      3  N   UNL     1       7.927   6.736  18.354  0.00  0.00    +0.000 NA
ATOM      4  N   UNL     1       8.563   7.689  19.126  0.00  0.00    +0.000 NA
ATOM      5  C   UNL     1       8.517   8.822  18.451  0.00  0.00    +0.000 A 
ATOM      6  O   UNL     1       7.874   8.677  17.247  0.00  0.00    +0.000 OA
BRANCH   5   7
ATOM      7  C   UNL     1       8.999  10.151  18.816  0.00  0.00    +0.000 A 
ATOM      8  C   UNL     1       8.877  11.208  17.906  0.00  0.00    +0.000 A 
ATOM      9  C   UNL     1       9.406  12.476  18.187  0.00  0.00    +0.000 A 
ATOM     10  C   UNL     1      10.067  12.751  19.396  0.00  0.00    +0.000 A 
ATOM     11  C   UNL     1      10.162  11.692  20.317  0.00  0.00    +0.000 A 
ATOM     12  C   UNL     1       9.629  10.421  20.038  0.00  0.00    +0.000 A 
BRANCH  10  13
ATOM     13  C   UNL     1      10.631  14.148  19.726  0.00  0.00    +0.000 C 
ATOM     14  C   UNL     1       9.955  15.273  18.908  0.00  0.00    +0.000 C 
ATOM     15  C   UNL     1      10.406  14.456  21.222  0.00  0.00    +0.000 C 
ATOM     16  C   UNL     1      12.146  14.230  19.440  0.00  0.00    +0.000 C 
ENDBRANCH  10  13
ENDBRANCH   5   7
ENDBRANCH   1   2
BRANCH   1  17
ATOM     17  C   UNL     1       7.056   4.803  16.204  0.00  0.00    +0.000 C 
BRANCH  17  24
ATOM     18  C   UNL     1       2.458   2.464  20.073  0.00  0.00    +0.000 C 
ATOM     19  O   UNL     1       1.462   1.797  19.836  0.00  0.00    +0.000 OA
ATOM     20  N   UNL     1       3.532   2.581  19.211  0.00  0.00    +0.000 N 
ATOM     21  C   UNL     1       3.462   1.963  17.890  0.00  0.00    +0.000 C 
ATOM     22  C   UNL     1       3.658   3.020  16.791  0.00  0.00    +0.000 C 
ATOM     23  N   UNL     1       4.886   3.804  17.014  0.00  0.00    +0.000 N 
ATOM     24  C   UNL     1       5.787   3.970  15.959  0.00  0.00    +0.000 C 
ATOM     25  O   UNL     1       5.558   3.430  14.872  0.00  0.00    +0.000 OA
ATOM     26  C   UNL     1       4.966   4.428  18.344  0.00  0.00    +0.000 C 
ATOM     27  C   UNL     1       4.728   3.392  19.463  0.00  0.00    +0.000 C 
BRANCH  18  28
ATOM     28  O   UNL     1       2.590   3.259  21.169  0.00  0.00    +0.000 OA
BRANCH  28  30
ATOM     29  C   UNL     1       1.926   5.385  20.332  0.00  0.00    +0.000 C 
ATOM     30  C   UNL     1       1.582   4.270  21.302  0.00  0.00    +0.000 C 
ENDBRANCH  28  30
ENDBRANCH  18  28
ENDBRANCH  17  24
ENDBRANCH   1  17
TORSDOF 7
ENDMDL
MODEL 5
REMARK VINA RESULT:      -7.3      5.353      9.216
REMARK  Name = 
REMARK  11 active torsions:
REMARK  status: ('A' for Active; 'I' for Inactive)
REMARK    1  A    between atoms: C_1  and  C_2
REMARK    2  A    between atoms: C_2  and  O_3
REMARK    3  A    between atoms: O_3  and  C_4
REMARK    4  A    between atoms: C_10  and  C_12
REMARK    5  A    between atoms: C_12  and  S_13
REMARK    6  A    between atoms: S_13  and  C_14
REMARK    7  A    between atoms: C_17  and  C_18
REMARK    8  A    between atoms: C_21  and  C_22
REMARK    9  A    between atoms: C_22  and  C_23
REMARK   10  A    between atoms: C_22  and  C_24
REMARK   11  A    between atoms: C_22  and  C_25
REMARK                            x       y       z     vdW  Elec       q    Type
REMARK                         _______ _______ _______ _____ _____    ______ ____
ROOT
ATOM      1  S   UNL     1       6.382   5.941  16.608  0.00  0.00    +0.000 S 
ENDROOT
BRANCH   1   2
ATOM      2  C   UNL     1       7.347   7.032  17.553  0.00  0.00    +0.000 A 
ATOM      3  N   UNL     1       7.980   6.722  18.666  0.00  0.00    +0.000 NA
ATOM      4  N   UNL     1       8.655   7.860  19.065  0.00  0.00    +0.000 NA
ATOM      5  C   UNL     1       8.381   8.799  18.180  0.00  0.00    +0.000 A 
ATOM      6  O   UNL     1       7.545   8.344  17.191  0.00  0.00    +0.000 OA
BRANCH   5   7
ATOM      7  C   UNL     1       8.796  10.198  18.138  0.00  0.00    +0.000 A 
ATOM      8  C   UNL     1       9.987  10.588  18.761  0.00  0.00    +0.000 A 
ATOM      9  C   UNL     1      10.374  11.935  18.815  0.00  0.00    +0.000 A 
ATOM     10  C   UNL     1       9.596  12.952  18.236  0.00  0.00    +0.000 A 
ATOM     11  C   UNL     1       8.415  12.550  17.587  0.00  0.00    +0.000 A 
ATOM     12  C   UNL     1       8.028  11.199  17.529  0.00  0.00    +0.000 A 
BRANCH  10  13
ATOM     13  C   UNL     1      10.023  14.433  18.268  0.00  0.00    +0.000 C 
ATOM     14  C   UNL     1       8.846  15.400  17.997  0.00  0.00    +0.000 C 
ATOM     15  C   UNL     1      10.599  14.776  19.660  0.00  0.00    +0.000 C 
ATOM     16  C   UNL     1      11.108  14.734  17.211  0.00  0.00    +0.000 C 
ENDBRANCH  10  13
ENDBRANCH   5   7
ENDBRANCH   1   2
BRANCH   1  17
ATOM     17  C   UNL     1       4.736   6.739  16.620  0.00  0.00    +0.000 C 
BRANCH  17  24
ATOM     18  C   UNL     1       0.078   9.792  19.870  0.00  0.00    +0.000 C 
ATOM     19  O   UNL     1      -0.487   9.523  20.920  0.00  0.00    +0.000 OA
ATOM     20  N   UNL     1       1.291   9.253  19.486  0.00  0.00    +0.000 N 
ATOM     21  C   UNL     1       1.914   8.224  20.314  0.00  0.00    +0.000 C 
ATOM     22  C   UNL     1       2.141   6.941  19.499  0.00  0.00    +0.000 C 
ATOM     23  N   UNL     1       2.874   7.221  18.252  0.00  0.00    +0.000 N 
ATOM     24  C   UNL     1       3.991   6.444  17.932  0.00  0.00    +0.000 C 
ATOM     25  O   UNL     1       4.364   5.564  18.712  0.00  0.00    +0.000 OA
ATOM     26  C   UNL     1       2.254   8.258  17.412  0.00  0.00    +0.000 C 
ATOM     27  C   UNL     1       1.976   9.542  18.222  0.00  0.00    +0.000 C 
BRANCH  18  28
ATOM     28  O   UNL     1      -0.467  10.575  18.900  0.00  0.00    +0.000 OA
BRANCH  28  30
ATOM     29  C   UNL     1      -2.241  11.182  17.435  0.00  0.00    +0.000 C 
ATOM     30  C   UNL     1      -1.769  10.166  18.460  0.00  0.00    +0.000 C 
ENDBRANCH  28  30
ENDBRANCH  18  28
ENDBRANCH  17  24
ENDBRANCH   1  17
TORSDOF 7
ENDMDL
MODEL 6
REMARK VINA RESULT:      -7.3      4.476     11.607
REMARK  Name = 
REMARK  11 active torsions:
REMARK  status: ('A' for Active; 'I' for Inactive)
REMARK    1  A    between atoms: C_1  and  C_2
REMARK    2  A    between atoms: C_2  and  O_3
REMARK    3  A    between atoms: O_3  and  C_4
REMARK    4  A    between atoms: C_10  and  C_12
REMARK    5  A    between atoms: C_12  and  S_13
REMARK    6  A    between atoms: S_13  and  C_14
REMARK    7  A    between atoms: C_17  and  C_18
REMARK    8  A    between atoms: C_21  and  C_22
REMARK    9  A    between atoms: C_22  and  C_23
REMARK   10  A    between atoms: C_22  and  C_24
REMARK   11  A    between atoms: C_22  and  C_25
REMARK                            x       y       z     vdW  Elec       q    Type
REMARK                         _______ _______ _______ _____ _____    ______ ____
ROOT
ATOM      1  S   UNL     1       0.844  12.014  19.274  0.00  0.00    +0.000 S 
ENDROOT
BRANCH   1   2
ATOM      2  C   UNL     1       1.485  10.524  18.656  0.00  0.00    +0.000 A 
ATOM      3  N   UNL     1       2.144  10.388  17.524  0.00  0.00    +0.000 NA
ATOM      4  N   UNL     1       2.509   9.058  17.438  0.00  0.00    +0.000 NA
ATOM      5  C   UNL     1       2.039   8.461  18.515  0.00  0.00    +0.000 A 
ATOM      6  O   UNL     1       1.367   9.333  19.334  0.00  0.00    +0.000 OA
BRANCH   5   7
ATOM      7  C   UNL     1       2.100   7.057  18.912  0.00  0.00    +0.000 A 
ATOM      8  C   UNL     1       1.837   6.698  20.238  0.00  0.00    +0.000 A 
ATOM      9  C   UNL     1       1.970   5.371  20.674  0.00  0.00    +0.000 A 
ATOM     10  C   UNL     1       2.358   4.340  19.802  0.00  0.00    +0.000 A 
ATOM     11  C   UNL     1       2.594   4.704  18.464  0.00  0.00    +0.000 A 
ATOM     12  C   UNL     1       2.458   6.033  18.024  0.00  0.00    +0.000 A 
BRANCH  10  13
ATOM     13  C   UNL     1       2.485   2.875  20.264  0.00  0.00    +0.000 C 
ATOM     14  C   UNL     1       1.924   2.648  21.688  0.00  0.00    +0.000 C 
ATOM     15  C   UNL     1       1.701   1.958  19.300  0.00  0.00    +0.000 C 
ATOM     16  C   UNL     1       3.958   2.411  20.280  0.00  0.00    +0.000 C 
ENDBRANCH  10  13
ENDBRANCH   5   7
ENDBRANCH   1   2
BRANCH   1  17
ATOM     17  C   UNL     1       0.581  11.641  21.046  0.00  0.00    +0.000 C 
BRANCH  17  24
ATOM     18  C   UNL     1      -5.000  13.781  23.464  0.00  0.00    +0.000 C 
ATOM     19  O   UNL     1      -5.280  14.803  24.074  0.00  0.00    +0.000 OA
ATOM     20  N   UNL     1      -3.860  13.627  22.699  0.00  0.00    +0.000 N 
ATOM     21  C   UNL     1      -2.861  14.692  22.675  0.00  0.00    +0.000 C 
ATOM     22  C   UNL     1      -1.497  14.162  23.142  0.00  0.00    +0.000 C 
ATOM     23  N   UNL     1      -1.100  12.962  22.384  0.00  0.00    +0.000 N 
ATOM     24  C   UNL     1       0.178  12.906  21.820  0.00  0.00    +0.000 C 
ATOM     25  O   UNL     1       0.938  13.871  21.937  0.00  0.00    +0.000 OA
ATOM     26  C   UNL     1      -2.102  11.884  22.401  0.00  0.00    +0.000 C 
ATOM     27  C   UNL     1      -3.491  12.404  21.977  0.00  0.00    +0.000 C 
BRANCH  18  28
ATOM     28  O   UNL     1      -5.723  12.632  23.547  0.00  0.00    +0.000 OA
BRANCH  28  30
ATOM     29  C   UNL     1      -7.388  12.985  21.885  0.00  0.00    +0.000 C 
ATOM     30  C   UNL     1      -7.136  12.798  23.370  0.00  0.00    +0.000 C 
ENDBRANCH  28  30
ENDBRANCH  18  28
ENDBRANCH  17  24
ENDBRANCH   1  17
TORSDOF 7
ENDMDL
MODEL 7
REMARK VINA RESULT:      -7.3      1.867      2.975
REMARK  Name = 
REMARK  11 active torsions:
REMARK  status: ('A' for Active; 'I' for Inactive)
REMARK    1  A    between atoms: C_1  and  C_2
REMARK    2  A    between atoms: C_2  and  O_3
REMARK    3  A    between atoms: O_3  and  C_4
REMARK    4  A    between atoms: C_10  and  C_12
REMARK    5  A    between atoms: C_12  and  S_13
REMARK    6  A    between atoms: S_13  and  C_14
REMARK    7  A    between atoms: C_17  and  C_18
REMARK    8  A    between atoms: C_21  and  C_22
REMARK    9  A    between atoms: C_22  and  C_23
REMARK   10  A    between atoms: C_22  and  C_24
REMARK   11  A    between atoms: C_22  and  C_25
REMARK                            x       y       z     vdW  Elec       q    Type
REMARK                         _______ _______ _______ _____ _____    ______ ____
ROOT
ATOM      1  S   UNL     1       2.289   5.153  20.842  0.00  0.00    +0.000 S 
ENDROOT
BRANCH   1   2
ATOM      2  C   UNL     1       1.841   6.779  20.427  0.00  0.00    +0.000 A 
ATOM      3  N   UNL     1       2.206   7.416  19.334  0.00  0.00    +0.000 NA
ATOM      4  N   UNL     1       1.599   8.656  19.380  0.00  0.00    +0.000 NA
ATOM      5  C   UNL     1       0.913   8.707  20.505  0.00  0.00    +0.000 A 
ATOM      6  O   UNL     1       1.027   7.546  21.229  0.00  0.00    +0.000 OA
BRANCH   5   7
ATOM      7  C   UNL     1       0.120   9.793  21.073  0.00  0.00    +0.000 A 
ATOM      8  C   UNL     1      -0.142   9.817  22.447  0.00  0.00    +0.000 A 
ATOM      9  C   UNL     1      -0.971  10.797  23.014  0.00  0.00    +0.000 A 
ATOM     10  C   UNL     1      -1.563  11.806  22.236  0.00  0.00    +0.000 A 
ATOM     11  C   UNL     1      -1.273  11.792  20.860  0.00  0.00    +0.000 A 
ATOM     12  C   UNL     1      -0.440  10.813  20.291  0.00  0.00    +0.000 A 
BRANCH  10  13
ATOM     13  C   UNL     1      -2.455  12.902  22.852  0.00  0.00    +0.000 C 
ATOM     14  C   UNL     1      -3.454  12.344  23.893  0.00  0.00    +0.000 C 
ATOM     15  C   UNL     1      -1.573  13.949  23.564  0.00  0.00    +0.000 C 
ATOM     16  C   UNL     1      -3.288  13.629  21.772  0.00  0.00    +0.000 C 
ENDBRANCH  10  13
ENDBRANCH   5   7
ENDBRANCH   1   2
BRANCH   1  17
ATOM     17  C   UNL     1       1.208   4.146  19.763  0.00  0.00    +0.000 C 
BRANCH  17  24
ATOM     18  C   UNL     1       7.131   4.819  17.305  0.00  0.00    +0.000 C 
ATOM     19  O   UNL     1       7.545   4.746  16.157  0.00  0.00    +0.000 OA
ATOM     20  N   UNL     1       5.804   5.014  17.636  0.00  0.00    +0.000 N 
ATOM     21  C   UNL     1       4.797   5.040  16.579  0.00  0.00    +0.000 C 
ATOM     22  C   UNL     1       3.733   3.957  16.821  0.00  0.00    +0.000 C 
ATOM     23  N   UNL     1       3.169   4.055  18.179  0.00  0.00    +0.000 N 
ATOM     24  C   UNL     1       1.780   4.059  18.338  0.00  0.00    +0.000 C 
ATOM     25  O   UNL     1       1.053   4.016  17.342  0.00  0.00    +0.000 OA
ATOM     26  C   UNL     1       4.177   4.031  19.250  0.00  0.00    +0.000 C 
ATOM     27  C   UNL     1       5.280   5.082  19.004  0.00  0.00    +0.000 C 
BRANCH  18  28
ATOM     28  O   UNL     1       7.910   4.612  18.401  0.00  0.00    +0.000 OA
BRANCH  28  30
ATOM     29  C   UNL     1       8.277   6.950  18.650  0.00  0.00    +0.000 C 
ATOM     30  C   UNL     1       7.880   5.672  19.367  0.00  0.00    +0.000 C 
ENDBRANCH  28  30
ENDBRANCH  18  28
ENDBRANCH  17  24
ENDBRANCH   1  17
TORSDOF 7
ENDMDL
MODEL 8
REMARK VINA RESULT:      -7.3      1.941      3.224
REMARK  Name = 
REMARK  11 active torsions:
REMARK  status: ('A' for Active; 'I' for Inactive)
REMARK    1  A    between atoms: C_1  and  C_2
REMARK    2  A    between atoms: C_2  and  O_3
REMARK    3  A    between atoms: O_3  and  C_4
REMARK    4  A    between atoms: C_10  and  C_12
REMARK    5  A    between atoms: C_12  and  S_13
REMARK    6  A    between atoms: S_13  and  C_14
REMARK    7  A    between atoms: C_17  and  C_18
REMARK    8  A    between atoms: C_21  and  C_22
REMARK    9  A    between atoms: C_22  and  C_23
REMARK   10  A    between atoms: C_22  and  C_24
REMARK   11  A    between atoms: C_22  and  C_25
REMARK                            x       y       z     vdW  Elec       q    Type
REMARK                         _______ _______ _______ _____ _____    ______ ____
ROOT
ATOM      1  S   UNL     1       2.199   4.731  21.074  0.00  0.00    +0.000 S 
ENDROOT
BRANCH   1   2
ATOM      2  C   UNL     1       1.850   6.383  20.671  0.00  0.00    +0.000 A 
ATOM      3  N   UNL     1       2.388   7.055  19.674  0.00  0.00    +0.000 NA
ATOM      4  N   UNL     1       1.805   8.308  19.683  0.00  0.00    +0.000 NA
ATOM      5  C   UNL     1       0.958   8.329  20.694  0.00  0.00    +0.000 A 
ATOM      6  O   UNL     1       0.940   7.137  21.374  0.00  0.00    +0.000 OA
BRANCH   5   7
ATOM      7  C   UNL     1       0.109   9.411  21.185  0.00  0.00    +0.000 A 
ATOM      8  C   UNL     1      -0.316  10.413  20.305  0.00  0.00    +0.000 A 
ATOM      9  C   UNL     1      -1.059  11.513  20.758  0.00  0.00    +0.000 A 
ATOM     10  C   UNL     1      -1.424  11.655  22.108  0.00  0.00    +0.000 A 
ATOM     11  C   UNL     1      -1.016  10.631  22.981  0.00  0.00    +0.000 A 
ATOM     12  C   UNL     1      -0.275   9.525  22.528  0.00  0.00    +0.000 A 
BRANCH  10  13
ATOM     13  C   UNL     1      -2.261  12.847  22.613  0.00  0.00    +0.000 C 
ATOM     14  C   UNL     1      -3.290  13.339  21.568  0.00  0.00    +0.000 C 
ATOM     15  C   UNL     1      -3.040  12.433  23.879  0.00  0.00    +0.000 C 
ATOM     16  C   UNL     1      -1.368  14.056  22.971  0.00  0.00    +0.000 C 
ENDBRANCH  10  13
ENDBRANCH   5   7
ENDBRANCH   1   2
BRANCH   1  17
ATOM     17  C   UNL     1       1.147   3.795  19.906  0.00  0.00    +0.000 C 
BRANCH  17  24
ATOM     18  C   UNL     1       7.027   4.889  17.497  0.00  0.00    +0.000 C 
ATOM     19  O   UNL     1       7.433   4.947  16.345  0.00  0.00    +0.000 OA
ATOM     20  N   UNL     1       5.698   5.011  17.854  0.00  0.00    +0.000 N 
ATOM     21  C   UNL     1       4.681   5.117  16.811  0.00  0.00    +0.000 C 
ATOM     22  C   UNL     1       3.651   3.985  16.946  0.00  0.00    +0.000 C 
ATOM     23  N   UNL     1       3.096   3.925  18.310  0.00  0.00    +0.000 N 
ATOM     24  C   UNL     1       1.709   3.872  18.477  0.00  0.00    +0.000 C 
ATOM     25  O   UNL     1       0.975   3.911  17.486  0.00  0.00    +0.000 OA
ATOM     26  C   UNL     1       4.114   3.820  19.367  0.00  0.00    +0.000 C 
ATOM     27  C   UNL     1       5.185   4.922  19.225  0.00  0.00    +0.000 C 
BRANCH  18  28
ATOM     28  O   UNL     1       7.821   4.593  18.561  0.00  0.00    +0.000 OA
BRANCH  28  30
ATOM     29  C   UNL     1       8.183   6.945  18.567  0.00  0.00    +0.000 C 
ATOM     30  C   UNL     1       8.096   5.700  19.431  0.00  0.00    +0.000 C 
ENDBRANCH  28  30
ENDBRANCH  18  28
ENDBRANCH  17  24
ENDBRANCH   1  17
TORSDOF 7
ENDMDL
MODEL 9
REMARK VINA RESULT:      -7.2      2.070      2.586
REMARK  Name = 
REMARK  11 active torsions:
REMARK  status: ('A' for Active; 'I' for Inactive)
REMARK    1  A    between atoms: C_1  and  C_2
REMARK    2  A    between atoms: C_2  and  O_3
REMARK    3  A    between atoms: O_3  and  C_4
REMARK    4  A    between atoms: C_10  and  C_12
REMARK    5  A    between atoms: C_12  and  S_13
REMARK    6  A    between atoms: S_13  and  C_14
REMARK    7  A    between atoms: C_17  and  C_18
REMARK    8  A    between atoms: C_21  and  C_22
REMARK    9  A    between atoms: C_22  and  C_23
REMARK   10  A    between atoms: C_22  and  C_24
REMARK   11  A    between atoms: C_22  and  C_25
REMARK                            x       y       z     vdW  Elec       q    Type
REMARK                         _______ _______ _______ _____ _____    ______ ____
ROOT
ATOM      1  S   UNL     1       2.564   3.528  20.371  0.00  0.00    +0.000 S 
ENDROOT
BRANCH   1   2
ATOM      2  C   UNL     1       2.251   4.905  19.361  0.00  0.00    +0.000 A 
ATOM      3  N   UNL     1       2.030   4.866  18.063  0.00  0.00    +0.000 NA
ATOM      4  N   UNL     1       1.785   6.166  17.666  0.00  0.00    +0.000 NA
ATOM      5  C   UNL     1       1.886   6.922  18.742  0.00  0.00    +0.000 A 
ATOM      6  O   UNL     1       2.189   6.185  19.860  0.00  0.00    +0.000 OA
BRANCH   5   7
ATOM      7  C   UNL     1       1.763   8.370  18.887  0.00  0.00    +0.000 A 
ATOM      8  C   UNL     1       1.214   8.907  20.057  0.00  0.00    +0.000 A 
ATOM      9  C   UNL     1       1.002  10.286  20.196  0.00  0.00    +0.000 A 
ATOM     10  C   UNL     1       1.342  11.194  19.178  0.00  0.00    +0.000 A 
ATOM     11  C   UNL     1       1.918  10.650  18.017  0.00  0.00    +0.000 A 
ATOM     12  C   UNL     1       2.135   9.267  17.877  0.00  0.00    +0.000 A 
BRANCH  10  13
ATOM     13  C   UNL     1       1.135  12.714  19.329  0.00  0.00    +0.000 C 
ATOM     14  C   UNL     1       1.088  13.166  20.808  0.00  0.00    +0.000 C 
ATOM     15  C   UNL     1       2.299  13.465  18.647  0.00  0.00    +0.000 C 
ATOM     16  C   UNL     1      -0.185  13.175  18.674  0.00  0.00    +0.000 C 
ENDBRANCH  10  13
ENDBRANCH   5   7
ENDBRANCH   1   2
BRANCH   1  17
ATOM     17  C   UNL     1       4.022   2.762  19.573  0.00  0.00    +0.000 C 
BRANCH  17  24
ATOM     18  C   UNL     1       6.964   4.769  14.198  0.00  0.00    +0.000 C 
ATOM     19  O   UNL     1       7.832   5.609  14.015  0.00  0.00    +0.000 OA
ATOM     20  N   UNL     1       6.693   4.192  15.424  0.00  0.00    +0.000 N 
ATOM     21  C   UNL     1       7.402   4.663  16.611  0.00  0.00    +0.000 C 
ATOM     22  C   UNL     1       6.406   5.162  17.670  0.00  0.00    +0.000 C 
ATOM     23  N   UNL     1       5.378   4.147  17.958  0.00  0.00    +0.000 N 
ATOM     24  C   UNL     1       5.108   3.812  19.289  0.00  0.00    +0.000 C 
ATOM     25  O   UNL     1       5.756   4.345  20.194  0.00  0.00    +0.000 OA
ATOM     26  C   UNL     1       4.660   3.664  16.768  0.00  0.00    +0.000 C 
ATOM     27  C   UNL     1       5.643   3.199  15.673  0.00  0.00    +0.000 C 
BRANCH  18  28
ATOM     28  O   UNL     1       6.085   4.372  13.238  0.00  0.00    +0.000 OA
BRANCH  28  30
ATOM     29  C   UNL     1       5.696   2.524  11.790  0.00  0.00    +0.000 C 
ATOM     30  C   UNL     1       6.669   3.631  12.159  0.00  0.00    +0.000 C 
ENDBRANCH  28  30
ENDBRANCH  18  28
ENDBRANCH  17  24
ENDBRANCH   1  17
TORSDOF 7
ENDMDL
