MODEL 1
REMARK VINA RESULT:      -8.0      0.000      0.000
REMARK  Name = 
REMARK  4 active torsions:
REMARK  status: ('A' for Active; 'I' for Inactive)
REMARK    1  A    between atoms: C_1  and  C_2
REMARK    2  A    between atoms: N_8  and  C_9
REMARK    3  A    between atoms: C_9  and  C_10
REMARK    4  A    between atoms: C_13  and  C_14
REMARK                            x       y       z     vdW  Elec       q    Type
REMARK                         _______ _______ _______ _____ _____    ______ ____
ROOT
ATOM      1  C   UNL     1       7.339   6.043  17.631  0.00  0.00    +0.000 A 
ATOM      2  C   UNL     1       8.062   6.174  18.819  0.00  0.00    +0.000 A 
ATOM      3  C   UNL     1       8.564   7.418  19.214  0.00  0.00    +0.000 A 
ATOM      4  C   UNL     1       8.376   8.576  18.442  0.00  0.00    +0.000 A 
ATOM      5  C   UNL     1       7.631   8.437  17.257  0.00  0.00    +0.000 A 
ATOM      6  C   UNL     1       7.111   7.195  16.860  0.00  0.00    +0.000 A 
ENDROOT
BRANCH   4   7
ATOM      7  C   UNL     1       8.939   9.879  18.875  0.00  0.00    +0.000 A 
ATOM      8  C   UNL     1       9.314  10.857  17.933  0.00  0.00    +0.000 A 
ATOM      9  C   UNL     1       9.895  12.070  18.321  0.00  0.00    +0.000 A 
ATOM     10  C   UNL     1      10.096  12.341  19.672  0.00  0.00    +0.000 A 
ATOM     11  C   UNL     1       9.717  11.404  20.625  0.00  0.00    +0.000 A 
ATOM     12  C   UNL     1       9.144  10.186  20.230  0.00  0.00    +0.000 A 
ENDBRANCH   4   7
BRANCH   1  13
ATOM     13  C   UNL     1       6.835   4.695  17.192  0.00  0.00    +0.000 C 
BRANCH  13  21
ATOM     14  C   UNL     1       1.362   2.823  21.547  0.00  0.00    +0.000 C 
ATOM     15  C   UNL     1       2.577   2.834  20.702  0.00  0.00    +0.000 A 
ATOM     16  C   UNL     1       3.820   2.209  20.938  0.00  0.00    +0.000 A 
ATOM     17  N   UNL     1       4.757   2.556  20.048  0.00  0.00    +0.000 NA
ATOM     18  N   UNL     1       4.072   3.308  19.134  0.00  0.00    +0.000 N 
ATOM     19  C   UNL     1       4.700   3.856  18.006  0.00  0.00    +0.000 C 
ATOM     20  O   UNL     1       4.042   4.179  17.023  0.00  0.00    +0.000 OA
ATOM     21  N   UNL     1       6.048   4.045  18.197  0.00  0.00    +0.000 N 
ATOM     22  C   UNL     1       2.757   3.484  19.504  0.00  0.00    +0.000 A 
ATOM     23  H   UNL     1       6.449   3.768  19.090  0.00  0.00    +0.000 HD
ENDBRANCH  13  21
ENDBRANCH   1  13
TORSDOF 3
ENDMDL
MODEL 2
REMARK VINA RESULT:      -7.8      7.288      9.514
REMARK  Name = 
REMARK  4 active torsions:
REMARK  status: ('A' for Active; 'I' for Inactive)
REMARK    1  A    between atoms: C_1  and  C_2
REMARK    2  A    between atoms: N_8  and  C_9
REMARK    3  A    between atoms: C_9  and  C_10
REMARK    4  A    between atoms: C_13  and  C_14
REMARK                            x       y       z     vdW  Elec       q    Type
REMARK                         _______ _______ _______ _____ _____    ______ ____
ROOT
ATOM      1  C   UNL     1       1.530   9.423  18.893  0.00  0.00    +0.000 A 
ATOM      2  C   UNL     1       1.268   8.918  20.169  0.00  0.00    +0.000 A 
ATOM      3  C   UNL     1       1.625   7.607  20.503  0.00  0.00    +0.000 A 
ATOM      4  C   UNL     1       2.245   6.747  19.582  0.00  0.00    +0.000 A 
ATOM      5  C   UNL     1       2.520   7.271  18.306  0.00  0.00    +0.000 A 
ATOM      6  C   UNL     1       2.179   8.590  17.967  0.00  0.00    +0.000 A 
ENDROOT
BRANCH   4   7
ATOM      7  C   UNL     1       2.592   5.353  19.957  0.00  0.00    +0.000 A 
ATOM      8  C   UNL     1       3.649   4.672  19.322  0.00  0.00    +0.000 A 
ATOM      9  C   UNL     1       3.956   3.341  19.625  0.00  0.00    +0.000 A 
ATOM     10  C   UNL     1       3.219   2.663  20.594  0.00  0.00    +0.000 A 
ATOM     11  C   UNL     1       2.184   3.316  21.252  0.00  0.00    +0.000 A 
ATOM     12  C   UNL     1       1.874   4.647  20.936  0.00  0.00    +0.000 A 
ENDBRANCH   4   7
BRANCH   1  13
ATOM     13  C   UNL     1       1.109  10.820  18.527  0.00  0.00    +0.000 C 
BRANCH  13  21
ATOM     14  C   UNL     1      -6.084  11.308  17.860  0.00  0.00    +0.000 C 
ATOM     15  C   UNL     1      -4.621  11.370  17.645  0.00  0.00    +0.000 A 
ATOM     16  C   UNL     1      -3.890  11.094  16.469  0.00  0.00    +0.000 A 
ATOM     17  N   UNL     1      -2.567  11.091  16.666  0.00  0.00    +0.000 NA
ATOM     18  N   UNL     1      -2.430  11.512  17.959  0.00  0.00    +0.000 N 
ATOM     19  C   UNL     1      -1.172  11.669  18.559  0.00  0.00    +0.000 C 
ATOM     20  O   UNL     1      -1.035  12.394  19.539  0.00  0.00    +0.000 OA
ATOM     21  N   UNL     1      -0.213  10.874  17.978  0.00  0.00    +0.000 N 
ATOM     22  C   UNL     1      -3.653  11.693  18.567  0.00  0.00    +0.000 A 
ATOM     23  H   UNL     1      -0.488  10.286  17.194  0.00  0.00    +0.000 HD
ENDBRANCH  13  21
ENDBRANCH   1  13
TORSDOF 3
ENDMDL
MODEL 3
REMARK VINA RESULT:      -7.8      7.160      9.475
REMARK  Name = 
REMARK  4 active torsions:
REMARK  status: ('A' for Active; 'I' for Inactive)
REMARK    1  A    between atoms: C_1  and  C_2
REMARK    2  A    between atoms: N_8  and  C_9
REMARK    3  A    between atoms: C_9  and  C_10
REMARK    4  A    between atoms: C_13  and  C_14
REMARK                            x       y       z     vdW  Elec       q    Type
REMARK                         _______ _______ _______ _____ _____    ______ ____
ROOT
ATOM      1  C   UNL     1       1.584   9.177  18.892  0.00  0.00    +0.000 A 
ATOM      2  C   UNL     1       2.208   8.318  17.984  0.00  0.00    +0.000 A 
ATOM      3  C   UNL     1       2.554   7.016  18.357  0.00  0.00    +0.000 A 
ATOM      4  C   UNL     1       2.303   6.519  19.647  0.00  0.00    +0.000 A 
ATOM      5  C   UNL     1       1.658   7.386  20.548  0.00  0.00    +0.000 A 
ATOM      6  C   UNL     1       1.294   8.690  20.177  0.00  0.00    +0.000 A 
ENDROOT
BRANCH   4   7
ATOM      7  C   UNL     1       2.701   5.140  20.023  0.00  0.00    +0.000 A 
ATOM      8  C   UNL     1       3.769   4.489  19.375  0.00  0.00    +0.000 A 
ATOM      9  C   UNL     1       4.123   3.170  19.680  0.00  0.00    +0.000 A 
ATOM     10  C   UNL     1       3.424   2.475  20.664  0.00  0.00    +0.000 A 
ATOM     11  C   UNL     1       2.380   3.098  21.336  0.00  0.00    +0.000 A 
ATOM     12  C   UNL     1       2.022   4.417  21.018  0.00  0.00    +0.000 A 
ENDBRANCH   4   7
BRANCH   1  13
ATOM     13  C   UNL     1       1.249  10.589  18.496  0.00  0.00    +0.000 C 
BRANCH  13  21
ATOM     14  C   UNL     1      -5.913  11.407  17.808  0.00  0.00    +0.000 C 
ATOM     15  C   UNL     1      -4.447  11.407  17.600  0.00  0.00    +0.000 A 
ATOM     16  C   UNL     1      -3.723  11.119  16.423  0.00  0.00    +0.000 A 
ATOM     17  N   UNL     1      -2.403  11.053  16.625  0.00  0.00    +0.000 NA
ATOM     18  N   UNL     1      -2.253  11.447  17.925  0.00  0.00    +0.000 N 
ATOM     19  C   UNL     1      -0.992  11.538  18.533  0.00  0.00    +0.000 C 
ATOM     20  O   UNL     1      -0.828  12.240  19.525  0.00  0.00    +0.000 OA
ATOM     21  N   UNL     1      -0.067  10.711  17.943  0.00  0.00    +0.000 N 
ATOM     22  C   UNL     1      -3.470  11.671  18.531  0.00  0.00    +0.000 A 
ATOM     23  H   UNL     1      -0.364  10.149  17.148  0.00  0.00    +0.000 HD
ENDBRANCH  13  21
ENDBRANCH   1  13
TORSDOF 3
ENDMDL
MODEL 4
REMARK VINA RESULT:      -7.7      0.286      1.456
REMARK  Name = 
REMARK  4 active torsions:
REMARK  status: ('A' for Active; 'I' for Inactive)
REMARK    1  A    between atoms: C_1  and  C_2
REMARK    2  A    between atoms: N_8  and  C_9
REMARK    3  A    between atoms: C_9  and  C_10
REMARK    4  A    between atoms: C_13  and  C_14
REMARK                            x       y       z     vdW  Elec       q    Type
REMARK                         _______ _______ _______ _____ _____    ______ ____
ROOT
ATOM      1  C   UNL     1       7.401   5.892  17.579  0.00  0.00    +0.000 A 
ATOM      2  C   UNL     1       7.238   6.992  16.734  0.00  0.00    +0.000 A 
ATOM      3  C   UNL     1       7.692   8.258  17.118  0.00  0.00    +0.000 A 
ATOM      4  C   UNL     1       8.317   8.481  18.356  0.00  0.00    +0.000 A 
ATOM      5  C   UNL     1       8.493   7.363  19.191  0.00  0.00    +0.000 A 
ATOM      6  C   UNL     1       8.053   6.087  18.807  0.00  0.00    +0.000 A 
ENDROOT
BRANCH   4   7
ATOM      7  C   UNL     1       8.770   9.839  18.746  0.00  0.00    +0.000 A 
ATOM      8  C   UNL     1       9.269  10.095  20.038  0.00  0.00    +0.000 A 
ATOM      9  C   UNL     1       9.650  11.381  20.441  0.00  0.00    +0.000 A 
ATOM     10  C   UNL     1       9.559  12.443  19.544  0.00  0.00    +0.000 A 
ATOM     11  C   UNL     1       9.090  12.217  18.256  0.00  0.00    +0.000 A 
ATOM     12  C   UNL     1       8.699  10.929  17.862  0.00  0.00    +0.000 A 
ENDBRANCH   4   7
BRANCH   1  13
ATOM     13  C   UNL     1       6.876   4.540  17.177  0.00  0.00    +0.000 C 
BRANCH  13  21
ATOM     14  C   UNL     1       1.333   2.949  21.555  0.00  0.00    +0.000 C 
ATOM     15  C   UNL     1       2.548   2.900  20.713  0.00  0.00    +0.000 A 
ATOM     16  C   UNL     1       3.768   2.235  20.962  0.00  0.00    +0.000 A 
ATOM     17  N   UNL     1       4.718   2.532  20.068  0.00  0.00    +0.000 NA
ATOM     18  N   UNL     1       4.062   3.291  19.139  0.00  0.00    +0.000 N 
ATOM     19  C   UNL     1       4.711   3.795  18.002  0.00  0.00    +0.000 C 
ATOM     20  O   UNL     1       4.066   4.123  17.011  0.00  0.00    +0.000 OA
ATOM     21  N   UNL     1       6.064   3.938  18.192  0.00  0.00    +0.000 N 
ATOM     22  C   UNL     1       2.754   3.521  19.502  0.00  0.00    +0.000 A 
ATOM     23  H   UNL     1       6.454   3.664  19.091  0.00  0.00    +0.000 HD
ENDBRANCH  13  21
ENDBRANCH   1  13
TORSDOF 3
ENDMDL
MODEL 5
REMARK VINA RESULT:      -7.7      5.149      7.508
REMARK  Name = 
REMARK  4 active torsions:
REMARK  status: ('A' for Active; 'I' for Inactive)
REMARK    1  A    between atoms: C_1  and  C_2
REMARK    2  A    between atoms: N_8  and  C_9
REMARK    3  A    between atoms: C_9  and  C_10
REMARK    4  A    between atoms: C_13  and  C_14
REMARK                            x       y       z     vdW  Elec       q    Type
REMARK                         _______ _______ _______ _____ _____    ______ ____
ROOT
ATOM      1  C   UNL     1       3.756   5.864  18.001  0.00  0.00    +0.000 A 
ATOM      2  C   UNL     1       3.758   4.537  17.566  0.00  0.00    +0.000 A 
ATOM      3  C   UNL     1       4.457   4.167  16.412  0.00  0.00    +0.000 A 
ATOM      4  C   UNL     1       5.172   5.101  15.643  0.00  0.00    +0.000 A 
ATOM      5  C   UNL     1       5.178   6.431  16.101  0.00  0.00    +0.000 A 
ATOM      6  C   UNL     1       4.491   6.808  17.266  0.00  0.00    +0.000 A 
ENDROOT
BRANCH   4   7
ATOM      7  C   UNL     1       5.886   4.684  14.411  0.00  0.00    +0.000 A 
ATOM      8  C   UNL     1       7.137   5.239  14.074  0.00  0.00    +0.000 A 
ATOM      9  C   UNL     1       7.799   4.897  12.889  0.00  0.00    +0.000 A 
ATOM     10  C   UNL     1       7.230   3.970  12.020  0.00  0.00    +0.000 A 
ATOM     11  C   UNL     1       6.007   3.391  12.336  0.00  0.00    +0.000 A 
ATOM     12  C   UNL     1       5.343   3.745  13.519  0.00  0.00    +0.000 A 
ENDBRANCH   4   7
BRANCH   1  13
ATOM     13  C   UNL     1       2.971   6.263  19.221  0.00  0.00    +0.000 C 
BRANCH  13  21
ATOM     14  C   UNL     1      -1.652  11.803  19.825  0.00  0.00    +0.000 C 
ATOM     15  C   UNL     1      -0.449  10.956  19.661  0.00  0.00    +0.000 A 
ATOM     16  C   UNL     1       0.633  11.124  18.771  0.00  0.00    +0.000 A 
ATOM     17  N   UNL     1       1.476  10.086  18.771  0.00  0.00    +0.000 NA
ATOM     18  N   UNL     1       1.013   9.292  19.783  0.00  0.00    +0.000 N 
ATOM     19  C   UNL     1       1.645   8.090  20.132  0.00  0.00    +0.000 C 
ATOM     20  O   UNL     1       1.479   7.598  21.243  0.00  0.00    +0.000 OA
ATOM     21  N   UNL     1       2.348   7.546  19.084  0.00  0.00    +0.000 N 
ATOM     22  C   UNL     1      -0.142   9.799  20.338  0.00  0.00    +0.000 A 
ATOM     23  H   UNL     1       2.358   8.049  18.200  0.00  0.00    +0.000 HD
ENDBRANCH  13  21
ENDBRANCH   1  13
TORSDOF 3
ENDMDL
MODEL 6
REMARK VINA RESULT:      -7.7      7.072      9.494
REMARK  Name = 
REMARK  4 active torsions:
REMARK  status: ('A' for Active; 'I' for Inactive)
REMARK    1  A    between atoms: C_1  and  C_2
REMARK    2  A    between atoms: N_8  and  C_9
REMARK    3  A    between atoms: C_9  and  C_10
REMARK    4  A    between atoms: C_13  and  C_14
REMARK                            x       y       z     vdW  Elec       q    Type
REMARK                         _______ _______ _______ _____ _____    ______ ____
ROOT
ATOM      1  C   UNL     1       1.652   9.058  18.856  0.00  0.00    +0.000 A 
ATOM      2  C   UNL     1       2.222   8.159  17.951  0.00  0.00    +0.000 A 
ATOM      3  C   UNL     1       2.529   6.853  18.343  0.00  0.00    +0.000 A 
ATOM      4  C   UNL     1       2.291   6.392  19.649  0.00  0.00    +0.000 A 
ATOM      5  C   UNL     1       1.701   7.300  20.547  0.00  0.00    +0.000 A 
ATOM      6  C   UNL     1       1.376   8.608  20.157  0.00  0.00    +0.000 A 
ENDROOT
BRANCH   4   7
ATOM      7  C   UNL     1       2.648   5.007  20.045  0.00  0.00    +0.000 A 
ATOM      8  C   UNL     1       1.998   4.367  21.118  0.00  0.00    +0.000 A 
ATOM      9  C   UNL     1       2.358   3.082  21.539  0.00  0.00    +0.000 A 
ATOM     10  C   UNL     1       3.371   2.395  20.874  0.00  0.00    +0.000 A 
ATOM     11  C   UNL     1       4.016   2.991  19.798  0.00  0.00    +0.000 A 
ATOM     12  C   UNL     1       3.658   4.284  19.388  0.00  0.00    +0.000 A 
ENDBRANCH   4   7
BRANCH   1  13
ATOM     13  C   UNL     1       1.359  10.474  18.438  0.00  0.00    +0.000 C 
BRANCH  13  21
ATOM     14  C   UNL     1      -5.793  11.416  17.808  0.00  0.00    +0.000 C 
ATOM     15  C   UNL     1      -4.329  11.400  17.592  0.00  0.00    +0.000 A 
ATOM     16  C   UNL     1      -3.615  11.129  16.405  0.00  0.00    +0.000 A 
ATOM     17  N   UNL     1      -2.295  11.038  16.598  0.00  0.00    +0.000 NA
ATOM     18  N   UNL     1      -2.133  11.398  17.906  0.00  0.00    +0.000 N 
ATOM     19  C   UNL     1      -0.867  11.456  18.509  0.00  0.00    +0.000 C 
ATOM     20  O   UNL     1      -0.687  12.131  19.517  0.00  0.00    +0.000 OA
ATOM     21  N   UNL     1       0.042  10.629  17.894  0.00  0.00    +0.000 N 
ATOM     22  C   UNL     1      -3.342  11.627  18.524  0.00  0.00    +0.000 A 
ATOM     23  H   UNL     1      -0.267  10.091  17.088  0.00  0.00    +0.000 HD
ENDBRANCH  13  21
ENDBRANCH   1  13
TORSDOF 3
ENDMDL
MODEL 7
REMARK VINA RESULT:      -7.7      1.263      1.930
REMARK  Name = 
REMARK  4 active torsions:
REMARK  status: ('A' for Active; 'I' for Inactive)
REMARK    1  A    between atoms: C_1  and  C_2
REMARK    2  A    between atoms: N_8  and  C_9
REMARK    3  A    between atoms: C_9  and  C_10
REMARK    4  A    between atoms: C_13  and  C_14
REMARK                            x       y       z     vdW  Elec       q    Type
REMARK                         _______ _______ _______ _____ _____    ______ ____
ROOT
ATOM      1  C   UNL     1       7.431   6.139  17.706  0.00  0.00    +0.000 A 
ATOM      2  C   UNL     1       8.133   6.347  18.896  0.00  0.00    +0.000 A 
ATOM      3  C   UNL     1       8.602   7.621  19.232  0.00  0.00    +0.000 A 
ATOM      4  C   UNL     1       8.400   8.733  18.398  0.00  0.00    +0.000 A 
ATOM      5  C   UNL     1       7.676   8.516  17.212  0.00  0.00    +0.000 A 
ATOM      6  C   UNL     1       7.189   7.244  16.874  0.00  0.00    +0.000 A 
ENDROOT
BRANCH   4   7
ATOM      7  C   UNL     1       8.928  10.070  18.769  0.00  0.00    +0.000 A 
ATOM      8  C   UNL     1       9.480  10.305  20.044  0.00  0.00    +0.000 A 
ATOM      9  C   UNL     1       9.933  11.571  20.429  0.00  0.00    +0.000 A 
ATOM     10  C   UNL     1       9.863  12.634  19.532  0.00  0.00    +0.000 A 
ATOM     11  C   UNL     1       9.344  12.428  18.261  0.00  0.00    +0.000 A 
ATOM     12  C   UNL     1       8.881  11.159  17.884  0.00  0.00    +0.000 A 
ENDBRANCH   4   7
BRANCH   1  13
ATOM     13  C   UNL     1       6.962   4.759  17.332  0.00  0.00    +0.000 C 
BRANCH  13  21
ATOM     14  C   UNL     1       0.374   2.223  18.942  0.00  0.00    +0.000 C 
ATOM     15  C   UNL     1       1.537   3.082  18.627  0.00  0.00    +0.000 A 
ATOM     16  C   UNL     1       1.596   4.215  17.786  0.00  0.00    +0.000 A 
ATOM     17  N   UNL     1       2.842   4.661  17.596  0.00  0.00    +0.000 NA
ATOM     18  N   UNL     1       3.594   3.893  18.441  0.00  0.00    +0.000 N 
ATOM     19  C   UNL     1       4.981   4.063  18.562  0.00  0.00    +0.000 C 
ATOM     20  O   UNL     1       5.572   3.669  19.562  0.00  0.00    +0.000 OA
ATOM     21  N   UNL     1       5.540   4.611  17.433  0.00  0.00    +0.000 N 
ATOM     22  C   UNL     1       2.829   2.940  19.077  0.00  0.00    +0.000 A 
ATOM     23  H   UNL     1       4.925   4.847  16.659  0.00  0.00    +0.000 HD
ENDBRANCH  13  21
ENDBRANCH   1  13
TORSDOF 3
ENDMDL
MODEL 8
REMARK VINA RESULT:      -7.7      1.282      1.667
REMARK  Name = 
REMARK  4 active torsions:
REMARK  status: ('A' for Active; 'I' for Inactive)
REMARK    1  A    between atoms: C_1  and  C_2
REMARK    2  A    between atoms: N_8  and  C_9
REMARK    3  A    between atoms: C_9  and  C_10
REMARK    4  A    between atoms: C_13  and  C_14
REMARK                            x       y       z     vdW  Elec       q    Type
REMARK                         _______ _______ _______ _____ _____    ______ ____
ROOT
ATOM      1  C   UNL     1       7.477   6.335  17.687  0.00  0.00    +0.000 A 
ATOM      2  C   UNL     1       8.222   6.481  18.860  0.00  0.00    +0.000 A 
ATOM      3  C   UNL     1       8.697   7.738  19.250  0.00  0.00    +0.000 A 
ATOM      4  C   UNL     1       8.458   8.893  18.487  0.00  0.00    +0.000 A 
ATOM      5  C   UNL     1       7.692   8.738  17.318  0.00  0.00    +0.000 A 
ATOM      6  C   UNL     1       7.199   7.483  16.927  0.00  0.00    +0.000 A 
ENDROOT
BRANCH   4   7
ATOM      7  C   UNL     1       8.993  10.210  18.914  0.00  0.00    +0.000 A 
ATOM      8  C   UNL     1       9.186  11.252  17.985  0.00  0.00    +0.000 A 
ATOM      9  C   UNL     1       9.739  12.481  18.360  0.00  0.00    +0.000 A 
ATOM     10  C   UNL     1      10.094  12.705  19.688  0.00  0.00    +0.000 A 
ATOM     11  C   UNL     1       9.896  11.704  20.630  0.00  0.00    +0.000 A 
ATOM     12  C   UNL     1       9.352  10.470  20.247  0.00  0.00    +0.000 A 
ENDBRANCH   4   7
BRANCH   1  13
ATOM     13  C   UNL     1       7.002   4.975  17.253  0.00  0.00    +0.000 C 
BRANCH  13  21
ATOM     14  C   UNL     1       0.467   2.353  18.940  0.00  0.00    +0.000 C 
ATOM     15  C   UNL     1       1.618   3.228  18.625  0.00  0.00    +0.000 A 
ATOM     16  C   UNL     1       1.651   4.389  17.822  0.00  0.00    +0.000 A 
ATOM     17  N   UNL     1       2.890   4.846  17.616  0.00  0.00    +0.000 NA
ATOM     18  N   UNL     1       3.666   4.055  18.416  0.00  0.00    +0.000 N 
ATOM     19  C   UNL     1       5.055   4.228  18.508  0.00  0.00    +0.000 C 
ATOM     20  O   UNL     1       5.672   3.804  19.479  0.00  0.00    +0.000 OA
ATOM     21  N   UNL     1       5.584   4.817  17.385  0.00  0.00    +0.000 N 
ATOM     22  C   UNL     1       2.922   3.077  19.038  0.00  0.00    +0.000 A 
ATOM     23  H   UNL     1       4.948   5.075  16.634  0.00  0.00    +0.000 HD
ENDBRANCH  13  21
ENDBRANCH   1  13
TORSDOF 3
ENDMDL
MODEL 9
REMARK VINA RESULT:      -7.6      5.163      7.532
REMARK  Name = 
REMARK  4 active torsions:
REMARK  status: ('A' for Active; 'I' for Inactive)
REMARK    1  A    between atoms: C_1  and  C_2
REMARK    2  A    between atoms: N_8  and  C_9
REMARK    3  A    between atoms: C_9  and  C_10
REMARK    4  A    between atoms: C_13  and  C_14
REMARK                            x       y       z     vdW  Elec       q    Type
REMARK                         _______ _______ _______ _____ _____    ______ ____
ROOT
ATOM      1  C   UNL     1       3.758   5.919  18.001  0.00  0.00    +0.000 A 
ATOM      2  C   UNL     1       4.356   6.859  17.157  0.00  0.00    +0.000 A 
ATOM      3  C   UNL     1       5.039   6.450  16.008  0.00  0.00    +0.000 A 
ATOM      4  C   UNL     1       5.163   5.095  15.656  0.00  0.00    +0.000 A 
ATOM      5  C   UNL     1       4.541   4.159  16.503  0.00  0.00    +0.000 A 
ATOM      6  C   UNL     1       3.841   4.562  17.651  0.00  0.00    +0.000 A 
ENDROOT
BRANCH   4   7
ATOM      7  C   UNL     1       5.912   4.689  14.442  0.00  0.00    +0.000 A 
ATOM      8  C   UNL     1       7.162   5.260  14.134  0.00  0.00    +0.000 A 
ATOM      9  C   UNL     1       7.858   4.928  12.966  0.00  0.00    +0.000 A 
ATOM     10  C   UNL     1       7.323   3.992  12.084  0.00  0.00    +0.000 A 
ATOM     11  C   UNL     1       6.102   3.396  12.372  0.00  0.00    +0.000 A 
ATOM     12  C   UNL     1       5.404   3.741  13.538  0.00  0.00    +0.000 A 
ENDBRANCH   4   7
BRANCH   1  13
ATOM     13  C   UNL     1       3.057   6.362  19.256  0.00  0.00    +0.000 C 
BRANCH  13  21
ATOM     14  C   UNL     1      -1.724  11.778  19.751  0.00  0.00    +0.000 C 
ATOM     15  C   UNL     1      -0.495  10.963  19.620  0.00  0.00    +0.000 A 
ATOM     16  C   UNL     1       0.611  11.167  18.768  0.00  0.00    +0.000 A 
ATOM     17  N   UNL     1       1.480  10.150  18.788  0.00  0.00    +0.000 NA
ATOM     18  N   UNL     1       1.004   9.336  19.777  0.00  0.00    +0.000 N 
ATOM     19  C   UNL     1       1.655   8.147  20.137  0.00  0.00    +0.000 C 
ATOM     20  O   UNL     1       1.466   7.641  21.238  0.00  0.00    +0.000 OA
ATOM     21  N   UNL     1       2.406   7.631  19.108  0.00  0.00    +0.000 N 
ATOM     22  C   UNL     1      -0.180   9.808  20.297  0.00  0.00    +0.000 A 
ATOM     23  H   UNL     1       2.432   8.142  18.230  0.00  0.00    +0.000 HD
ENDBRANCH  13  21
ENDBRANCH   1  13
TORSDOF 3
ENDMDL
