MODEL 1
REMARK VINA RESULT:      -7.4      0.000      0.000
REMARK  Name = 
REMARK  2 active torsions:
REMARK  status: ('A' for Active; 'I' for Inactive)
REMARK    1  A    between atoms: C_1  and  C_2
REMARK    2  A    between atoms: C_10  and  C_12
REMARK                            x       y       z     vdW  Elec       q    Type
REMARK                         _______ _______ _______ _____ _____    ______ ____
ROOT
ATOM      1  C   UNL     1       0.799  11.308  19.734  0.00  0.00    +0.000 C 
ATOM      2  C   UNL     1       0.891   9.933  20.276  0.00  0.00    +0.000 A 
ATOM      3  N   UNL     1       0.430   9.519  21.437  0.00  0.00    +0.000 NA
ATOM      4  N   UNL     1       0.767   8.193  21.591  0.00  0.00    +0.000 NA
ATOM      5  C   UNL     1       1.436   7.822  20.520  0.00  0.00    +0.000 A 
ATOM      6  N   UNL     1       1.493   8.881  19.651  0.00  0.00    +0.000 N 
ATOM      7  C   UNL     1       2.120   8.814  18.346  0.00  0.00    +0.000 C 
ATOM      8  C   UNL     1       2.271   7.351  17.916  0.00  0.00    +0.000 C 
ATOM      9  N   UNL     1       2.878   6.582  19.014  0.00  0.00    +0.000 N 
ATOM     10  C   UNL     1       4.069   5.851  19.025  0.00  0.00    +0.000 C 
ATOM     11  O   UNL     1       4.410   5.187  20.005  0.00  0.00    +0.000 OA
ATOM     12  C   UNL     1       2.023   6.489  20.209  0.00  0.00    +0.000 C 
ENDROOT
BRANCH  10  13
ATOM     13  C   UNL     1       4.965   5.779  17.839  0.00  0.00    +0.000 A 
ATOM     14  C   UNL     1       6.253   6.330  17.964  0.00  0.00    +0.000 A 
ATOM     15  C   UNL     1       7.181   6.218  16.924  0.00  0.00    +0.000 A 
ATOM     16  C   UNL     1       6.835   5.530  15.767  0.00  0.00    +0.000 A 
ATOM     17  C   UNL     1       5.546   5.007  15.630  0.00  0.00    +0.000 A 
ATOM     18  C   UNL     1       4.591   5.206  16.623  0.00  0.00    +0.000 A 
ATOM     19  O   UNL     1       5.151   4.254  14.551  0.00  0.00    +0.000 OA
ATOM     20  C   UNL     1       6.292   3.766  13.829  0.00  0.00    +0.000 C 
ATOM     21  C   UNL     1       7.267   4.903  13.577  0.00  0.00    +0.000 C 
ATOM     22  O   UNL     1       7.807   5.390  14.811  0.00  0.00    +0.000 OA
ENDBRANCH  10  13
TORSDOF 1
ENDMDL
MODEL 2
REMARK VINA RESULT:      -7.0      2.056      3.281
REMARK  Name = 
REMARK  2 active torsions:
REMARK  status: ('A' for Active; 'I' for Inactive)
REMARK    1  A    between atoms: C_1  and  C_2
REMARK    2  A    between atoms: C_10  and  C_12
REMARK                            x       y       z     vdW  Elec       q    Type
REMARK                         _______ _______ _______ _____ _____    ______ ____
ROOT
ATOM      1  C   UNL     1       2.553  13.791  18.198  0.00  0.00    +0.000 C 
ATOM      2  C   UNL     1       1.753  12.897  19.064  0.00  0.00    +0.000 A 
ATOM      3  N   UNL     1       1.046  13.256  20.115  0.00  0.00    +0.000 NA
ATOM      4  N   UNL     1       0.500  12.124  20.679  0.00  0.00    +0.000 NA
ATOM      5  C   UNL     1       0.891  11.091  19.963  0.00  0.00    +0.000 A 
ATOM      6  N   UNL     1       1.644  11.546  18.911  0.00  0.00    +0.000 N 
ATOM      7  C   UNL     1       2.202  10.681  17.892  0.00  0.00    +0.000 C 
ATOM      8  C   UNL     1       1.471   9.334  17.895  0.00  0.00    +0.000 C 
ATOM      9  N   UNL     1       1.402   8.822  19.273  0.00  0.00    +0.000 N 
ATOM     10  C   UNL     1       1.904   7.627  19.795  0.00  0.00    +0.000 C 
ATOM     11  O   UNL     1       1.696   7.296  20.964  0.00  0.00    +0.000 OA
ATOM     12  C   UNL     1       0.575   9.650  20.167  0.00  0.00    +0.000 C 
ENDROOT
BRANCH  10  13
ATOM     13  C   UNL     1       2.663   6.655  18.962  0.00  0.00    +0.000 A 
ATOM     14  C   UNL     1       2.211   5.323  18.945  0.00  0.00    +0.000 A 
ATOM     15  C   UNL     1       2.817   4.375  18.115  0.00  0.00    +0.000 A 
ATOM     16  C   UNL     1       3.858   4.760  17.279  0.00  0.00    +0.000 A 
ATOM     17  C   UNL     1       4.327   6.077  17.316  0.00  0.00    +0.000 A 
ATOM     18  C   UNL     1       3.790   6.995  18.215  0.00  0.00    +0.000 A 
ATOM     19  O   UNL     1       5.300   6.551  16.471  0.00  0.00    +0.000 OA
ATOM     20  C   UNL     1       5.465   5.677  15.345  0.00  0.00    +0.000 C 
ATOM     21  C   UNL     1       5.585   4.240  15.823  0.00  0.00    +0.000 C 
ATOM     22  O   UNL     1       4.366   3.806  16.437  0.00  0.00    +0.000 OA
ENDBRANCH  10  13
TORSDOF 1
ENDMDL
MODEL 3
REMARK VINA RESULT:      -6.6      3.041      7.514
REMARK  Name = 
REMARK  2 active torsions:
REMARK  status: ('A' for Active; 'I' for Inactive)
REMARK    1  A    between atoms: C_1  and  C_2
REMARK    2  A    between atoms: C_10  and  C_12
REMARK                            x       y       z     vdW  Elec       q    Type
REMARK                         _______ _______ _______ _____ _____    ______ ____
ROOT
ATOM      1  C   UNL     1       7.384   5.630  13.850  0.00  0.00    +0.000 C 
ATOM      2  C   UNL     1       6.578   4.749  14.725  0.00  0.00    +0.000 A 
ATOM      3  N   UNL     1       6.420   3.449  14.591  0.00  0.00    +0.000 NA
ATOM      4  N   UNL     1       5.553   3.014  15.569  0.00  0.00    +0.000 NA
ATOM      5  C   UNL     1       5.191   4.060  16.280  0.00  0.00    +0.000 A 
ATOM      6  N   UNL     1       5.853   5.163  15.804  0.00  0.00    +0.000 N 
ATOM      7  C   UNL     1       5.726   6.485  16.382  0.00  0.00    +0.000 C 
ATOM      8  C   UNL     1       5.158   6.380  17.802  0.00  0.00    +0.000 C 
ATOM      9  N   UNL     1       3.968   5.516  17.787  0.00  0.00    +0.000 N 
ATOM     10  C   UNL     1       2.656   5.816  18.161  0.00  0.00    +0.000 C 
ATOM     11  O   UNL     1       1.773   4.956  18.168  0.00  0.00    +0.000 OA
ATOM     12  C   UNL     1       4.263   4.114  17.443  0.00  0.00    +0.000 C 
ENDROOT
BRANCH  10  13
ATOM     13  C   UNL     1       2.257   7.171  18.631  0.00  0.00    +0.000 A 
ATOM     14  C   UNL     1       2.176   8.194  17.669  0.00  0.00    +0.000 A 
ATOM     15  C   UNL     1       1.720   9.469  18.019  0.00  0.00    +0.000 A 
ATOM     16  C   UNL     1       1.316   9.718  19.326  0.00  0.00    +0.000 A 
ATOM     17  C   UNL     1       1.423   8.710  20.289  0.00  0.00    +0.000 A 
ATOM     18  C   UNL     1       1.971   7.472  19.962  0.00  0.00    +0.000 A 
ATOM     19  O   UNL     1       0.978   8.855  21.580  0.00  0.00    +0.000 OA
ATOM     20  C   UNL     1       0.075   9.965  21.684  0.00  0.00    +0.000 C 
ATOM     21  C   UNL     1       0.676  11.183  21.005  0.00  0.00    +0.000 C 
ATOM     22  O   UNL     1       0.811  10.963  19.596  0.00  0.00    +0.000 OA
ENDBRANCH  10  13
TORSDOF 1
ENDMDL
MODEL 4
REMARK VINA RESULT:      -6.5      2.901      4.314
REMARK  Name = 
REMARK  2 active torsions:
REMARK  status: ('A' for Active; 'I' for Inactive)
REMARK    1  A    between atoms: C_1  and  C_2
REMARK    2  A    between atoms: C_10  and  C_12
REMARK                            x       y       z     vdW  Elec       q    Type
REMARK                         _______ _______ _______ _____ _____    ______ ____
ROOT
ATOM      1  C   UNL     1       2.529  14.041  18.201  0.00  0.00    +0.000 C 
ATOM      2  C   UNL     1       1.808  13.335  19.283  0.00  0.00    +0.000 A 
ATOM      3  N   UNL     1       1.327  13.876  20.383  0.00  0.00    +0.000 NA
ATOM      4  N   UNL     1       0.781  12.875  21.157  0.00  0.00    +0.000 NA
ATOM      5  C   UNL     1       0.945  11.738  20.516  0.00  0.00    +0.000 A 
ATOM      6  N   UNL     1       1.548  11.996  19.311  0.00  0.00    +0.000 N 
ATOM      7  C   UNL     1       1.841  10.975  18.326  0.00  0.00    +0.000 C 
ATOM      8  C   UNL     1       0.998   9.725  18.606  0.00  0.00    +0.000 C 
ATOM      9  N   UNL     1       1.116   9.368  20.028  0.00  0.00    +0.000 N 
ATOM     10  C   UNL     1       1.585   8.184  20.602  0.00  0.00    +0.000 C 
ATOM     11  O   UNL     1       1.549   7.998  21.820  0.00  0.00    +0.000 OA
ATOM     12  C   UNL     1       0.534  10.369  20.937  0.00  0.00    +0.000 C 
ENDROOT
BRANCH  10  13
ATOM     13  C   UNL     1       2.097   7.053  19.781  0.00  0.00    +0.000 A 
ATOM     14  C   UNL     1       2.745   7.370  18.573  0.00  0.00    +0.000 A 
ATOM     15  C   UNL     1       3.333   6.368  17.794  0.00  0.00    +0.000 A 
ATOM     16  C   UNL     1       3.298   5.049  18.233  0.00  0.00    +0.000 A 
ATOM     17  C   UNL     1       2.629   4.729  19.418  0.00  0.00    +0.000 A 
ATOM     18  C   UNL     1       1.959   5.713  20.141  0.00  0.00    +0.000 A 
ATOM     19  O   UNL     1       2.613   3.465  19.953  0.00  0.00    +0.000 OA
ATOM     20  C   UNL     1       3.654   2.659  19.382  0.00  0.00    +0.000 C 
ATOM     21  C   UNL     1       3.630   2.784  17.869  0.00  0.00    +0.000 C 
ATOM     22  O   UNL     1       3.951   4.120  17.465  0.00  0.00    +0.000 OA
ENDBRANCH  10  13
TORSDOF 1
ENDMDL
MODEL 5
REMARK VINA RESULT:      -6.3      3.131      4.841
REMARK  Name = 
REMARK  2 active torsions:
REMARK  status: ('A' for Active; 'I' for Inactive)
REMARK    1  A    between atoms: C_1  and  C_2
REMARK    2  A    between atoms: C_10  and  C_12
REMARK                            x       y       z     vdW  Elec       q    Type
REMARK                         _______ _______ _______ _____ _____    ______ ____
ROOT
ATOM      1  C   UNL     1      -0.032  14.570  18.673  0.00  0.00    +0.000 C 
ATOM      2  C   UNL     1      -0.183  13.794  19.924  0.00  0.00    +0.000 A 
ATOM      3  N   UNL     1      -0.395  14.286  21.126  0.00  0.00    +0.000 NA
ATOM      4  N   UNL     1      -0.416  13.242  22.025  0.00  0.00    +0.000 NA
ATOM      5  C   UNL     1      -0.210  12.130  21.353  0.00  0.00    +0.000 A 
ATOM      6  N   UNL     1      -0.104  12.436  20.021  0.00  0.00    +0.000 N 
ATOM      7  C   UNL     1       0.084  11.443  18.982  0.00  0.00    +0.000 C 
ATOM      8  C   UNL     1      -0.312  10.059  19.509  0.00  0.00    +0.000 C 
ATOM      9  N   UNL     1       0.337   9.830  20.809  0.00  0.00    +0.000 N 
ATOM     10  C   UNL     1       1.226   8.819  21.184  0.00  0.00    +0.000 C 
ATOM     11  O   UNL     1       1.627   8.710  22.344  0.00  0.00    +0.000 OA
ATOM     12  C   UNL     1      -0.136  10.735  21.870  0.00  0.00    +0.000 C 
ENDROOT
BRANCH  10  13
ATOM     13  C   UNL     1       1.692   7.779  20.227  0.00  0.00    +0.000 A 
ATOM     14  C   UNL     1       2.123   8.210  18.959  0.00  0.00    +0.000 A 
ATOM     15  C   UNL     1       2.660   7.302  18.042  0.00  0.00    +0.000 A 
ATOM     16  C   UNL     1       2.794   5.965  18.397  0.00  0.00    +0.000 A 
ATOM     17  C   UNL     1       2.339   5.530  19.646  0.00  0.00    +0.000 A 
ATOM     18  C   UNL     1       1.713   6.415  20.520  0.00  0.00    +0.000 A 
ATOM     19  O   UNL     1       2.502   4.244  20.099  0.00  0.00    +0.000 OA
ATOM     20  C   UNL     1       3.503   3.559  19.331  0.00  0.00    +0.000 C 
ATOM     21  C   UNL     1       3.240   3.757  17.849  0.00  0.00    +0.000 C 
ATOM     22  O   UNL     1       3.392   5.134  17.486  0.00  0.00    +0.000 OA
ENDBRANCH  10  13
TORSDOF 1
ENDMDL
MODEL 6
REMARK VINA RESULT:      -6.3      3.890      7.506
REMARK  Name = 
REMARK  2 active torsions:
REMARK  status: ('A' for Active; 'I' for Inactive)
REMARK    1  A    between atoms: C_1  and  C_2
REMARK    2  A    between atoms: C_10  and  C_12
REMARK                            x       y       z     vdW  Elec       q    Type
REMARK                         _______ _______ _______ _____ _____    ______ ____
ROOT
ATOM      1  C   UNL     1       5.814   3.038  11.965  0.00  0.00    +0.000 C 
ATOM      2  C   UNL     1       6.584   3.969  12.821  0.00  0.00    +0.000 A 
ATOM      3  N   UNL     1       7.791   4.435  12.579  0.00  0.00    +0.000 NA
ATOM      4  N   UNL     1       8.175   5.221  13.643  0.00  0.00    +0.000 NA
ATOM      5  C   UNL     1       7.194   5.215  14.521  0.00  0.00    +0.000 A 
ATOM      6  N   UNL     1       6.158   4.473  14.014  0.00  0.00    +0.000 N 
ATOM      7  C   UNL     1       4.894   4.290  14.699  0.00  0.00    +0.000 C 
ATOM      8  C   UNL     1       4.723   5.370  15.773  0.00  0.00    +0.000 C 
ATOM      9  N   UNL     1       5.946   5.444  16.588  0.00  0.00    +0.000 N 
ATOM     10  C   UNL     1       6.101   5.253  17.963  0.00  0.00    +0.000 C 
ATOM     11  O   UNL     1       7.186   5.428  18.521  0.00  0.00    +0.000 OA
ATOM     12  C   UNL     1       7.125   5.907  15.838  0.00  0.00    +0.000 C 
ENDROOT
BRANCH  10  13
ATOM     13  C   UNL     1       4.959   4.890  18.847  0.00  0.00    +0.000 A 
ATOM     14  C   UNL     1       4.244   5.941  19.447  0.00  0.00    +0.000 A 
ATOM     15  C   UNL     1       3.104   5.682  20.215  0.00  0.00    +0.000 A 
ATOM     16  C   UNL     1       2.660   4.374  20.362  0.00  0.00    +0.000 A 
ATOM     17  C   UNL     1       3.387   3.325  19.790  0.00  0.00    +0.000 A 
ATOM     18  C   UNL     1       4.576   3.575  19.111  0.00  0.00    +0.000 A 
ATOM     19  O   UNL     1       2.974   2.016  19.830  0.00  0.00    +0.000 OA
ATOM     20  C   UNL     1       1.580   1.934  20.160  0.00  0.00    +0.000 C 
ATOM     21  C   UNL     1       1.285   2.802  21.370  0.00  0.00    +0.000 C 
ATOM     22  O   UNL     1       1.499   4.185  21.065  0.00  0.00    +0.000 OA
ENDBRANCH  10  13
TORSDOF 1
ENDMDL
MODEL 7
REMARK VINA RESULT:      -6.3      3.278      7.975
REMARK  Name = 
REMARK  2 active torsions:
REMARK  status: ('A' for Active; 'I' for Inactive)
REMARK    1  A    between atoms: C_1  and  C_2
REMARK    2  A    between atoms: C_10  and  C_12
REMARK                            x       y       z     vdW  Elec       q    Type
REMARK                         _______ _______ _______ _____ _____    ______ ____
ROOT
ATOM      1  C   UNL     1       7.833   5.161  18.761  0.00  0.00    +0.000 C 
ATOM      2  C   UNL     1       6.922   5.700  17.726  0.00  0.00    +0.000 A 
ATOM      3  N   UNL     1       7.215   5.905  16.459  0.00  0.00    +0.000 NA
ATOM      4  N   UNL     1       6.118   6.468  15.845  0.00  0.00    +0.000 NA
ATOM      5  C   UNL     1       5.175   6.604  16.753  0.00  0.00    +0.000 A 
ATOM      6  N   UNL     1       5.632   6.088  17.939  0.00  0.00    +0.000 N 
ATOM      7  C   UNL     1       4.836   6.031  19.148  0.00  0.00    +0.000 C 
ATOM      8  C   UNL     1       3.350   6.179  18.800  0.00  0.00    +0.000 C 
ATOM      9  N   UNL     1       3.173   7.337  17.910  0.00  0.00    +0.000 N 
ATOM     10  C   UNL     1       2.404   8.488  18.103  0.00  0.00    +0.000 C 
ATOM     11  O   UNL     1       2.290   9.343  17.223  0.00  0.00    +0.000 OA
ATOM     12  C   UNL     1       3.807   7.167  16.591  0.00  0.00    +0.000 C 
ENDROOT
BRANCH  10  13
ATOM     13  C   UNL     1       1.629   8.722  19.352  0.00  0.00    +0.000 A 
ATOM     14  C   UNL     1       1.799   7.803  20.403  0.00  0.00    +0.000 A 
ATOM     15  C   UNL     1       1.176   8.008  21.638  0.00  0.00    +0.000 A 
ATOM     16  C   UNL     1       0.403   9.145  21.835  0.00  0.00    +0.000 A 
ATOM     17  C   UNL     1       0.209  10.044  20.782  0.00  0.00    +0.000 A 
ATOM     18  C   UNL     1       0.747   9.788  19.524  0.00  0.00    +0.000 A 
ATOM     19  O   UNL     1      -0.480  11.225  20.919  0.00  0.00    +0.000 OA
ATOM     20  C   UNL     1      -0.610  11.578  22.304  0.00  0.00    +0.000 C 
ATOM     21  C   UNL     1      -1.101  10.379  23.097  0.00  0.00    +0.000 C 
ATOM     22  O   UNL     1      -0.126   9.330  23.086  0.00  0.00    +0.000 OA
ENDBRANCH  10  13
TORSDOF 1
ENDMDL
MODEL 8
REMARK VINA RESULT:      -6.3      2.320      4.132
REMARK  Name = 
REMARK  2 active torsions:
REMARK  status: ('A' for Active; 'I' for Inactive)
REMARK    1  A    between atoms: C_1  and  C_2
REMARK    2  A    between atoms: C_10  and  C_12
REMARK                            x       y       z     vdW  Elec       q    Type
REMARK                         _______ _______ _______ _____ _____    ______ ____
ROOT
ATOM      1  C   UNL     1       2.884  13.694  17.802  0.00  0.00    +0.000 C 
ATOM      2  C   UNL     1       1.939  13.090  18.768  0.00  0.00    +0.000 A 
ATOM      3  N   UNL     1       1.228  13.733  19.671  0.00  0.00    +0.000 NA
ATOM      4  N   UNL     1       0.522  12.807  20.408  0.00  0.00    +0.000 NA
ATOM      5  C   UNL     1       0.822  11.612  19.945  0.00  0.00    +0.000 A 
ATOM      6  N   UNL     1       1.677  11.756  18.882  0.00  0.00    +0.000 N 
ATOM      7  C   UNL     1       2.178  10.644  18.100  0.00  0.00    +0.000 C 
ATOM      8  C   UNL     1       1.292   9.413  18.319  0.00  0.00    +0.000 C 
ATOM      9  N   UNL     1       1.091   9.209  19.762  0.00  0.00    +0.000 N 
ATOM     10  C   UNL     1       1.419   8.102  20.550  0.00  0.00    +0.000 C 
ATOM     11  O   UNL     1       1.114   8.044  21.742  0.00  0.00    +0.000 OA
ATOM     12  C   UNL     1       0.325  10.287  20.408  0.00  0.00    +0.000 C 
ENDROOT
BRANCH  10  13
ATOM     13  C   UNL     1       2.098   6.902  19.987  0.00  0.00    +0.000 A 
ATOM     14  C   UNL     1       1.711   5.645  20.485  0.00  0.00    +0.000 A 
ATOM     15  C   UNL     1       2.237   4.469  19.940  0.00  0.00    +0.000 A 
ATOM     16  C   UNL     1       3.130   4.545  18.878  0.00  0.00    +0.000 A 
ATOM     17  C   UNL     1       3.537   5.795  18.401  0.00  0.00    +0.000 A 
ATOM     18  C   UNL     1       3.090   6.965  19.010  0.00  0.00    +0.000 A 
ATOM     19  O   UNL     1       4.357   5.952  17.311  0.00  0.00    +0.000 OA
ATOM     20  C   UNL     1       4.402   4.747  16.532  0.00  0.00    +0.000 C 
ATOM     21  C   UNL     1       4.656   3.557  17.439  0.00  0.00    +0.000 C 
ATOM     22  O   UNL     1       3.558   3.360  18.338  0.00  0.00    +0.000 OA
ENDBRANCH  10  13
TORSDOF 1
ENDMDL
MODEL 9
REMARK VINA RESULT:      -6.2      3.068      4.762
REMARK  Name = 
REMARK  2 active torsions:
REMARK  status: ('A' for Active; 'I' for Inactive)
REMARK    1  A    between atoms: C_1  and  C_2
REMARK    2  A    between atoms: C_10  and  C_12
REMARK                            x       y       z     vdW  Elec       q    Type
REMARK                         _______ _______ _______ _____ _____    ______ ____
ROOT
ATOM      1  C   UNL     1      -2.077  11.458  23.216  0.00  0.00    +0.000 C 
ATOM      2  C   UNL     1      -1.329  11.688  21.959  0.00  0.00    +0.000 A 
ATOM      3  N   UNL     1      -1.527  12.665  21.101  0.00  0.00    +0.000 NA
ATOM      4  N   UNL     1      -0.668  12.491  20.038  0.00  0.00    +0.000 NA
ATOM      5  C   UNL     1       0.036  11.403  20.265  0.00  0.00    +0.000 A 
ATOM      6  N   UNL     1      -0.323  10.896  21.488  0.00  0.00    +0.000 N 
ATOM      7  C   UNL     1       0.286   9.722  22.079  0.00  0.00    +0.000 C 
ATOM      8  C   UNL     1       1.629   9.435  21.400  0.00  0.00    +0.000 C 
ATOM      9  N   UNL     1       1.451   9.459  19.940  0.00  0.00    +0.000 N 
ATOM     10  C   UNL     1       1.688   8.448  19.006  0.00  0.00    +0.000 C 
ATOM     11  O   UNL     1       1.566   8.645  17.795  0.00  0.00    +0.000 OA
ATOM     12  C   UNL     1       1.091  10.787  19.414  0.00  0.00    +0.000 C 
ENDROOT
BRANCH  10  13
ATOM     13  C   UNL     1       2.161   7.094  19.407  0.00  0.00    +0.000 A 
ATOM     14  C   UNL     1       1.531   6.487  20.508  0.00  0.00    +0.000 A 
ATOM     15  C   UNL     1       1.858   5.181  20.886  0.00  0.00    +0.000 A 
ATOM     16  C   UNL     1       2.794   4.467  20.148  0.00  0.00    +0.000 A 
ATOM     17  C   UNL     1       3.442   5.080  19.071  0.00  0.00    +0.000 A 
ATOM     18  C   UNL     1       3.189   6.413  18.757  0.00  0.00    +0.000 A 
ATOM     19  O   UNL     1       4.323   4.419  18.250  0.00  0.00    +0.000 OA
ATOM     20  C   UNL     1       4.181   2.998  18.393  0.00  0.00    +0.000 C 
ATOM     21  C   UNL     1       4.176   2.627  19.866  0.00  0.00    +0.000 C 
ATOM     22  O   UNL     1       3.023   3.168  20.521  0.00  0.00    +0.000 OA
ENDBRANCH  10  13
TORSDOF 1
ENDMDL
