MODEL 1
REMARK VINA RESULT:      -7.5      0.000      0.000
REMARK  Name = 
REMARK  4 active torsions:
REMARK  status: ('A' for Active; 'I' for Inactive)
REMARK    1  A    between atoms: C_1  and  S_2
REMARK    2  A    between atoms: S_2  and  C_3
REMARK    3  A    between atoms: N_5  and  C_6
REMARK    4  A    between atoms: C_16  and  C_17
REMARK                            x       y       z     vdW  Elec       q    Type
REMARK                         _______ _______ _______ _____ _____    ______ ____
ROOT
ATOM      1  C   UNL     1       3.477   4.036  19.644  0.00  0.00    +0.000 A 
ATOM      2  N   UNL     1       4.349   3.666  18.707  0.00  0.00    +0.000 NA
ATOM      3  N   UNL     1       4.458   4.730  17.871  0.00  0.00    +0.000 N 
ATOM      4  C   UNL     1       3.671   5.788  18.319  0.00  0.00    +0.000 A 
ATOM      5  N   UNL     1       3.506   6.997  17.714  0.00  0.00    +0.000 NA
ATOM      6  C   UNL     1       2.644   7.770  18.306  0.00  0.00    +0.000 A 
ATOM      7  C   UNL     1       2.342   9.136  17.761  0.00  0.00    +0.000 C 
ATOM      8  N   UNL     1       1.946   7.427  19.448  0.00  0.00    +0.000 N 
ATOM      9  C   UNL     1       2.080   6.211  20.093  0.00  0.00    +0.000 A 
ATOM     10  O   UNL     1       1.438   5.948  21.102  0.00  0.00    +0.000 OA
ATOM     11  C   UNL     1       3.018   5.339  19.447  0.00  0.00    +0.000 A 
ATOM     12  H   UNL     1       1.281   8.064  19.862  0.00  0.00    +0.000 HD
ENDROOT
BRANCH   3  13
ATOM     13  C   UNL     1       5.335   4.692  16.750  0.00  0.00    +0.000 A 
ATOM     14  C   UNL     1       4.823   4.287  15.504  0.00  0.00    +0.000 A 
ATOM     15  C   UNL     1       5.645   4.262  14.382  0.00  0.00    +0.000 A 
ATOM     16  F   UNL     1       5.135   3.888  13.201  0.00  0.00    +0.000 F 
ATOM     17  C   UNL     1       6.979   4.626  14.464  0.00  0.00    +0.000 A 
ATOM     18  C   UNL     1       7.503   5.023  15.692  0.00  0.00    +0.000 A 
ATOM     19  C   UNL     1       6.691   5.064  16.839  0.00  0.00    +0.000 A 
ATOM     20 CL   UNL     1       7.521   5.456  18.308  0.00  0.00    +0.000 Cl
ENDBRANCH   3  13
BRANCH   1  22
ATOM     21  C   UNL     1       1.310   2.547  20.458  0.00  0.00    +0.000 C 
ATOM     22  S   UNL     1       3.011   2.946  20.926  0.00  0.00    +0.000 S 
ENDBRANCH   1  22
TORSDOF 2
ENDMDL
MODEL 2
REMARK VINA RESULT:      -6.8      1.610      3.366
REMARK  Name = 
REMARK  4 active torsions:
REMARK  status: ('A' for Active; 'I' for Inactive)
REMARK    1  A    between atoms: C_1  and  S_2
REMARK    2  A    between atoms: S_2  and  C_3
REMARK    3  A    between atoms: N_5  and  C_6
REMARK    4  A    between atoms: C_16  and  C_17
REMARK                            x       y       z     vdW  Elec       q    Type
REMARK                         _______ _______ _______ _____ _____    ______ ____
ROOT
ATOM      1  C   UNL     1       3.022   6.553  18.636  0.00  0.00    +0.000 A 
ATOM      2  N   UNL     1       3.791   6.656  17.552  0.00  0.00    +0.000 NA
ATOM      3  N   UNL     1       4.467   5.482  17.473  0.00  0.00    +0.000 N 
ATOM      4  C   UNL     1       4.083   4.625  18.500  0.00  0.00    +0.000 A 
ATOM      5  N   UNL     1       4.576   3.381  18.755  0.00  0.00    +0.000 NA
ATOM      6  C   UNL     1       4.098   2.833  19.832  0.00  0.00    +0.000 A 
ATOM      7  C   UNL     1       4.546   1.465  20.258  0.00  0.00    +0.000 C 
ATOM      8  N   UNL     1       3.170   3.431  20.664  0.00  0.00    +0.000 N 
ATOM      9  C   UNL     1       2.644   4.692  20.446  0.00  0.00    +0.000 A 
ATOM     10  O   UNL     1       1.825   5.184  21.212  0.00  0.00    +0.000 OA
ATOM     11  C   UNL     1       3.170   5.318  19.267  0.00  0.00    +0.000 A 
ATOM     12  H   UNL     1       2.837   2.963  21.494  0.00  0.00    +0.000 HD
ENDROOT
BRANCH   3  13
ATOM     13  C   UNL     1       5.378   5.234  16.408  0.00  0.00    +0.000 A 
ATOM     14  C   UNL     1       4.921   4.537  15.273  0.00  0.00    +0.000 A 
ATOM     15  C   UNL     1       5.777   4.299  14.204  0.00  0.00    +0.000 A 
ATOM     16  F   UNL     1       5.318   3.648  13.126  0.00  0.00    +0.000 F 
ATOM     17  C   UNL     1       7.093   4.731  14.230  0.00  0.00    +0.000 A 
ATOM     18  C   UNL     1       7.563   5.415  15.349  0.00  0.00    +0.000 A 
ATOM     19  C   UNL     1       6.716   5.675  16.440  0.00  0.00    +0.000 A 
ATOM     20 CL   UNL     1       7.485   6.422  17.800  0.00  0.00    +0.000 Cl
ENDBRANCH   3  13
BRANCH   1  22
ATOM     21  C   UNL     1       2.145   9.003  17.739  0.00  0.00    +0.000 C 
ATOM     22  S   UNL     1       1.988   7.868  19.139  0.00  0.00    +0.000 S 
ENDBRANCH   1  22
TORSDOF 2
ENDMDL
MODEL 3
REMARK VINA RESULT:      -6.8      4.145      6.856
REMARK  Name = 
REMARK  4 active torsions:
REMARK  status: ('A' for Active; 'I' for Inactive)
REMARK    1  A    between atoms: C_1  and  S_2
REMARK    2  A    between atoms: S_2  and  C_3
REMARK    3  A    between atoms: N_5  and  C_6
REMARK    4  A    between atoms: C_16  and  C_17
REMARK                            x       y       z     vdW  Elec       q    Type
REMARK                         _______ _______ _______ _____ _____    ______ ____
ROOT
ATOM      1  C   UNL     1       3.740   6.607  17.962  0.00  0.00    +0.000 A 
ATOM      2  N   UNL     1       3.133   7.729  18.347  0.00  0.00    +0.000 NA
ATOM      3  N   UNL     1       2.330   7.372  19.382  0.00  0.00    +0.000 N 
ATOM      4  C   UNL     1       2.470   6.016  19.665  0.00  0.00    +0.000 A 
ATOM      5  N   UNL     1       1.796   5.304  20.611  0.00  0.00    +0.000 NA
ATOM      6  C   UNL     1       2.061   4.032  20.604  0.00  0.00    +0.000 A 
ATOM      7  C   UNL     1       1.395   3.106  21.580  0.00  0.00    +0.000 C 
ATOM      8  N   UNL     1       2.945   3.425  19.731  0.00  0.00    +0.000 N 
ATOM      9  C   UNL     1       3.649   4.107  18.755  0.00  0.00    +0.000 A 
ATOM     10  O   UNL     1       4.420   3.528  18.000  0.00  0.00    +0.000 OA
ATOM     11  C   UNL     1       3.359   5.512  18.739  0.00  0.00    +0.000 A 
ATOM     12  H   UNL     1       3.108   2.430  19.764  0.00  0.00    +0.000 HD
ENDROOT
BRANCH   3  13
ATOM     13  C   UNL     1       1.536   8.339  20.059  0.00  0.00    +0.000 A 
ATOM     14  C   UNL     1       1.480   8.305  21.465  0.00  0.00    +0.000 A 
ATOM     15  C   UNL     1       0.734   9.250  22.161  0.00  0.00    +0.000 A 
ATOM     16  F   UNL     1       0.706   9.210  23.500  0.00  0.00    +0.000 F 
ATOM     17  C   UNL     1       0.028  10.238  21.493  0.00  0.00    +0.000 A 
ATOM     18  C   UNL     1       0.068  10.282  20.102  0.00  0.00    +0.000 A 
ATOM     19  C   UNL     1       0.820   9.342  19.376  0.00  0.00    +0.000 A 
ATOM     20 CL   UNL     1       0.665   9.455  17.654  0.00  0.00    +0.000 Cl
ENDBRANCH   3  13
BRANCH   1  22
ATOM     21  C   UNL     1       6.450   6.558  17.482  0.00  0.00    +0.000 C 
ATOM     22  S   UNL     1       4.859   6.599  16.621  0.00  0.00    +0.000 S 
ENDBRANCH   1  22
TORSDOF 2
ENDMDL
MODEL 4
REMARK VINA RESULT:      -6.7      1.988      3.343
REMARK  Name = 
REMARK  4 active torsions:
REMARK  status: ('A' for Active; 'I' for Inactive)
REMARK    1  A    between atoms: C_1  and  S_2
REMARK    2  A    between atoms: S_2  and  C_3
REMARK    3  A    between atoms: N_5  and  C_6
REMARK    4  A    between atoms: C_16  and  C_17
REMARK                            x       y       z     vdW  Elec       q    Type
REMARK                         _______ _______ _______ _____ _____    ______ ____
ROOT
ATOM      1  C   UNL     1       2.806   7.953  18.411  0.00  0.00    +0.000 A 
ATOM      2  N   UNL     1       3.737   7.571  17.537  0.00  0.00    +0.000 NA
ATOM      3  N   UNL     1       4.061   6.299  17.883  0.00  0.00    +0.000 N 
ATOM      4  C   UNL     1       3.292   5.875  18.964  0.00  0.00    +0.000 A 
ATOM      5  N   UNL     1       3.369   4.673  19.601  0.00  0.00    +0.000 NA
ATOM      6  C   UNL     1       2.589   4.573  20.636  0.00  0.00    +0.000 A 
ATOM      7  C   UNL     1       2.561   3.313  21.453  0.00  0.00    +0.000 C 
ATOM      8  N   UNL     1       1.745   5.575  21.075  0.00  0.00    +0.000 N 
ATOM      9  C   UNL     1       1.636   6.810  20.461  0.00  0.00    +0.000 A 
ATOM     10  O   UNL     1       0.875   7.670  20.887  0.00  0.00    +0.000 OA
ATOM     11  C   UNL     1       2.499   6.944  19.323  0.00  0.00    +0.000 A 
ATOM     12  H   UNL     1       1.165   5.447  21.891  0.00  0.00    +0.000 HD
ENDROOT
BRANCH   3  13
ATOM     13  C   UNL     1       5.025   5.561  17.140  0.00  0.00    +0.000 A 
ATOM     14  C   UNL     1       4.695   5.133  15.841  0.00  0.00    +0.000 A 
ATOM     15  C   UNL     1       5.622   4.431  15.077  0.00  0.00    +0.000 A 
ATOM     16  F   UNL     1       5.295   4.046  13.836  0.00  0.00    +0.000 F 
ATOM     17  C   UNL     1       6.880   4.132  15.574  0.00  0.00    +0.000 A 
ATOM     18  C   UNL     1       7.219   4.543  16.861  0.00  0.00    +0.000 A 
ATOM     19  C   UNL     1       6.303   5.260  17.651  0.00  0.00    +0.000 A 
ATOM     20 CL   UNL     1       6.831   5.586  19.268  0.00  0.00    +0.000 Cl
ENDBRANCH   3  13
BRANCH   1  22
ATOM     21  C   UNL     1       0.456   9.209  17.721  0.00  0.00    +0.000 C 
ATOM     22  S   UNL     1       2.116   9.556  18.352  0.00  0.00    +0.000 S 
ENDBRANCH   1  22
TORSDOF 2
ENDMDL
MODEL 5
REMARK VINA RESULT:      -6.3      3.859      6.044
REMARK  Name = 
REMARK  4 active torsions:
REMARK  status: ('A' for Active; 'I' for Inactive)
REMARK    1  A    between atoms: C_1  and  S_2
REMARK    2  A    between atoms: S_2  and  C_3
REMARK    3  A    between atoms: N_5  and  C_6
REMARK    4  A    between atoms: C_16  and  C_17
REMARK                            x       y       z     vdW  Elec       q    Type
REMARK                         _______ _______ _______ _____ _____    ______ ____
ROOT
ATOM      1  C   UNL     1       4.887   4.585  15.754  0.00  0.00    +0.000 A 
ATOM      2  N   UNL     1       3.804   4.148  16.395  0.00  0.00    +0.000 NA
ATOM      3  N   UNL     1       4.100   4.241  17.716  0.00  0.00    +0.000 N 
ATOM      4  C   UNL     1       5.371   4.780  17.896  0.00  0.00    +0.000 A 
ATOM      5  N   UNL     1       6.011   4.984  19.081  0.00  0.00    +0.000 NA
ATOM      6  C   UNL     1       7.228   5.423  18.955  0.00  0.00    +0.000 A 
ATOM      7  C   UNL     1       8.074   5.693  20.165  0.00  0.00    +0.000 C 
ATOM      8  N   UNL     1       7.844   5.673  17.742  0.00  0.00    +0.000 N 
ATOM      9  C   UNL     1       7.233   5.478  16.517  0.00  0.00    +0.000 A 
ATOM     10  O   UNL     1       7.819   5.710  15.467  0.00  0.00    +0.000 OA
ATOM     11  C   UNL     1       5.893   4.981  16.636  0.00  0.00    +0.000 A 
ATOM     12  H   UNL     1       8.796   6.007  17.702  0.00  0.00    +0.000 HD
ENDROOT
BRANCH   3  13
ATOM     13  C   UNL     1       3.147   3.871  18.707  0.00  0.00    +0.000 A 
ATOM     14  C   UNL     1       2.433   4.885  19.372  0.00  0.00    +0.000 A 
ATOM     15  C   UNL     1       1.477   4.559  20.328  0.00  0.00    +0.000 A 
ATOM     16  F   UNL     1       0.797   5.538  20.939  0.00  0.00    +0.000 F 
ATOM     17  C   UNL     1       1.210   3.239  20.652  0.00  0.00    +0.000 A 
ATOM     18  C   UNL     1       1.913   2.224  20.008  0.00  0.00    +0.000 A 
ATOM     19  C   UNL     1       2.879   2.527  19.033  0.00  0.00    +0.000 A 
ATOM     20 CL   UNL     1       3.751   1.162  18.419  0.00  0.00    +0.000 Cl
ENDBRANCH   3  13
BRANCH   1  22
ATOM     21  C   UNL     1       6.299   3.444  13.685  0.00  0.00    +0.000 C 
ATOM     22  S   UNL     1       4.956   4.612  14.009  0.00  0.00    +0.000 S 
ENDBRANCH   1  22
TORSDOF 2
ENDMDL
MODEL 6
REMARK VINA RESULT:      -6.3      3.442      5.582
REMARK  Name = 
REMARK  4 active torsions:
REMARK  status: ('A' for Active; 'I' for Inactive)
REMARK    1  A    between atoms: C_1  and  S_2
REMARK    2  A    between atoms: S_2  and  C_3
REMARK    3  A    between atoms: N_5  and  C_6
REMARK    4  A    between atoms: C_16  and  C_17
REMARK                            x       y       z     vdW  Elec       q    Type
REMARK                         _______ _______ _______ _____ _____    ______ ____
ROOT
ATOM      1  C   UNL     1       3.207   4.271  17.413  0.00  0.00    +0.000 A 
ATOM      2  N   UNL     1       2.333   5.087  18.002  0.00  0.00    +0.000 NA
ATOM      3  N   UNL     1       3.000   6.253  18.198  0.00  0.00    +0.000 N 
ATOM      4  C   UNL     1       4.294   6.169  17.690  0.00  0.00    +0.000 A 
ATOM      5  N   UNL     1       5.257   7.131  17.742  0.00  0.00    +0.000 NA
ATOM      6  C   UNL     1       6.406   6.756  17.264  0.00  0.00    +0.000 A 
ATOM      7  C   UNL     1       7.575   7.697  17.254  0.00  0.00    +0.000 C 
ATOM      8  N   UNL     1       6.658   5.502  16.740  0.00  0.00    +0.000 N 
ATOM      9  C   UNL     1       5.713   4.495  16.669  0.00  0.00    +0.000 A 
ATOM     10  O   UNL     1       5.982   3.397  16.199  0.00  0.00    +0.000 OA
ATOM     11  C   UNL     1       4.441   4.887  17.205  0.00  0.00    +0.000 A 
ATOM     12  H   UNL     1       7.573   5.260  16.388  0.00  0.00    +0.000 HD
ENDROOT
BRANCH   3  13
ATOM     13  C   UNL     1       2.356   7.372  18.796  0.00  0.00    +0.000 A 
ATOM     14  C   UNL     1       2.262   8.571  18.064  0.00  0.00    +0.000 A 
ATOM     15  C   UNL     1       1.617   9.677  18.608  0.00  0.00    +0.000 A 
ATOM     16  F   UNL     1       1.525  10.803  17.890  0.00  0.00    +0.000 F 
ATOM     17  C   UNL     1       1.062   9.629  19.876  0.00  0.00    +0.000 A 
ATOM     18  C   UNL     1       1.152   8.453  20.617  0.00  0.00    +0.000 A 
ATOM     19  C   UNL     1       1.792   7.319  20.087  0.00  0.00    +0.000 A 
ATOM     20 CL   UNL     1       1.931   5.981  21.178  0.00  0.00    +0.000 Cl
ENDBRANCH   3  13
BRANCH   1  22
ATOM     21  C   UNL     1       3.516   1.707  18.364  0.00  0.00    +0.000 C 
ATOM     22  S   UNL     1       2.773   2.631  16.998  0.00  0.00    +0.000 S 
ENDBRANCH   1  22
TORSDOF 2
ENDMDL
MODEL 7
REMARK VINA RESULT:      -6.3      3.623      5.513
REMARK  Name = 
REMARK  4 active torsions:
REMARK  status: ('A' for Active; 'I' for Inactive)
REMARK    1  A    between atoms: C_1  and  S_2
REMARK    2  A    between atoms: S_2  and  C_3
REMARK    3  A    between atoms: N_5  and  C_6
REMARK    4  A    between atoms: C_16  and  C_17
REMARK                            x       y       z     vdW  Elec       q    Type
REMARK                         _______ _______ _______ _____ _____    ______ ____
ROOT
ATOM      1  C   UNL     1       2.310   4.030  20.001  0.00  0.00    +0.000 A 
ATOM      2  N   UNL     1       1.631   5.176  19.957  0.00  0.00    +0.000 NA
ATOM      3  N   UNL     1       2.531   6.117  19.574  0.00  0.00    +0.000 N 
ATOM      4  C   UNL     1       3.776   5.539  19.342  0.00  0.00    +0.000 A 
ATOM      5  N   UNL     1       4.921   6.182  18.981  0.00  0.00    +0.000 NA
ATOM      6  C   UNL     1       5.963   5.407  18.913  0.00  0.00    +0.000 A 
ATOM      7  C   UNL     1       7.306   5.963  18.535  0.00  0.00    +0.000 C 
ATOM      8  N   UNL     1       5.943   4.050  19.175  0.00  0.00    +0.000 N 
ATOM      9  C   UNL     1       4.805   3.357  19.546  0.00  0.00    +0.000 A 
ATOM     10  O   UNL     1       4.834   2.154  19.772  0.00  0.00    +0.000 OA
ATOM     11  C   UNL     1       3.647   4.199  19.639  0.00  0.00    +0.000 A 
ATOM     12  H   UNL     1       6.785   3.496  19.115  0.00  0.00    +0.000 HD
ENDROOT
BRANCH   3  13
ATOM     13  C   UNL     1       2.140   7.475  19.401  0.00  0.00    +0.000 A 
ATOM     14  C   UNL     1       1.452   8.120  20.446  0.00  0.00    +0.000 A 
ATOM     15  C   UNL     1       1.076   9.453  20.321  0.00  0.00    +0.000 A 
ATOM     16  F   UNL     1       0.436  10.054  21.332  0.00  0.00    +0.000 F 
ATOM     17  C   UNL     1       1.362  10.173  19.172  0.00  0.00    +0.000 A 
ATOM     18  C   UNL     1       2.037   9.547  18.126  0.00  0.00    +0.000 A 
ATOM     19  C   UNL     1       2.434   8.202  18.230  0.00  0.00    +0.000 A 
ATOM     20 CL   UNL     1       3.147   7.538  16.799  0.00  0.00    +0.000 Cl
ENDBRANCH   3  13
BRANCH   1  22
ATOM     21  C   UNL     1       0.679   2.073  18.959  0.00  0.00    +0.000 C 
ATOM     22  S   UNL     1       1.537   2.540  20.482  0.00  0.00    +0.000 S 
ENDBRANCH   1  22
TORSDOF 2
ENDMDL
MODEL 8
REMARK VINA RESULT:      -6.2      1.819      3.615
REMARK  Name = 
REMARK  4 active torsions:
REMARK  status: ('A' for Active; 'I' for Inactive)
REMARK    1  A    between atoms: C_1  and  S_2
REMARK    2  A    between atoms: S_2  and  C_3
REMARK    3  A    between atoms: N_5  and  C_6
REMARK    4  A    between atoms: C_16  and  C_17
REMARK                            x       y       z     vdW  Elec       q    Type
REMARK                         _______ _______ _______ _____ _____    ______ ____
ROOT
ATOM      1  C   UNL     1       2.788   5.414  19.733  0.00  0.00    +0.000 A 
ATOM      2  N   UNL     1       3.478   5.796  18.660  0.00  0.00    +0.000 NA
ATOM      3  N   UNL     1       4.350   4.786  18.409  0.00  0.00    +0.000 N 
ATOM      4  C   UNL     1       4.170   3.747  19.318  0.00  0.00    +0.000 A 
ATOM      5  N   UNL     1       4.888   2.592  19.392  0.00  0.00    +0.000 NA
ATOM      6  C   UNL     1       4.562   1.830  20.394  0.00  0.00    +0.000 A 
ATOM      7  C   UNL     1       5.265   0.523  20.621  0.00  0.00    +0.000 C 
ATOM      8  N   UNL     1       3.578   2.135  21.316  0.00  0.00    +0.000 N 
ATOM      9  C   UNL     1       2.826   3.295  21.280  0.00  0.00    +0.000 A 
ATOM     10  O   UNL     1       1.966   3.526  22.121  0.00  0.00    +0.000 OA
ATOM     11  C   UNL     1       3.181   4.155  20.188  0.00  0.00    +0.000 A 
ATOM     12  H   UNL     1       3.371   1.510  22.080  0.00  0.00    +0.000 HD
ENDROOT
BRANCH   3  13
ATOM     13  C   UNL     1       5.244   4.849  17.304  0.00  0.00    +0.000 A 
ATOM     14  C   UNL     1       4.793   4.421  16.041  0.00  0.00    +0.000 A 
ATOM     15  C   UNL     1       5.632   4.492  14.934  0.00  0.00    +0.000 A 
ATOM     16  F   UNL     1       5.178   4.095  13.738  0.00  0.00    +0.000 F 
ATOM     17  C   UNL     1       6.925   4.976  15.047  0.00  0.00    +0.000 A 
ATOM     18  C   UNL     1       7.390   5.396  16.291  0.00  0.00    +0.000 A 
ATOM     19  C   UNL     1       6.559   5.342  17.423  0.00  0.00    +0.000 A 
ATOM     20 CL   UNL     1       7.325   5.781  18.913  0.00  0.00    +0.000 Cl
ENDBRANCH   3  13
BRANCH   1  22
ATOM     21  C   UNL     1       1.911   8.021  19.622  0.00  0.00    +0.000 C 
ATOM     22  S   UNL     1       1.558   6.440  20.429  0.00  0.00    +0.000 S 
ENDBRANCH   1  22
TORSDOF 2
ENDMDL
MODEL 9
REMARK VINA RESULT:      -6.2      3.763      6.407
REMARK  Name = 
REMARK  4 active torsions:
REMARK  status: ('A' for Active; 'I' for Inactive)
REMARK    1  A    between atoms: C_1  and  S_2
REMARK    2  A    between atoms: S_2  and  C_3
REMARK    3  A    between atoms: N_5  and  C_6
REMARK    4  A    between atoms: C_16  and  C_17
REMARK                            x       y       z     vdW  Elec       q    Type
REMARK                         _______ _______ _______ _____ _____    ______ ____
ROOT
ATOM      1  C   UNL     1       4.504   5.643  18.640  0.00  0.00    +0.000 A 
ATOM      2  N   UNL     1       3.863   6.809  18.713  0.00  0.00    +0.000 NA
ATOM      3  N   UNL     1       2.817   6.597  19.551  0.00  0.00    +0.000 N 
ATOM      4  C   UNL     1       2.832   5.291  20.034  0.00  0.00    +0.000 A 
ATOM      5  N   UNL     1       1.920   4.715  20.865  0.00  0.00    +0.000 NA
ATOM      6  C   UNL     1       2.131   3.452  21.089  0.00  0.00    +0.000 A 
ATOM      7  C   UNL     1       1.211   2.669  21.979  0.00  0.00    +0.000 C 
ATOM      8  N   UNL     1       3.180   2.731  20.550  0.00  0.00    +0.000 N 
ATOM      9  C   UNL     1       4.128   3.273  19.701  0.00  0.00    +0.000 A 
ATOM     10  O   UNL     1       5.040   2.595  19.244  0.00  0.00    +0.000 OA
ATOM     11  C   UNL     1       3.903   4.664  19.431  0.00  0.00    +0.000 A 
ATOM     12  H   UNL     1       3.294   1.748  20.752  0.00  0.00    +0.000 HD
ENDROOT
BRANCH   3  13
ATOM     13  C   UNL     1       1.917   7.650  19.879  0.00  0.00    +0.000 A 
ATOM     14  C   UNL     1       1.293   7.640  21.140  0.00  0.00    +0.000 A 
ATOM     15  C   UNL     1       0.427   8.666  21.503  0.00  0.00    +0.000 A 
ATOM     16  F   UNL     1      -0.145   8.647  22.714  0.00  0.00    +0.000 F 
ATOM     17  C   UNL     1       0.153   9.711  20.636  0.00  0.00    +0.000 A 
ATOM     18  C   UNL     1       0.757   9.732  19.381  0.00  0.00    +0.000 A 
ATOM     19  C   UNL     1       1.642   8.711  18.993  0.00  0.00    +0.000 A 
ATOM     20 CL   UNL     1       2.208   8.816  17.360  0.00  0.00    +0.000 Cl
ENDBRANCH   3  13
BRANCH   1  22
ATOM     21  C   UNL     1       5.243   4.514  16.241  0.00  0.00    +0.000 C 
ATOM     22  S   UNL     1       5.919   5.451  17.633  0.00  0.00    +0.000 S 
ENDBRANCH   1  22
TORSDOF 2
ENDMDL
