MODEL 1
REMARK VINA RESULT:      -7.3      0.000      0.000
REMARK  Name = 
REMARK  15 active torsions:
REMARK  status: ('A' for Active; 'I' for Inactive)
REMARK    1  A    between atoms: C_1  and  C_2
REMARK    2  A    between atoms: C_2  and  C_3
REMARK    3  A    between atoms: C_3  and  C_4
REMARK    4  A    between atoms: C_4  and  C_5
REMARK    5  A    between atoms: C_5  and  O_6
REMARK    6  A    between atoms: O_6  and  C_7
REMARK    7  A    between atoms: C_12  and  C_13
REMARK    8  A    between atoms: C_15  and  C_16
REMARK    9  A    between atoms: C_17  and  C_18
REMARK   10  A    between atoms: C_18  and  O_20
REMARK   11  A    between atoms: C_23  and  O_24
REMARK   12  A    between atoms: C_25  and  C_26
REMARK   13  A    between atoms: C_25  and  C_27
REMARK   14  A    between atoms: C_30  and  C_31
REMARK   15  A    between atoms: C_30  and  C_32
REMARK                            x       y       z     vdW  Elec       q    Type
REMARK                         _______ _______ _______ _____ _____    ______ ____
ROOT
ATOM      1  C   UNL     1      -3.668  11.426  18.371  0.00  0.00    +0.000 A 
ATOM      2  C   UNL     1      -4.993  11.709  18.771  0.00  0.00    +0.000 A 
ATOM      3  C   UNL     1      -5.313  12.388  19.970  0.00  0.00    +0.000 A 
ATOM      4  C   UNL     1      -4.257  12.743  20.809  0.00  0.00    +0.000 A 
ATOM      5  C   UNL     1      -2.938  12.572  20.332  0.00  0.00    +0.000 A 
ATOM      6  C   UNL     1      -2.588  11.916  19.133  0.00  0.00    +0.000 A 
ATOM      7  C   UNL     1      -4.450  13.350  22.200  0.00  0.00    +0.000 C 
ATOM      8  C   UNL     1      -3.966  14.810  22.175  0.00  0.00    +0.000 C 
ATOM      9  C   UNL     1      -3.629  12.570  23.257  0.00  0.00    +0.000 C 
ATOM     10  C   UNL     1      -5.922  13.273  22.665  0.00  0.00    +0.000 C 
ATOM     11  C   UNL     1      -6.910  13.606  21.563  0.00  0.00    +0.000 C 
ATOM     12  C   UNL     1      -6.775  12.698  20.313  0.00  0.00    +0.000 C 
ATOM     13  C   UNL     1      -7.547  11.378  20.537  0.00  0.00    +0.000 C 
ATOM     14  C   UNL     1      -7.451  13.469  19.155  0.00  0.00    +0.000 C 
ENDROOT
BRANCH   6  15
ATOM     15  C   UNL     1      -1.135  11.817  18.802  0.00  0.00    +0.000 A 
ATOM     16  C   UNL     1      -0.503  10.560  18.749  0.00  0.00    +0.000 A 
ATOM     17  C   UNL     1       0.893  10.425  18.674  0.00  0.00    +0.000 A 
ATOM     18  C   UNL     1       1.669  11.571  18.484  0.00  0.00    +0.000 A 
ATOM     19  C   UNL     1       1.066  12.824  18.399  0.00  0.00    +0.000 A 
ATOM     20  C   UNL     1      -0.311  12.946  18.589  0.00  0.00    +0.000 A 
BRANCH  17  21
ATOM     21  C   UNL     1       1.580   9.149  18.945  0.00  0.00    +0.000 C 
ATOM     22  C   UNL     1       2.178   8.391  18.016  0.00  0.00    +0.000 C 
BRANCH  22  23
ATOM     23  C   UNL     1       2.762   7.087  18.399  0.00  0.00    +0.000 C 
ATOM     24  O   UNL     1       3.498   6.423  17.693  0.00  0.00    +0.000 OA
BRANCH  23  25
ATOM     25  O   UNL     1       2.388   6.718  19.639  0.00  0.00    +0.000 OA
ATOM     26  H   UNL     1       1.500   6.334  19.717  0.00  0.00    +0.000 HD
ENDBRANCH  23  25
ENDBRANCH  22  23
ENDBRANCH  17  21
BRANCH  20  27
ATOM     27  O   UNL     1      -0.847  14.207  18.600  0.00  0.00    +0.000 OA
ATOM     28  H   UNL     1      -1.299  14.375  17.757  0.00  0.00    +0.000 HD
ENDBRANCH  20  27
ENDBRANCH   6  15
BRANCH   1  29
ATOM     29  O   UNL     1      -3.643  10.695  17.205  0.00  0.00    +0.000 OA
BRANCH  29  30
ATOM     30  C   UNL     1      -3.281  11.362  16.003  0.00  0.00    +0.000 C 
BRANCH  30  31
ATOM     31  C   UNL     1      -2.813  10.394  14.928  0.00  0.00    +0.000 C 
BRANCH  31  32
ATOM     32  C   UNL     1      -4.045   9.892  14.166  0.00  0.00    +0.000 C 
BRANCH  32  34
ATOM     33  C   UNL     1      -5.113   9.629  11.914  0.00  0.00    +0.000 C 
ATOM     34  C   UNL     1      -3.807   9.837  12.665  0.00  0.00    +0.000 C 
ENDBRANCH  32  34
ENDBRANCH  31  32
ENDBRANCH  30  31
ENDBRANCH  29  30
ENDBRANCH   1  29
TORSDOF 10
ENDMDL
MODEL 2
REMARK VINA RESULT:      -7.2      2.674      7.246
REMARK  Name = 
REMARK  15 active torsions:
REMARK  status: ('A' for Active; 'I' for Inactive)
REMARK    1  A    between atoms: C_1  and  C_2
REMARK    2  A    between atoms: C_2  and  C_3
REMARK    3  A    between atoms: C_3  and  C_4
REMARK    4  A    between atoms: C_4  and  C_5
REMARK    5  A    between atoms: C_5  and  O_6
REMARK    6  A    between atoms: O_6  and  C_7
REMARK    7  A    between atoms: C_12  and  C_13
REMARK    8  A    between atoms: C_15  and  C_16
REMARK    9  A    between atoms: C_17  and  C_18
REMARK   10  A    between atoms: C_18  and  O_20
REMARK   11  A    between atoms: C_23  and  O_24
REMARK   12  A    between atoms: C_25  and  C_26
REMARK   13  A    between atoms: C_25  and  C_27
REMARK   14  A    between atoms: C_30  and  C_31
REMARK   15  A    between atoms: C_30  and  C_32
REMARK                            x       y       z     vdW  Elec       q    Type
REMARK                         _______ _______ _______ _____ _____    ______ ____
ROOT
ATOM      1  C   UNL     1       0.777  12.078  18.780  0.00  0.00    +0.000 A 
ATOM      2  C   UNL     1       1.912  12.817  19.185  0.00  0.00    +0.000 A 
ATOM      3  C   UNL     1       1.894  14.217  19.389  0.00  0.00    +0.000 A 
ATOM      4  C   UNL     1       0.702  14.890  19.125  0.00  0.00    +0.000 A 
ATOM      5  C   UNL     1      -0.453  14.121  18.853  0.00  0.00    +0.000 A 
ATOM      6  C   UNL     1      -0.470  12.724  18.662  0.00  0.00    +0.000 A 
ATOM      7  C   UNL     1       0.565  16.413  19.160  0.00  0.00    +0.000 C 
ATOM      8  C   UNL     1      -0.324  16.803  20.354  0.00  0.00    +0.000 C 
ATOM      9  C   UNL     1      -0.091  16.934  17.857  0.00  0.00    +0.000 C 
ATOM     10  C   UNL     1       1.939  17.115  19.253  0.00  0.00    +0.000 C 
ATOM     11  C   UNL     1       2.891  16.429  20.216  0.00  0.00    +0.000 C 
ATOM     12  C   UNL     1       3.157  14.941  19.871  0.00  0.00    +0.000 C 
ATOM     13  C   UNL     1       4.258  14.840  18.791  0.00  0.00    +0.000 C 
ATOM     14  C   UNL     1       3.689  14.294  21.172  0.00  0.00    +0.000 C 
ENDROOT
BRANCH   6  15
ATOM     15  C   UNL     1      -1.788  12.087  18.364  0.00  0.00    +0.000 A 
ATOM     16  C   UNL     1      -2.010  11.462  17.122  0.00  0.00    +0.000 A 
ATOM     17  C   UNL     1      -3.288  11.057  16.704  0.00  0.00    +0.000 A 
ATOM     18  C   UNL     1      -4.346  11.131  17.612  0.00  0.00    +0.000 A 
ATOM     19  C   UNL     1      -4.137  11.622  18.899  0.00  0.00    +0.000 A 
ATOM     20  C   UNL     1      -2.884  12.123  19.255  0.00  0.00    +0.000 A 
BRANCH  17  21
ATOM     21  C   UNL     1      -3.589  10.709  15.303  0.00  0.00    +0.000 C 
ATOM     22  C   UNL     1      -2.794   9.979  14.509  0.00  0.00    +0.000 C 
BRANCH  22  23
ATOM     23  C   UNL     1      -3.166   9.768  13.094  0.00  0.00    +0.000 C 
ATOM     24  O   UNL     1      -4.300   9.842  12.657  0.00  0.00    +0.000 OA
BRANCH  23  25
ATOM     25  O   UNL     1      -2.092   9.490  12.331  0.00  0.00    +0.000 OA
ATOM     26  H   UNL     1      -1.991   8.562  12.064  0.00  0.00    +0.000 HD
ENDBRANCH  23  25
ENDBRANCH  22  23
ENDBRANCH  17  21
BRANCH  20  27
ATOM     27  O   UNL     1      -2.750  12.692  20.495  0.00  0.00    +0.000 OA
ATOM     28  H   UNL     1      -2.856  13.654  20.424  0.00  0.00    +0.000 HD
ENDBRANCH  20  27
ENDBRANCH   6  15
BRANCH   1  29
ATOM     29  O   UNL     1       1.087  10.752  18.586  0.00  0.00    +0.000 OA
BRANCH  29  30
ATOM     30  C   UNL     1       0.697   9.819  19.584  0.00  0.00    +0.000 C 
BRANCH  30  31
ATOM     31  C   UNL     1       1.600   8.596  19.611  0.00  0.00    +0.000 C 
BRANCH  31  32
ATOM     32  C   UNL     1       2.133   8.361  18.194  0.00  0.00    +0.000 C 
BRANCH  32  34
ATOM     33  C   UNL     1       4.091   6.990  17.442  0.00  0.00    +0.000 C 
ATOM     34  C   UNL     1       2.682   6.955  18.013  0.00  0.00    +0.000 C 
ENDBRANCH  32  34
ENDBRANCH  31  32
ENDBRANCH  30  31
ENDBRANCH  29  30
ENDBRANCH   1  29
TORSDOF 10
ENDMDL
MODEL 3
REMARK VINA RESULT:      -7.1      1.900      4.927
REMARK  Name = 
REMARK  15 active torsions:
REMARK  status: ('A' for Active; 'I' for Inactive)
REMARK    1  A    between atoms: C_1  and  C_2
REMARK    2  A    between atoms: C_2  and  C_3
REMARK    3  A    between atoms: C_3  and  C_4
REMARK    4  A    between atoms: C_4  and  C_5
REMARK    5  A    between atoms: C_5  and  O_6
REMARK    6  A    between atoms: O_6  and  C_7
REMARK    7  A    between atoms: C_12  and  C_13
REMARK    8  A    between atoms: C_15  and  C_16
REMARK    9  A    between atoms: C_17  and  C_18
REMARK   10  A    between atoms: C_18  and  O_20
REMARK   11  A    between atoms: C_23  and  O_24
REMARK   12  A    between atoms: C_25  and  C_26
REMARK   13  A    between atoms: C_25  and  C_27
REMARK   14  A    between atoms: C_30  and  C_31
REMARK   15  A    between atoms: C_30  and  C_32
REMARK                            x       y       z     vdW  Elec       q    Type
REMARK                         _______ _______ _______ _____ _____    ______ ____
ROOT
ATOM      1  C   UNL     1      -2.906  13.227  20.455  0.00  0.00    +0.000 A 
ATOM      2  C   UNL     1      -3.385  13.874  21.615  0.00  0.00    +0.000 A 
ATOM      3  C   UNL     1      -4.743  13.854  22.010  0.00  0.00    +0.000 A 
ATOM      4  C   UNL     1      -5.646  13.197  21.174  0.00  0.00    +0.000 A 
ATOM      5  C   UNL     1      -5.131  12.445  20.094  0.00  0.00    +0.000 A 
ATOM      6  C   UNL     1      -3.780  12.431  19.687  0.00  0.00    +0.000 A 
ATOM      7  C   UNL     1      -7.161  13.211  21.389  0.00  0.00    +0.000 C 
ATOM      8  C   UNL     1      -7.616  11.796  21.785  0.00  0.00    +0.000 C 
ATOM      9  C   UNL     1      -7.894  13.626  20.089  0.00  0.00    +0.000 C 
ATOM     10  C   UNL     1      -7.583  14.239  22.462  0.00  0.00    +0.000 C 
ATOM     11  C   UNL     1      -6.659  14.254  23.666  0.00  0.00    +0.000 C 
ATOM     12  C   UNL     1      -5.179  14.545  23.308  0.00  0.00    +0.000 C 
ATOM     13  C   UNL     1      -4.958  16.069  23.184  0.00  0.00    +0.000 C 
ATOM     14  C   UNL     1      -4.345  14.026  24.503  0.00  0.00    +0.000 C 
ENDROOT
BRANCH   6  15
ATOM     15  C   UNL     1      -3.426  11.586  18.508  0.00  0.00    +0.000 A 
ATOM     16  C   UNL     1      -2.329  10.706  18.569  0.00  0.00    +0.000 A 
ATOM     17  C   UNL     1      -1.815  10.067  17.428  0.00  0.00    +0.000 A 
ATOM     18  C   UNL     1      -2.511  10.184  16.223  0.00  0.00    +0.000 A 
ATOM     19  C   UNL     1      -3.678  10.942  16.153  0.00  0.00    +0.000 A 
ATOM     20  C   UNL     1      -4.108  11.658  17.271  0.00  0.00    +0.000 A 
BRANCH  17  21
ATOM     21  C   UNL     1      -0.493   9.415  17.415  0.00  0.00    +0.000 C 
ATOM     22  C   UNL     1       0.444   9.567  18.360  0.00  0.00    +0.000 C 
BRANCH  22  23
ATOM     23  C   UNL     1       1.766   8.926  18.192  0.00  0.00    +0.000 C 
ATOM     24  O   UNL     1       2.497   9.087  17.233  0.00  0.00    +0.000 OA
BRANCH  23  25
ATOM     25  O   UNL     1       2.076   8.139  19.241  0.00  0.00    +0.000 OA
ATOM     26  H   UNL     1       1.384   8.041  19.915  0.00  0.00    +0.000 HD
ENDBRANCH  23  25
ENDBRANCH  22  23
ENDBRANCH  17  21
BRANCH  20  27
ATOM     27  O   UNL     1      -5.201  12.472  17.129  0.00  0.00    +0.000 OA
ATOM     28  H   UNL     1      -5.087  13.036  16.348  0.00  0.00    +0.000 HD
ENDBRANCH  20  27
ENDBRANCH   6  15
BRANCH   1  29
ATOM     29  O   UNL     1      -1.564  13.466  20.267  0.00  0.00    +0.000 OA
BRANCH  29  30
ATOM     30  C   UNL     1      -0.675  13.183  21.339  0.00  0.00    +0.000 C 
BRANCH  30  31
ATOM     31  C   UNL     1      -0.337  11.703  21.430  0.00  0.00    +0.000 C 
BRANCH  31  32
ATOM     32  C   UNL     1      -0.997  11.137  22.692  0.00  0.00    +0.000 C 
BRANCH  32  34
ATOM     33  C   UNL     1      -0.322   8.849  21.924  0.00  0.00    +0.000 C 
ATOM     34  C   UNL     1      -0.394   9.804  23.106  0.00  0.00    +0.000 C 
ENDBRANCH  32  34
ENDBRANCH  31  32
ENDBRANCH  30  31
ENDBRANCH  29  30
ENDBRANCH   1  29
TORSDOF 10
ENDMDL
MODEL 4
REMARK VINA RESULT:      -7.0      2.828      7.314
REMARK  Name = 
REMARK  15 active torsions:
REMARK  status: ('A' for Active; 'I' for Inactive)
REMARK    1  A    between atoms: C_1  and  C_2
REMARK    2  A    between atoms: C_2  and  C_3
REMARK    3  A    between atoms: C_3  and  C_4
REMARK    4  A    between atoms: C_4  and  C_5
REMARK    5  A    between atoms: C_5  and  O_6
REMARK    6  A    between atoms: O_6  and  C_7
REMARK    7  A    between atoms: C_12  and  C_13
REMARK    8  A    between atoms: C_15  and  C_16
REMARK    9  A    between atoms: C_17  and  C_18
REMARK   10  A    between atoms: C_18  and  O_20
REMARK   11  A    between atoms: C_23  and  O_24
REMARK   12  A    between atoms: C_25  and  C_26
REMARK   13  A    between atoms: C_25  and  C_27
REMARK   14  A    between atoms: C_30  and  C_31
REMARK   15  A    between atoms: C_30  and  C_32
REMARK                            x       y       z     vdW  Elec       q    Type
REMARK                         _______ _______ _______ _____ _____    ______ ____
ROOT
ATOM      1  C   UNL     1       0.564  11.937  18.906  0.00  0.00    +0.000 A 
ATOM      2  C   UNL     1       1.726  12.653  19.272  0.00  0.00    +0.000 A 
ATOM      3  C   UNL     1       1.741  14.051  19.485  0.00  0.00    +0.000 A 
ATOM      4  C   UNL     1       0.551  14.747  19.271  0.00  0.00    +0.000 A 
ATOM      5  C   UNL     1      -0.626  14.001  19.037  0.00  0.00    +0.000 A 
ATOM      6  C   UNL     1      -0.675  12.605  18.838  0.00  0.00    +0.000 A 
ATOM      7  C   UNL     1       0.443  16.272  19.320  0.00  0.00    +0.000 C 
ATOM      8  C   UNL     1      -0.394  16.670  20.548  0.00  0.00    +0.000 C 
ATOM      9  C   UNL     1      -0.252  16.813  18.045  0.00  0.00    +0.000 C 
ATOM     10  C   UNL     1       1.832  16.949  19.366  0.00  0.00    +0.000 C 
ATOM     11  C   UNL     1       2.806  16.240  20.288  0.00  0.00    +0.000 C 
ATOM     12  C   UNL     1       3.033  14.750  19.925  0.00  0.00    +0.000 C 
ATOM     13  C   UNL     1       4.091  14.638  18.804  0.00  0.00    +0.000 C 
ATOM     14  C   UNL     1       3.601  14.085  21.201  0.00  0.00    +0.000 C 
ENDROOT
BRANCH   6  15
ATOM     15  C   UNL     1      -2.014  11.993  18.585  0.00  0.00    +0.000 A 
ATOM     16  C   UNL     1      -2.208  11.138  17.483  0.00  0.00    +0.000 A 
ATOM     17  C   UNL     1      -3.485  10.726  17.069  0.00  0.00    +0.000 A 
ATOM     18  C   UNL     1      -4.585  11.044  17.869  0.00  0.00    +0.000 A 
ATOM     19  C   UNL     1      -4.416  11.779  19.041  0.00  0.00    +0.000 A 
ATOM     20  C   UNL     1      -3.154  12.273  19.374  0.00  0.00    +0.000 A 
BRANCH  17  21
ATOM     21  C   UNL     1      -3.730  10.113  15.751  0.00  0.00    +0.000 C 
ATOM     22  C   UNL     1      -3.034  10.388  14.640  0.00  0.00    +0.000 C 
BRANCH  22  23
ATOM     23  C   UNL     1      -3.430   9.770  13.356  0.00  0.00    +0.000 C 
ATOM     24  O   UNL     1      -2.652   9.383  12.504  0.00  0.00    +0.000 OA
BRANCH  23  25
ATOM     25  O   UNL     1      -4.768   9.675  13.240  0.00  0.00    +0.000 OA
ATOM     26  H   UNL     1      -5.159  10.118  12.469  0.00  0.00    +0.000 HD
ENDBRANCH  23  25
ENDBRANCH  22  23
ENDBRANCH  17  21
BRANCH  20  27
ATOM     27  O   UNL     1      -3.052  13.077  20.479  0.00  0.00    +0.000 OA
ATOM     28  H   UNL     1      -3.379  12.601  21.258  0.00  0.00    +0.000 HD
ENDBRANCH  20  27
ENDBRANCH   6  15
BRANCH   1  29
ATOM     29  O   UNL     1       0.843  10.607  18.692  0.00  0.00    +0.000 OA
BRANCH  29  30
ATOM     30  C   UNL     1       0.972   9.758  19.825  0.00  0.00    +0.000 C 
BRANCH  30  31
ATOM     31  C   UNL     1      -0.363   9.507  20.509  0.00  0.00    +0.000 C 
BRANCH  31  32
ATOM     32  C   UNL     1      -0.092   8.822  21.853  0.00  0.00    +0.000 C 
BRANCH  32  34
ATOM     33  C   UNL     1      -0.988  11.019  22.660  0.00  0.00    +0.000 C 
ATOM     34  C   UNL     1      -0.152   9.800  23.017  0.00  0.00    +0.000 C 
ENDBRANCH  32  34
ENDBRANCH  31  32
ENDBRANCH  30  31
ENDBRANCH  29  30
ENDBRANCH   1  29
TORSDOF 10
ENDMDL
MODEL 5
REMARK VINA RESULT:      -7.0      0.913      1.125
REMARK  Name = 
REMARK  15 active torsions:
REMARK  status: ('A' for Active; 'I' for Inactive)
REMARK    1  A    between atoms: C_1  and  C_2
REMARK    2  A    between atoms: C_2  and  C_3
REMARK    3  A    between atoms: C_3  and  C_4
REMARK    4  A    between atoms: C_4  and  C_5
REMARK    5  A    between atoms: C_5  and  O_6
REMARK    6  A    between atoms: O_6  and  C_7
REMARK    7  A    between atoms: C_12  and  C_13
REMARK    8  A    between atoms: C_15  and  C_16
REMARK    9  A    between atoms: C_17  and  C_18
REMARK   10  A    between atoms: C_18  and  O_20
REMARK   11  A    between atoms: C_23  and  O_24
REMARK   12  A    between atoms: C_25  and  C_26
REMARK   13  A    between atoms: C_25  and  C_27
REMARK   14  A    between atoms: C_30  and  C_31
REMARK   15  A    between atoms: C_30  and  C_32
REMARK                            x       y       z     vdW  Elec       q    Type
REMARK                         _______ _______ _______ _____ _____    ______ ____
ROOT
ATOM      1  C   UNL     1      -3.173  11.812  18.506  0.00  0.00    +0.000 A 
ATOM      2  C   UNL     1      -4.419  12.180  19.061  0.00  0.00    +0.000 A 
ATOM      3  C   UNL     1      -4.570  12.652  20.386  0.00  0.00    +0.000 A 
ATOM      4  C   UNL     1      -3.428  12.704  21.184  0.00  0.00    +0.000 A 
ATOM      5  C   UNL     1      -2.176  12.462  20.574  0.00  0.00    +0.000 A 
ATOM      6  C   UNL     1      -1.993  12.007  19.252  0.00  0.00    +0.000 A 
ATOM      7  C   UNL     1      -3.452  13.054  22.673  0.00  0.00    +0.000 C 
ATOM      8  C   UNL     1      -2.770  14.419  22.871  0.00  0.00    +0.000 C 
ATOM      9  C   UNL     1      -2.688  11.989  23.498  0.00  0.00    +0.000 C 
ATOM     10  C   UNL     1      -4.890  13.077  23.238  0.00  0.00    +0.000 C 
ATOM     11  C   UNL     1      -5.885  13.737  22.301  0.00  0.00    +0.000 C 
ATOM     12  C   UNL     1      -5.952  13.074  20.900  0.00  0.00    +0.000 C 
ATOM     13  C   UNL     1      -6.887  11.844  20.945  0.00  0.00    +0.000 C 
ATOM     14  C   UNL     1      -6.580  14.131  19.962  0.00  0.00    +0.000 C 
ENDROOT
BRANCH   6  15
ATOM     15  C   UNL     1      -0.590  11.789  18.787  0.00  0.00    +0.000 A 
ATOM     16  C   UNL     1      -0.135  10.492  18.484  0.00  0.00    +0.000 A 
ATOM     17  C   UNL     1       1.223  10.203  18.270  0.00  0.00    +0.000 A 
ATOM     18  C   UNL     1       2.131  11.262  18.199  0.00  0.00    +0.000 A 
ATOM     19  C   UNL     1       1.696  12.576  18.364  0.00  0.00    +0.000 A 
ATOM     20  C   UNL     1       0.362  12.830  18.686  0.00  0.00    +0.000 A 
BRANCH  17  21
ATOM     21  C   UNL     1       1.750   8.826  18.277  0.00  0.00    +0.000 C 
ATOM     22  C   UNL     1       1.951   8.091  19.379  0.00  0.00    +0.000 C 
BRANCH  22  23
ATOM     23  C   UNL     1       2.565   6.751  19.263  0.00  0.00    +0.000 C 
ATOM     24  O   UNL     1       2.354   5.824  20.023  0.00  0.00    +0.000 OA
BRANCH  23  25
ATOM     25  O   UNL     1       3.387   6.669  18.199  0.00  0.00    +0.000 OA
ATOM     26  H   UNL     1       3.845   7.490  17.954  0.00  0.00    +0.000 HD
ENDBRANCH  23  25
ENDBRANCH  22  23
ENDBRANCH  17  21
BRANCH  20  27
ATOM     27  O   UNL     1       0.001  14.127  18.941  0.00  0.00    +0.000 OA
ATOM     28  H   UNL     1      -0.927  14.156  19.225  0.00  0.00    +0.000 HD
ENDBRANCH  20  27
ENDBRANCH   6  15
BRANCH   1  29
ATOM     29  O   UNL     1      -3.319  11.320  17.230  0.00  0.00    +0.000 OA
BRANCH  29  30
ATOM     30  C   UNL     1      -3.429   9.914  17.061  0.00  0.00    +0.000 C 
BRANCH  30  31
ATOM     31  C   UNL     1      -2.760   9.435  15.782  0.00  0.00    +0.000 C 
BRANCH  31  32
ATOM     32  C   UNL     1      -3.219  10.338  14.633  0.00  0.00    +0.000 C 
BRANCH  32  34
ATOM     33  C   UNL     1      -4.215   9.841  12.387  0.00  0.00    +0.000 C 
ATOM     34  C   UNL     1      -2.987   9.699  13.272  0.00  0.00    +0.000 C 
ENDBRANCH  32  34
ENDBRANCH  31  32
ENDBRANCH  30  31
ENDBRANCH  29  30
ENDBRANCH   1  29
TORSDOF 10
ENDMDL
MODEL 6
REMARK VINA RESULT:      -7.0      2.167      4.618
REMARK  Name = 
REMARK  15 active torsions:
REMARK  status: ('A' for Active; 'I' for Inactive)
REMARK    1  A    between atoms: C_1  and  C_2
REMARK    2  A    between atoms: C_2  and  C_3
REMARK    3  A    between atoms: C_3  and  C_4
REMARK    4  A    between atoms: C_4  and  C_5
REMARK    5  A    between atoms: C_5  and  O_6
REMARK    6  A    between atoms: O_6  and  C_7
REMARK    7  A    between atoms: C_12  and  C_13
REMARK    8  A    between atoms: C_15  and  C_16
REMARK    9  A    between atoms: C_17  and  C_18
REMARK   10  A    between atoms: C_18  and  O_20
REMARK   11  A    between atoms: C_23  and  O_24
REMARK   12  A    between atoms: C_25  and  C_26
REMARK   13  A    between atoms: C_25  and  C_27
REMARK   14  A    between atoms: C_30  and  C_31
REMARK   15  A    between atoms: C_30  and  C_32
REMARK                            x       y       z     vdW  Elec       q    Type
REMARK                         _______ _______ _______ _____ _____    ______ ____
ROOT
ATOM      1  C   UNL     1      -2.501  13.142  20.824  0.00  0.00    +0.000 A 
ATOM      2  C   UNL     1      -3.823  13.358  21.273  0.00  0.00    +0.000 A 
ATOM      3  C   UNL     1      -4.965  12.912  20.567  0.00  0.00    +0.000 A 
ATOM      4  C   UNL     1      -4.756  12.274  19.345  0.00  0.00    +0.000 A 
ATOM      5  C   UNL     1      -3.430  11.950  18.979  0.00  0.00    +0.000 A 
ATOM      6  C   UNL     1      -2.273  12.364  19.671  0.00  0.00    +0.000 A 
ATOM      7  C   UNL     1      -5.888  11.865  18.401  0.00  0.00    +0.000 C 
ATOM      8  C   UNL     1      -5.971  10.329  18.364  0.00  0.00    +0.000 C 
ATOM      9  C   UNL     1      -5.620  12.385  16.967  0.00  0.00    +0.000 C 
ATOM     10  C   UNL     1      -7.244  12.473  18.826  0.00  0.00    +0.000 C 
ATOM     11  C   UNL     1      -7.470  12.425  20.326  0.00  0.00    +0.000 C 
ATOM     12  C   UNL     1      -6.367  13.146  21.143  0.00  0.00    +0.000 C 
ATOM     13  C   UNL     1      -6.659  14.663  21.198  0.00  0.00    +0.000 C 
ATOM     14  C   UNL     1      -6.464  12.577  22.578  0.00  0.00    +0.000 C 
ENDROOT
BRANCH   6  15
ATOM     15  C   UNL     1      -0.952  11.937  19.121  0.00  0.00    +0.000 A 
ATOM     16  C   UNL     1      -0.654  10.569  18.969  0.00  0.00    +0.000 A 
ATOM     17  C   UNL     1       0.641  10.111  18.680  0.00  0.00    +0.000 A 
ATOM     18  C   UNL     1       1.632  11.048  18.377  0.00  0.00    +0.000 A 
ATOM     19  C   UNL     1       1.342  12.410  18.388  0.00  0.00    +0.000 A 
ATOM     20  C   UNL     1       0.078  12.846  18.786  0.00  0.00    +0.000 A 
BRANCH  17  21
ATOM     21  C   UNL     1       1.035   8.699  18.839  0.00  0.00    +0.000 C 
ATOM     22  C   UNL     1       2.276   8.227  18.662  0.00  0.00    +0.000 C 
BRANCH  22  23
ATOM     23  C   UNL     1       2.530   6.775  18.768  0.00  0.00    +0.000 C 
ATOM     24  O   UNL     1       2.435   5.985  17.847  0.00  0.00    +0.000 OA
BRANCH  23  25
ATOM     25  O   UNL     1       2.894   6.422  20.016  0.00  0.00    +0.000 OA
ATOM     26  H   UNL     1       2.906   5.468  20.200  0.00  0.00    +0.000 HD
ENDBRANCH  23  25
ENDBRANCH  22  23
ENDBRANCH  17  21
BRANCH  20  27
ATOM     27  O   UNL     1      -0.133  14.197  18.883  0.00  0.00    +0.000 OA
ATOM     28  H   UNL     1      -0.162  14.456  19.818  0.00  0.00    +0.000 HD
ENDBRANCH  20  27
ENDBRANCH   6  15
BRANCH   1  29
ATOM     29  O   UNL     1      -1.585  13.740  21.659  0.00  0.00    +0.000 OA
BRANCH  29  30
ATOM     30  C   UNL     1      -0.880  12.918  22.579  0.00  0.00    +0.000 C 
BRANCH  30  31
ATOM     31  C   UNL     1      -1.784  11.890  23.242  0.00  0.00    +0.000 C 
BRANCH  31  32
ATOM     32  C   UNL     1      -1.102  10.521  23.151  0.00  0.00    +0.000 C 
BRANCH  32  34
ATOM     33  C   UNL     1       0.918   9.246  22.391  0.00  0.00    +0.000 C 
ATOM     34  C   UNL     1       0.171  10.569  22.319  0.00  0.00    +0.000 C 
ENDBRANCH  32  34
ENDBRANCH  31  32
ENDBRANCH  30  31
ENDBRANCH  29  30
ENDBRANCH   1  29
TORSDOF 10
ENDMDL
MODEL 7
REMARK VINA RESULT:      -7.0      2.083      3.837
REMARK  Name = 
REMARK  15 active torsions:
REMARK  status: ('A' for Active; 'I' for Inactive)
REMARK    1  A    between atoms: C_1  and  C_2
REMARK    2  A    between atoms: C_2  and  C_3
REMARK    3  A    between atoms: C_3  and  C_4
REMARK    4  A    between atoms: C_4  and  C_5
REMARK    5  A    between atoms: C_5  and  O_6
REMARK    6  A    between atoms: O_6  and  C_7
REMARK    7  A    between atoms: C_12  and  C_13
REMARK    8  A    between atoms: C_15  and  C_16
REMARK    9  A    between atoms: C_17  and  C_18
REMARK   10  A    between atoms: C_18  and  O_20
REMARK   11  A    between atoms: C_23  and  O_24
REMARK   12  A    between atoms: C_25  and  C_26
REMARK   13  A    between atoms: C_25  and  C_27
REMARK   14  A    between atoms: C_30  and  C_31
REMARK   15  A    between atoms: C_30  and  C_32
REMARK                            x       y       z     vdW  Elec       q    Type
REMARK                         _______ _______ _______ _____ _____    ______ ____
ROOT
ATOM      1  C   UNL     1      -2.725  11.526  18.105  0.00  0.00    +0.000 A 
ATOM      2  C   UNL     1      -4.113  11.654  18.337  0.00  0.00    +0.000 A 
ATOM      3  C   UNL     1      -4.653  12.245  19.503  0.00  0.00    +0.000 A 
ATOM      4  C   UNL     1      -3.756  12.672  20.483  0.00  0.00    +0.000 A 
ATOM      5  C   UNL     1      -2.377  12.658  20.176  0.00  0.00    +0.000 A 
ATOM      6  C   UNL     1      -1.810  12.093  19.015  0.00  0.00    +0.000 A 
ATOM      7  C   UNL     1      -4.188  13.197  21.853  0.00  0.00    +0.000 C 
ATOM      8  C   UNL     1      -3.864  14.699  21.932  0.00  0.00    +0.000 C 
ATOM      9  C   UNL     1      -3.428  12.462  22.985  0.00  0.00    +0.000 C 
ATOM     10  C   UNL     1      -5.690  12.949  22.120  0.00  0.00    +0.000 C 
ATOM     11  C   UNL     1      -6.561  13.224  20.908  0.00  0.00    +0.000 C 
ATOM     12  C   UNL     1      -6.172  12.388  19.662  0.00  0.00    +0.000 C 
ATOM     13  C   UNL     1      -6.819  10.987  19.746  0.00  0.00    +0.000 C 
ATOM     14  C   UNL     1      -6.775  13.133  18.448  0.00  0.00    +0.000 C 
ENDROOT
BRANCH   6  15
ATOM     15  C   UNL     1      -0.324  12.157  18.873  0.00  0.00    +0.000 A 
ATOM     16  C   UNL     1       0.335  13.401  18.870  0.00  0.00    +0.000 A 
ATOM     17  C   UNL     1       1.687  13.533  18.510  0.00  0.00    +0.000 A 
ATOM     18  C   UNL     1       2.442  12.376  18.304  0.00  0.00    +0.000 A 
ATOM     19  C   UNL     1       1.854  11.119  18.428  0.00  0.00    +0.000 A 
ATOM     20  C   UNL     1       0.485  11.015  18.676  0.00  0.00    +0.000 A 
BRANCH  17  21
ATOM     21  C   UNL     1       2.296  14.836  18.187  0.00  0.00    +0.000 C 
ATOM     22  C   UNL     1       3.455  15.283  18.689  0.00  0.00    +0.000 C 
BRANCH  22  23
ATOM     23  C   UNL     1       3.921  16.645  18.354  0.00  0.00    +0.000 C 
ATOM     24  O   UNL     1       4.902  17.181  18.837  0.00  0.00    +0.000 OA
BRANCH  23  25
ATOM     25  O   UNL     1       3.132  17.230  17.432  0.00  0.00    +0.000 OA
ATOM     26  H   UNL     1       3.493  17.271  16.531  0.00  0.00    +0.000 HD
ENDBRANCH  23  25
ENDBRANCH  22  23
ENDBRANCH  17  21
BRANCH  20  27
ATOM     27  O   UNL     1      -0.071   9.762  18.688  0.00  0.00    +0.000 OA
ATOM     28  H   UNL     1      -0.603   9.650  19.492  0.00  0.00    +0.000 HD
ENDBRANCH  20  27
ENDBRANCH   6  15
BRANCH   1  29
ATOM     29  O   UNL     1      -2.474  10.852  16.933  0.00  0.00    +0.000 OA
BRANCH  29  30
ATOM     30  C   UNL     1      -3.420  10.966  15.877  0.00  0.00    +0.000 C 
BRANCH  30  31
ATOM     31  C   UNL     1      -2.990  10.200  14.636  0.00  0.00    +0.000 C 
BRANCH  31  32
ATOM     32  C   UNL     1      -4.241   9.882  13.811  0.00  0.00    +0.000 C 
BRANCH  32  34
ATOM     33  C   UNL     1      -5.213   9.573  11.522  0.00  0.00    +0.000 C 
ATOM     34  C   UNL     1      -3.938   9.782  12.324  0.00  0.00    +0.000 C 
ENDBRANCH  32  34
ENDBRANCH  31  32
ENDBRANCH  30  31
ENDBRANCH  29  30
ENDBRANCH   1  29
TORSDOF 10
ENDMDL
MODEL 8
REMARK VINA RESULT:      -6.9      3.323      5.647
REMARK  Name = 
REMARK  15 active torsions:
REMARK  status: ('A' for Active; 'I' for Inactive)
REMARK    1  A    between atoms: C_1  and  C_2
REMARK    2  A    between atoms: C_2  and  C_3
REMARK    3  A    between atoms: C_3  and  C_4
REMARK    4  A    between atoms: C_4  and  C_5
REMARK    5  A    between atoms: C_5  and  O_6
REMARK    6  A    between atoms: O_6  and  C_7
REMARK    7  A    between atoms: C_12  and  C_13
REMARK    8  A    between atoms: C_15  and  C_16
REMARK    9  A    between atoms: C_17  and  C_18
REMARK   10  A    between atoms: C_18  and  O_20
REMARK   11  A    between atoms: C_23  and  O_24
REMARK   12  A    between atoms: C_25  and  C_26
REMARK   13  A    between atoms: C_25  and  C_27
REMARK   14  A    between atoms: C_30  and  C_31
REMARK   15  A    between atoms: C_30  and  C_32
REMARK                            x       y       z     vdW  Elec       q    Type
REMARK                         _______ _______ _______ _____ _____    ______ ____
ROOT
ATOM      1  C   UNL     1       0.339  13.155  19.376  0.00  0.00    +0.000 A 
ATOM      2  C   UNL     1       0.716  14.390  18.802  0.00  0.00    +0.000 A 
ATOM      3  C   UNL     1       1.159  15.497  19.563  0.00  0.00    +0.000 A 
ATOM      4  C   UNL     1       1.170  15.359  20.951  0.00  0.00    +0.000 A 
ATOM      5  C   UNL     1       0.919  14.081  21.498  0.00  0.00    +0.000 A 
ATOM      6  C   UNL     1       0.493  12.954  20.763  0.00  0.00    +0.000 A 
ATOM      7  C   UNL     1       1.484  16.508  21.911  0.00  0.00    +0.000 C 
ATOM      8  C   UNL     1       2.830  16.224  22.599  0.00  0.00    +0.000 C 
ATOM      9  C   UNL     1       0.385  16.630  22.996  0.00  0.00    +0.000 C 
ATOM     10  C   UNL     1       1.520  17.873  21.188  0.00  0.00    +0.000 C 
ATOM     11  C   UNL     1       2.221  17.813  19.843  0.00  0.00    +0.000 C 
ATOM     12  C   UNL     1       1.594  16.789  18.862  0.00  0.00    +0.000 C 
ATOM     13  C   UNL     1       0.381  17.424  18.144  0.00  0.00    +0.000 C 
ATOM     14  C   UNL     1       2.685  16.492  17.806  0.00  0.00    +0.000 C 
ENDROOT
BRANCH   6  15
ATOM     15  C   UNL     1       0.261  11.687  21.520  0.00  0.00    +0.000 A 
ATOM     16  C   UNL     1       1.015  10.536  21.226  0.00  0.00    +0.000 A 
ATOM     17  C   UNL     1       0.683   9.271  21.737  0.00  0.00    +0.000 A 
ATOM     18  C   UNL     1      -0.331   9.178  22.693  0.00  0.00    +0.000 A 
ATOM     19  C   UNL     1      -1.015  10.319  23.108  0.00  0.00    +0.000 A 
ATOM     20  C   UNL     1      -0.744  11.548  22.505  0.00  0.00    +0.000 A 
BRANCH  17  21
ATOM     21  C   UNL     1       1.249   8.023  21.192  0.00  0.00    +0.000 C 
ATOM     22  C   UNL     1       1.896   7.925  20.023  0.00  0.00    +0.000 C 
BRANCH  22  23
ATOM     23  C   UNL     1       2.345   6.600  19.544  0.00  0.00    +0.000 C 
ATOM     24  O   UNL     1       2.503   6.303  18.374  0.00  0.00    +0.000 OA
BRANCH  23  25
ATOM     25  O   UNL     1       2.571   5.750  20.564  0.00  0.00    +0.000 OA
ATOM     26  H   UNL     1       2.074   4.916  20.539  0.00  0.00    +0.000 HD
ENDBRANCH  23  25
ENDBRANCH  22  23
ENDBRANCH  17  21
BRANCH  20  27
ATOM     27  O   UNL     1      -1.511  12.624  22.870  0.00  0.00    +0.000 OA
ATOM     28  H   UNL     1      -2.363  12.313  23.214  0.00  0.00    +0.000 HD
ENDBRANCH  20  27
ENDBRANCH   6  15
BRANCH   1  29
ATOM     29  O   UNL     1      -0.119  12.278  18.421  0.00  0.00    +0.000 OA
BRANCH  29  30
ATOM     30  C   UNL     1      -1.511  11.994  18.381  0.00  0.00    +0.000 C 
BRANCH  30  31
ATOM     31  C   UNL     1      -1.798  10.506  18.507  0.00  0.00    +0.000 C 
BRANCH  31  32
ATOM     32  C   UNL     1      -1.831   9.903  17.099  0.00  0.00    +0.000 C 
BRANCH  32  34
ATOM     33  C   UNL     1      -2.967  10.114  14.875  0.00  0.00    +0.000 C 
ATOM     34  C   UNL     1      -3.143  10.190  16.383  0.00  0.00    +0.000 C 
ENDBRANCH  32  34
ENDBRANCH  31  32
ENDBRANCH  30  31
ENDBRANCH  29  30
ENDBRANCH   1  29
TORSDOF 10
ENDMDL
MODEL 9
REMARK VINA RESULT:      -6.9      2.284      5.963
REMARK  Name = 
REMARK  15 active torsions:
REMARK  status: ('A' for Active; 'I' for Inactive)
REMARK    1  A    between atoms: C_1  and  C_2
REMARK    2  A    between atoms: C_2  and  C_3
REMARK    3  A    between atoms: C_3  and  C_4
REMARK    4  A    between atoms: C_4  and  C_5
REMARK    5  A    between atoms: C_5  and  O_6
REMARK    6  A    between atoms: O_6  and  C_7
REMARK    7  A    between atoms: C_12  and  C_13
REMARK    8  A    between atoms: C_15  and  C_16
REMARK    9  A    between atoms: C_17  and  C_18
REMARK   10  A    between atoms: C_18  and  O_20
REMARK   11  A    between atoms: C_23  and  O_24
REMARK   12  A    between atoms: C_25  and  C_26
REMARK   13  A    between atoms: C_25  and  C_27
REMARK   14  A    between atoms: C_30  and  C_31
REMARK   15  A    between atoms: C_30  and  C_32
REMARK                            x       y       z     vdW  Elec       q    Type
REMARK                         _______ _______ _______ _____ _____    ______ ____
ROOT
ATOM      1  C   UNL     1      -2.885  12.847  20.159  0.00  0.00    +0.000 A 
ATOM      2  C   UNL     1      -3.602  13.402  21.243  0.00  0.00    +0.000 A 
ATOM      3  C   UNL     1      -5.004  13.287  21.387  0.00  0.00    +0.000 A 
ATOM      4  C   UNL     1      -5.702  12.630  20.374  0.00  0.00    +0.000 A 
ATOM      5  C   UNL     1      -4.958  11.968  19.371  0.00  0.00    +0.000 A 
ATOM      6  C   UNL     1      -3.559  12.050  19.212  0.00  0.00    +0.000 A 
ATOM      7  C   UNL     1      -7.229  12.549  20.314  0.00  0.00    +0.000 C 
ATOM      8  C   UNL     1      -7.657  11.092  20.559  0.00  0.00    +0.000 C 
ATOM      9  C   UNL     1      -7.746  12.996  18.924  0.00  0.00    +0.000 C 
ATOM     10  C   UNL     1      -7.898  13.492  21.339  0.00  0.00    +0.000 C 
ATOM     11  C   UNL     1      -7.203  13.490  22.689  0.00  0.00    +0.000 C 
ATOM     12  C   UNL     1      -5.704  13.880  22.615  0.00  0.00    +0.000 C 
ATOM     13  C   UNL     1      -5.562  15.419  22.602  0.00  0.00    +0.000 C 
ATOM     14  C   UNL     1      -5.063  13.341  23.916  0.00  0.00    +0.000 C 
ENDROOT
BRANCH   6  15
ATOM     15  C   UNL     1      -2.950  11.291  18.079  0.00  0.00    +0.000 A 
ATOM     16  C   UNL     1      -3.502  11.379  16.787  0.00  0.00    +0.000 A 
ATOM     17  C   UNL     1      -3.118  10.518  15.746  0.00  0.00    +0.000 A 
ATOM     18  C   UNL     1      -2.041   9.652  15.954  0.00  0.00    +0.000 A 
ATOM     19  C   UNL     1      -1.382   9.630  17.182  0.00  0.00    +0.000 A 
ATOM     20  C   UNL     1      -1.852  10.414  18.236  0.00  0.00    +0.000 A 
BRANCH  17  21
ATOM     21  C   UNL     1      -3.901  10.377  14.505  0.00  0.00    +0.000 C 
ATOM     22  C   UNL     1      -3.490   9.720  13.412  0.00  0.00    +0.000 C 
BRANCH  22  23
ATOM     23  C   UNL     1      -4.332   9.721  12.197  0.00  0.00    +0.000 C 
ATOM     24  O   UNL     1      -5.539   9.563  12.190  0.00  0.00    +0.000 OA
BRANCH  23  25
ATOM     25  O   UNL     1      -3.602   9.930  11.084  0.00  0.00    +0.000 OA
ATOM     26  H   UNL     1      -2.648  10.045  11.220  0.00  0.00    +0.000 HD
ENDBRANCH  23  25
ENDBRANCH  22  23
ENDBRANCH  17  21
BRANCH  20  27
ATOM     27  O   UNL     1      -1.238  10.284  19.454  0.00  0.00    +0.000 OA
ATOM     28  H   UNL     1      -0.400  10.772  19.450  0.00  0.00    +0.000 HD
ENDBRANCH  20  27
ENDBRANCH   6  15
BRANCH   1  29
ATOM     29  O   UNL     1      -1.549  13.168  20.226  0.00  0.00    +0.000 OA
BRANCH  29  30
ATOM     30  C   UNL     1      -1.080  14.257  19.441  0.00  0.00    +0.000 C 
BRANCH  30  31
ATOM     31  C   UNL     1       0.437  14.351  19.439  0.00  0.00    +0.000 C 
BRANCH  31  32
ATOM     32  C   UNL     1       1.006  12.939  19.265  0.00  0.00    +0.000 C 
BRANCH  32  34
ATOM     33  C   UNL     1       2.634  13.768  20.980  0.00  0.00    +0.000 C 
ATOM     34  C   UNL     1       1.930  12.548  20.408  0.00  0.00    +0.000 C 
ENDBRANCH  32  34
ENDBRANCH  31  32
ENDBRANCH  30  31
ENDBRANCH  29  30
ENDBRANCH   1  29
TORSDOF 10
ENDMDL
