MODEL 1
REMARK VINA RESULT:      -7.7      0.000      0.000
REMARK  Name = 
REMARK  8 active torsions:
REMARK  status: ('A' for Active; 'I' for Inactive)
REMARK    1  A    between atoms: C_1  and  N_2
REMARK    2  A    between atoms: N_2  and  C_3
REMARK    3  A    between atoms: N_2  and  C_4
REMARK    4  A    between atoms: C_7  and  C_8
REMARK    5  A    between atoms: CA_10  and  C_11
REMARK    6  A    between atoms: C_11  and  OXT_13
REMARK    7  A    between atoms: CA_15  and  C_16
REMARK    8  A    between atoms: C_16  and  OXT_18
REMARK                            x       y       z     vdW  Elec       q    Type
REMARK                         _______ _______ _______ _____ _____    ______ ____
ROOT
ATOM      1  C   UNL     1       3.591   6.093  18.131  0.00  0.00    +0.000 A 
ATOM      2  C   UNL     1       3.067   4.794  18.154  0.00  0.00    +0.000 A 
ATOM      3  CA  UNL     1       3.857   3.718  17.754  0.00  0.00    +0.000 A 
ATOM      4  N   UNL     1       5.148   3.819  17.318  0.00  0.00    +0.000 NA
ATOM      5  CA  UNL     1       5.634   5.097  17.307  0.00  0.00    +0.000 A 
ATOM      6  C   UNL     1       4.917   6.226  17.698  0.00  0.00    +0.000 A 
ENDROOT
BRANCH   1  10
ATOM      7  C   UNL     1       1.139   9.525  19.290  0.00  0.00    +0.000 A 
ATOM      8  C   UNL     1       1.397   8.462  20.163  0.00  0.00    +0.000 A 
ATOM      9  C   UNL     1       2.197   7.368  19.800  0.00  0.00    +0.000 A 
ATOM     10  C   UNL     1       2.776   7.266  18.528  0.00  0.00    +0.000 A 
ATOM     11  C   UNL     1       2.525   8.327  17.648  0.00  0.00    +0.000 A 
ATOM     12  C   UNL     1       1.733   9.426  18.024  0.00  0.00    +0.000 A 
BRANCH   7  14
ATOM     13  C   UNL     1      -1.065  10.653  19.301  0.00  0.00    +0.000 C 
ATOM     14  N   UNL     1       0.347  10.608  19.654  0.00  0.00    +0.000 N 
ATOM     15  C   UNL     1       0.913  11.748  20.361  0.00  0.00    +0.000 C 
ENDBRANCH   7  14
ENDBRANCH   1  10
BRANCH   3  16
ATOM     16  C   UNL     1       3.267   2.344  17.793  0.00  0.00    +0.000 C 
ATOM     17  O   UNL     1       2.140   2.068  17.421  0.00  0.00    +0.000 OA
BRANCH  16  18
ATOM     18  OXT UNL     1       4.139   1.439  18.295  0.00  0.00    +0.000 OA
ATOM     19  HXT UNL     1       4.958   1.420  17.761  0.00  0.00    +0.000 HD
ENDBRANCH  16  18
ENDBRANCH   3  16
BRANCH   5  20
ATOM     20  C   UNL     1       7.039   5.277  16.822  0.00  0.00    +0.000 C 
ATOM     21  O   UNL     1       7.459   6.292  16.297  0.00  0.00    +0.000 OA
BRANCH  20  22
ATOM     22  OXT UNL     1       7.785   4.169  17.029  0.00  0.00    +0.000 OA
ATOM     23  HXT UNL     1       7.330   3.557  17.641  0.00  0.00    +0.000 HD
ENDBRANCH  20  22
ENDBRANCH   5  20
TORSDOF 6
ENDMDL
MODEL 2
REMARK VINA RESULT:      -7.7      0.564      3.205
REMARK  Name = 
REMARK  8 active torsions:
REMARK  status: ('A' for Active; 'I' for Inactive)
REMARK    1  A    between atoms: C_1  and  N_2
REMARK    2  A    between atoms: N_2  and  C_3
REMARK    3  A    between atoms: N_2  and  C_4
REMARK    4  A    between atoms: C_7  and  C_8
REMARK    5  A    between atoms: CA_10  and  C_11
REMARK    6  A    between atoms: C_11  and  OXT_13
REMARK    7  A    between atoms: CA_15  and  C_16
REMARK    8  A    between atoms: C_16  and  OXT_18
REMARK                            x       y       z     vdW  Elec       q    Type
REMARK                         _______ _______ _______ _____ _____    ______ ____
ROOT
ATOM      1  C   UNL     1       3.471   6.197  18.077  0.00  0.00    +0.000 A 
ATOM      2  C   UNL     1       4.802   6.338  17.662  0.00  0.00    +0.000 A 
ATOM      3  CA  UNL     1       5.534   5.214  17.283  0.00  0.00    +0.000 A 
ATOM      4  N   UNL     1       5.055   3.935  17.284  0.00  0.00    +0.000 NA
ATOM      5  CA  UNL     1       3.754   3.827  17.692  0.00  0.00    +0.000 A 
ATOM      6  C   UNL     1       2.949   4.897  18.078  0.00  0.00    +0.000 A 
ENDROOT
BRANCH   1  10
ATOM      7  C   UNL     1       1.045   9.612  19.337  0.00  0.00    +0.000 A 
ATOM      8  C   UNL     1       1.344   8.550  20.198  0.00  0.00    +0.000 A 
ATOM      9  C   UNL     1       2.136   7.461  19.802  0.00  0.00    +0.000 A 
ATOM     10  C   UNL     1       2.665   7.364  18.508  0.00  0.00    +0.000 A 
ATOM     11  C   UNL     1       2.372   8.425  17.640  0.00  0.00    +0.000 A 
ATOM     12  C   UNL     1       1.589   9.518  18.048  0.00  0.00    +0.000 A 
BRANCH   7  14
ATOM     13  C   UNL     1       0.110  11.859  18.878  0.00  0.00    +0.000 C 
ATOM     14  N   UNL     1       0.261  10.689  19.733  0.00  0.00    +0.000 N 
ATOM     15  C   UNL     1      -0.398  10.701  21.032  0.00  0.00    +0.000 C 
ENDBRANCH   7  14
ENDBRANCH   1  10
BRANCH   3  16
ATOM     16  C   UNL     1       6.952   5.400  16.844  0.00  0.00    +0.000 C 
ATOM     17  O   UNL     1       7.392   6.425  16.354  0.00  0.00    +0.000 OA
BRANCH  16  18
ATOM     18  OXT UNL     1       7.691   4.287  17.056  0.00  0.00    +0.000 OA
ATOM     19  HXT UNL     1       8.610   4.423  16.747  0.00  0.00    +0.000 HD
ENDBRANCH  16  18
ENDBRANCH   3  16
BRANCH   5  20
ATOM     20  C   UNL     1       3.175   2.447  17.731  0.00  0.00    +0.000 C 
ATOM     21  O   UNL     1       1.995   2.194  17.572  0.00  0.00    +0.000 OA
BRANCH  20  22
ATOM     22  OXT UNL     1       4.122   1.515  17.977  0.00  0.00    +0.000 OA
ATOM     23  HXT UNL     1       5.006   1.844  17.717  0.00  0.00    +0.000 HD
ENDBRANCH  20  22
ENDBRANCH   5  20
TORSDOF 6
ENDMDL
MODEL 3
REMARK VINA RESULT:      -7.7      0.234      1.060
REMARK  Name = 
REMARK  8 active torsions:
REMARK  status: ('A' for Active; 'I' for Inactive)
REMARK    1  A    between atoms: C_1  and  N_2
REMARK    2  A    between atoms: N_2  and  C_3
REMARK    3  A    between atoms: N_2  and  C_4
REMARK    4  A    between atoms: C_7  and  C_8
REMARK    5  A    between atoms: CA_10  and  C_11
REMARK    6  A    between atoms: C_11  and  OXT_13
REMARK    7  A    between atoms: CA_15  and  C_16
REMARK    8  A    between atoms: C_16  and  OXT_18
REMARK                            x       y       z     vdW  Elec       q    Type
REMARK                         _______ _______ _______ _____ _____    ______ ____
ROOT
ATOM      1  C   UNL     1       3.605   5.911  18.149  0.00  0.00    +0.000 A 
ATOM      2  C   UNL     1       3.098   4.608  18.240  0.00  0.00    +0.000 A 
ATOM      3  CA  UNL     1       3.878   3.528  17.830  0.00  0.00    +0.000 A 
ATOM      4  N   UNL     1       5.142   3.628  17.322  0.00  0.00    +0.000 NA
ATOM      5  CA  UNL     1       5.612   4.910  17.245  0.00  0.00    +0.000 A 
ATOM      6  C   UNL     1       4.904   6.044  17.641  0.00  0.00    +0.000 A 
ENDROOT
BRANCH   1  10
ATOM      7  C   UNL     1       1.181   9.355  19.333  0.00  0.00    +0.000 A 
ATOM      8  C   UNL     1       1.426   8.281  20.197  0.00  0.00    +0.000 A 
ATOM      9  C   UNL     1       2.218   7.183  19.826  0.00  0.00    +0.000 A 
ATOM     10  C   UNL     1       2.800   7.087  18.555  0.00  0.00    +0.000 A 
ATOM     11  C   UNL     1       2.561   8.159  17.684  0.00  0.00    +0.000 A 
ATOM     12  C   UNL     1       1.778   9.262  18.068  0.00  0.00    +0.000 A 
BRANCH   7  14
ATOM     13  C   UNL     1       0.907  11.449  20.624  0.00  0.00    +0.000 C 
ATOM     14  N   UNL     1       0.399  10.441  19.704  0.00  0.00    +0.000 N 
ATOM     15  C   UNL     1      -0.968  10.584  19.221  0.00  0.00    +0.000 C 
ENDBRANCH   7  14
ENDBRANCH   1  10
BRANCH   3  16
ATOM     16  C   UNL     1       3.306   2.150  17.943  0.00  0.00    +0.000 C 
ATOM     17  O   UNL     1       3.872   1.211  18.473  0.00  0.00    +0.000 OA
BRANCH  16  18
ATOM     18  OXT UNL     1       2.078   2.071  17.380  0.00  0.00    +0.000 OA
ATOM     19  HXT UNL     1       1.406   2.471  17.967  0.00  0.00    +0.000 HD
ENDBRANCH  16  18
ENDBRANCH   3  16
BRANCH   5  20
ATOM     20  C   UNL     1       6.986   5.088  16.679  0.00  0.00    +0.000 C 
ATOM     21  O   UNL     1       7.314   6.007  15.950  0.00  0.00    +0.000 OA
BRANCH  20  22
ATOM     22  OXT UNL     1       7.819   4.097  17.067  0.00  0.00    +0.000 OA
ATOM     23  HXT UNL     1       7.893   3.416  16.368  0.00  0.00    +0.000 HD
ENDBRANCH  20  22
ENDBRANCH   5  20
TORSDOF 6
ENDMDL
MODEL 4
REMARK VINA RESULT:      -7.6      0.464      1.135
REMARK  Name = 
REMARK  8 active torsions:
REMARK  status: ('A' for Active; 'I' for Inactive)
REMARK    1  A    between atoms: C_1  and  N_2
REMARK    2  A    between atoms: N_2  and  C_3
REMARK    3  A    between atoms: N_2  and  C_4
REMARK    4  A    between atoms: C_7  and  C_8
REMARK    5  A    between atoms: CA_10  and  C_11
REMARK    6  A    between atoms: C_11  and  OXT_13
REMARK    7  A    between atoms: CA_15  and  C_16
REMARK    8  A    between atoms: C_16  and  OXT_18
REMARK                            x       y       z     vdW  Elec       q    Type
REMARK                         _______ _______ _______ _____ _____    ______ ____
ROOT
ATOM      1  C   UNL     1       3.503   6.158  18.158  0.00  0.00    +0.000 A 
ATOM      2  C   UNL     1       2.995   4.853  18.150  0.00  0.00    +0.000 A 
ATOM      3  CA  UNL     1       3.806   3.794  17.746  0.00  0.00    +0.000 A 
ATOM      4  N   UNL     1       5.103   3.918  17.335  0.00  0.00    +0.000 NA
ATOM      5  CA  UNL     1       5.573   5.202  17.354  0.00  0.00    +0.000 A 
ATOM      6  C   UNL     1       4.835   6.315  17.752  0.00  0.00    +0.000 A 
ENDROOT
BRANCH   1  10
ATOM      7  C   UNL     1       1.083   9.599  19.358  0.00  0.00    +0.000 A 
ATOM      8  C   UNL     1       1.618   9.475  18.070  0.00  0.00    +0.000 A 
ATOM      9  C   UNL     1       2.381   8.363  17.678  0.00  0.00    +0.000 A 
ATOM     10  C   UNL     1       2.667   7.314  18.560  0.00  0.00    +0.000 A 
ATOM     11  C   UNL     1       2.133   7.430  19.850  0.00  0.00    +0.000 A 
ATOM     12  C   UNL     1       1.358   8.539  20.233  0.00  0.00    +0.000 A 
BRANCH   7  14
ATOM     13  C   UNL     1      -0.143  11.665  18.758  0.00  0.00    +0.000 C 
ATOM     14  N   UNL     1       0.327  10.699  19.742  0.00  0.00    +0.000 N 
ATOM     15  C   UNL     1       0.017  10.945  21.144  0.00  0.00    +0.000 C 
ENDBRANCH   7  14
ENDBRANCH   1  10
BRANCH   3  16
ATOM     16  C   UNL     1       3.232   2.412  17.750  0.00  0.00    +0.000 C 
ATOM     17  O   UNL     1       2.101   2.135  17.395  0.00  0.00    +0.000 OA
BRANCH  16  18
ATOM     18  OXT UNL     1       4.125   1.501  18.201  0.00  0.00    +0.000 OA
ATOM     19  HXT UNL     1       3.692   0.634  18.335  0.00  0.00    +0.000 HD
ENDBRANCH  16  18
ENDBRANCH   3  16
BRANCH   5  20
ATOM     20  C   UNL     1       6.985   5.406  16.899  0.00  0.00    +0.000 C 
ATOM     21  O   UNL     1       7.403   6.438  16.403  0.00  0.00    +0.000 OA
BRANCH  20  22
ATOM     22  OXT UNL     1       7.739   4.302  17.093  0.00  0.00    +0.000 OA
ATOM     23  HXT UNL     1       8.561   4.349  16.565  0.00  0.00    +0.000 HD
ENDBRANCH  20  22
ENDBRANCH   5  20
TORSDOF 6
ENDMDL
MODEL 5
REMARK VINA RESULT:      -7.6      0.574      1.365
REMARK  Name = 
REMARK  8 active torsions:
REMARK  status: ('A' for Active; 'I' for Inactive)
REMARK    1  A    between atoms: C_1  and  N_2
REMARK    2  A    between atoms: N_2  and  C_3
REMARK    3  A    between atoms: N_2  and  C_4
REMARK    4  A    between atoms: C_7  and  C_8
REMARK    5  A    between atoms: CA_10  and  C_11
REMARK    6  A    between atoms: C_11  and  OXT_13
REMARK    7  A    between atoms: CA_15  and  C_16
REMARK    8  A    between atoms: C_16  and  OXT_18
REMARK                            x       y       z     vdW  Elec       q    Type
REMARK                         _______ _______ _______ _____ _____    ______ ____
ROOT
ATOM      1  C   UNL     1       3.504   6.180  18.092  0.00  0.00    +0.000 A 
ATOM      2  C   UNL     1       3.003   4.872  18.113  0.00  0.00    +0.000 A 
ATOM      3  CA  UNL     1       3.807   3.813  17.697  0.00  0.00    +0.000 A 
ATOM      4  N   UNL     1       5.091   3.939  17.248  0.00  0.00    +0.000 NA
ATOM      5  CA  UNL     1       5.554   5.225  17.239  0.00  0.00    +0.000 A 
ATOM      6  C   UNL     1       4.822   6.339  17.646  0.00  0.00    +0.000 A 
ENDROOT
BRANCH   1  10
ATOM      7  C   UNL     1       1.101   9.621  19.327  0.00  0.00    +0.000 A 
ATOM      8  C   UNL     1       1.649   9.515  18.044  0.00  0.00    +0.000 A 
ATOM      9  C   UNL     1       2.407   8.404  17.639  0.00  0.00    +0.000 A 
ATOM     10  C   UNL     1       2.673   7.336  18.506  0.00  0.00    +0.000 A 
ATOM     11  C   UNL     1       2.126   7.434  19.792  0.00  0.00    +0.000 A 
ATOM     12  C   UNL     1       1.357   8.543  20.186  0.00  0.00    +0.000 A 
BRANCH   7  14
ATOM     13  C   UNL     1      -0.393  10.707  20.975  0.00  0.00    +0.000 C 
ATOM     14  N   UNL     1       0.350  10.721  19.723  0.00  0.00    +0.000 N 
ATOM     15  C   UNL     1       0.249  11.904  18.880  0.00  0.00    +0.000 C 
ENDBRANCH   7  14
ENDBRANCH   1  10
BRANCH   3  16
ATOM     16  C   UNL     1       3.241   2.428  17.735  0.00  0.00    +0.000 C 
ATOM     17  O   UNL     1       2.095   2.145  17.434  0.00  0.00    +0.000 OA
BRANCH  16  18
ATOM     18  OXT UNL     1       4.159   1.524  18.146  0.00  0.00    +0.000 OA
ATOM     19  HXT UNL     1       4.836   1.384  17.454  0.00  0.00    +0.000 HD
ENDBRANCH  16  18
ENDBRANCH   3  16
BRANCH   5  20
ATOM     20  C   UNL     1       6.950   5.432  16.739  0.00  0.00    +0.000 C 
ATOM     21  O   UNL     1       7.745   4.532  16.531  0.00  0.00    +0.000 OA
BRANCH  20  22
ATOM     22  OXT UNL     1       7.228   6.742  16.557  0.00  0.00    +0.000 OA
ATOM     23  HXT UNL     1       6.513   7.178  16.050  0.00  0.00    +0.000 HD
ENDBRANCH  20  22
ENDBRANCH   5  20
TORSDOF 6
ENDMDL
MODEL 6
REMARK VINA RESULT:      -7.6      0.587      3.414
REMARK  Name = 
REMARK  8 active torsions:
REMARK  status: ('A' for Active; 'I' for Inactive)
REMARK    1  A    between atoms: C_1  and  N_2
REMARK    2  A    between atoms: N_2  and  C_3
REMARK    3  A    between atoms: N_2  and  C_4
REMARK    4  A    between atoms: C_7  and  C_8
REMARK    5  A    between atoms: CA_10  and  C_11
REMARK    6  A    between atoms: C_11  and  OXT_13
REMARK    7  A    between atoms: CA_15  and  C_16
REMARK    8  A    between atoms: C_16  and  OXT_18
REMARK                            x       y       z     vdW  Elec       q    Type
REMARK                         _______ _______ _______ _____ _____    ______ ____
ROOT
ATOM      1  C   UNL     1       3.376   6.255  18.023  0.00  0.00    +0.000 A 
ATOM      2  C   UNL     1       4.676   6.434  17.534  0.00  0.00    +0.000 A 
ATOM      3  CA  UNL     1       5.417   5.333  17.107  0.00  0.00    +0.000 A 
ATOM      4  N   UNL     1       4.974   4.041  17.129  0.00  0.00    +0.000 NA
ATOM      5  CA  UNL     1       3.703   3.895  17.610  0.00  0.00    +0.000 A 
ATOM      6  C   UNL     1       2.891   4.940  18.047  0.00  0.00    +0.000 A 
ENDROOT
BRANCH   1  10
ATOM      7  C   UNL     1       1.027   9.655  19.456  0.00  0.00    +0.000 A 
ATOM      8  C   UNL     1       1.490   9.570  18.138  0.00  0.00    +0.000 A 
ATOM      9  C   UNL     1       2.230   8.472  17.671  0.00  0.00    +0.000 A 
ATOM     10  C   UNL     1       2.564   7.397  18.505  0.00  0.00    +0.000 A 
ATOM     11  C   UNL     1       2.102   7.474  19.826  0.00  0.00    +0.000 A 
ATOM     12  C   UNL     1       1.350   8.570  20.283  0.00  0.00    +0.000 A 
BRANCH   7  14
ATOM     13  C   UNL     1      -0.262  11.716  18.984  0.00  0.00    +0.000 C 
ATOM     14  N   UNL     1       0.294  10.743  19.914  0.00  0.00    +0.000 N 
ATOM     15  C   UNL     1       0.094  10.968  21.339  0.00  0.00    +0.000 C 
ENDBRANCH   7  14
ENDBRANCH   1  10
BRANCH   3  16
ATOM     16  C   UNL     1       6.802   5.560  16.589  0.00  0.00    +0.000 C 
ATOM     17  O   UNL     1       7.534   4.681  16.172  0.00  0.00    +0.000 OA
BRANCH  16  18
ATOM     18  OXT UNL     1       7.147   6.867  16.640  0.00  0.00    +0.000 OA
ATOM     19  HXT UNL     1       8.095   6.963  16.860  0.00  0.00    +0.000 HD
ENDBRANCH  16  18
ENDBRANCH   3  16
BRANCH   5  20
ATOM     20  C   UNL     1       3.166   2.499  17.675  0.00  0.00    +0.000 C 
ATOM     21  O   UNL     1       1.994   2.207  17.520  0.00  0.00    +0.000 OA
BRANCH  20  22
ATOM     22  OXT UNL     1       4.140   1.600  17.939  0.00  0.00    +0.000 OA
ATOM     23  HXT UNL     1       4.734   1.932  18.642  0.00  0.00    +0.000 HD
ENDBRANCH  20  22
ENDBRANCH   5  20
TORSDOF 6
ENDMDL
MODEL 7
REMARK VINA RESULT:      -7.5      0.452      1.437
REMARK  Name = 
REMARK  8 active torsions:
REMARK  status: ('A' for Active; 'I' for Inactive)
REMARK    1  A    between atoms: C_1  and  N_2
REMARK    2  A    between atoms: N_2  and  C_3
REMARK    3  A    between atoms: N_2  and  C_4
REMARK    4  A    between atoms: C_7  and  C_8
REMARK    5  A    between atoms: CA_10  and  C_11
REMARK    6  A    between atoms: C_11  and  OXT_13
REMARK    7  A    between atoms: CA_15  and  C_16
REMARK    8  A    between atoms: C_16  and  OXT_18
REMARK                            x       y       z     vdW  Elec       q    Type
REMARK                         _______ _______ _______ _____ _____    ______ ____
ROOT
ATOM      1  C   UNL     1       3.567   5.938  18.110  0.00  0.00    +0.000 A 
ATOM      2  C   UNL     1       3.047   4.639  18.182  0.00  0.00    +0.000 A 
ATOM      3  CA  UNL     1       3.817   3.558  17.759  0.00  0.00    +0.000 A 
ATOM      4  N   UNL     1       5.083   3.652  17.254  0.00  0.00    +0.000 NA
ATOM      5  CA  UNL     1       5.566   4.930  17.196  0.00  0.00    +0.000 A 
ATOM      6  C   UNL     1       4.868   6.065  17.606  0.00  0.00    +0.000 A 
ENDROOT
BRANCH   1  10
ATOM      7  C   UNL     1       1.270   9.443  19.365  0.00  0.00    +0.000 A 
ATOM      8  C   UNL     1       1.856   9.348  18.097  0.00  0.00    +0.000 A 
ATOM      9  C   UNL     1       2.579   8.218  17.685  0.00  0.00    +0.000 A 
ATOM     10  C   UNL     1       2.773   7.117  18.530  0.00  0.00    +0.000 A 
ATOM     11  C   UNL     1       2.188   7.203  19.800  0.00  0.00    +0.000 A 
ATOM     12  C   UNL     1       1.454   8.333  20.200  0.00  0.00    +0.000 A 
BRANCH   7  14
ATOM     13  C   UNL     1       0.457  10.922  21.176  0.00  0.00    +0.000 C 
ATOM     14  N   UNL     1       0.554  10.563  19.768  0.00  0.00    +0.000 N 
ATOM     15  C   UNL     1      -0.157  11.389  18.801  0.00  0.00    +0.000 C 
ENDBRANCH   7  14
ENDBRANCH   1  10
BRANCH   3  16
ATOM     16  C   UNL     1       3.232   2.184  17.852  0.00  0.00    +0.000 C 
ATOM     17  O   UNL     1       3.777   1.239  18.394  0.00  0.00    +0.000 OA
BRANCH  16  18
ATOM     18  OXT UNL     1       2.019   2.116  17.257  0.00  0.00    +0.000 OA
ATOM     19  HXT UNL     1       2.088   2.355  16.311  0.00  0.00    +0.000 HD
ENDBRANCH  16  18
ENDBRANCH   3  16
BRANCH   5  20
ATOM     20  C   UNL     1       6.943   5.102  16.635  0.00  0.00    +0.000 C 
ATOM     21  O   UNL     1       7.250   5.952  15.818  0.00  0.00    +0.000 OA
BRANCH  20  22
ATOM     22  OXT UNL     1       7.806   4.191  17.138  0.00  0.00    +0.000 OA
ATOM     23  HXT UNL     1       8.731   4.466  16.974  0.00  0.00    +0.000 HD
ENDBRANCH  20  22
ENDBRANCH   5  20
TORSDOF 6
ENDMDL
MODEL 8
REMARK VINA RESULT:      -7.5      0.787      3.344
REMARK  Name = 
REMARK  8 active torsions:
REMARK  status: ('A' for Active; 'I' for Inactive)
REMARK    1  A    between atoms: C_1  and  N_2
REMARK    2  A    between atoms: N_2  and  C_3
REMARK    3  A    between atoms: N_2  and  C_4
REMARK    4  A    between atoms: C_7  and  C_8
REMARK    5  A    between atoms: CA_10  and  C_11
REMARK    6  A    between atoms: C_11  and  OXT_13
REMARK    7  A    between atoms: CA_15  and  C_16
REMARK    8  A    between atoms: C_16  and  OXT_18
REMARK                            x       y       z     vdW  Elec       q    Type
REMARK                         _______ _______ _______ _____ _____    ______ ____
ROOT
ATOM      1  C   UNL     1       3.336   5.922  17.983  0.00  0.00    +0.000 A 
ATOM      2  C   UNL     1       4.538   6.043  17.273  0.00  0.00    +0.000 A 
ATOM      3  CA  UNL     1       5.195   4.901  16.819  0.00  0.00    +0.000 A 
ATOM      4  N   UNL     1       4.759   3.622  17.015  0.00  0.00    +0.000 NA
ATOM      5  CA  UNL     1       3.585   3.533  17.709  0.00  0.00    +0.000 A 
ATOM      6  C   UNL     1       2.859   4.621  18.191  0.00  0.00    +0.000 A 
ENDROOT
BRANCH   1  10
ATOM      7  C   UNL     1       1.166   9.402  19.505  0.00  0.00    +0.000 A 
ATOM      8  C   UNL     1       1.485   8.307  20.316  0.00  0.00    +0.000 A 
ATOM      9  C   UNL     1       2.196   7.196  19.835  0.00  0.00    +0.000 A 
ATOM     10  C   UNL     1       2.618   7.110  18.502  0.00  0.00    +0.000 A 
ATOM     11  C   UNL     1       2.304   8.203  17.683  0.00  0.00    +0.000 A 
ATOM     12  C   UNL     1       1.604   9.318  18.176  0.00  0.00    +0.000 A 
BRANCH   7  14
ATOM     13  C   UNL     1      -0.061  10.516  21.344  0.00  0.00    +0.000 C 
ATOM     14  N   UNL     1       0.463  10.500  19.985  0.00  0.00    +0.000 N 
ATOM     15  C   UNL     1       0.192  11.650  19.134  0.00  0.00    +0.000 C 
ENDBRANCH   7  14
ENDBRANCH   1  10
BRANCH   3  16
ATOM     16  C   UNL     1       6.475   5.067  16.062  0.00  0.00    +0.000 C 
ATOM     17  O   UNL     1       7.552   4.630  16.426  0.00  0.00    +0.000 OA
BRANCH  16  18
ATOM     18  OXT UNL     1       6.292   5.766  14.918  0.00  0.00    +0.000 OA
ATOM     19  HXT UNL     1       6.398   5.182  14.140  0.00  0.00    +0.000 HD
ENDBRANCH  16  18
ENDBRANCH   3  16
BRANCH   5  20
ATOM     20  C   UNL     1       3.064   2.154  17.972  0.00  0.00    +0.000 C 
ATOM     21  O   UNL     1       3.747   1.226  18.367  0.00  0.00    +0.000 OA
BRANCH  20  22
ATOM     22  OXT UNL     1       1.742   2.060  17.708  0.00  0.00    +0.000 OA
ATOM     23  HXT UNL     1       1.339   2.950  17.647  0.00  0.00    +0.000 HD
ENDBRANCH  20  22
ENDBRANCH   5  20
TORSDOF 6
ENDMDL
MODEL 9
REMARK VINA RESULT:      -7.5      2.047      2.496
REMARK  Name = 
REMARK  8 active torsions:
REMARK  status: ('A' for Active; 'I' for Inactive)
REMARK    1  A    between atoms: C_1  and  N_2
REMARK    2  A    between atoms: N_2  and  C_3
REMARK    3  A    between atoms: N_2  and  C_4
REMARK    4  A    between atoms: C_7  and  C_8
REMARK    5  A    between atoms: CA_10  and  C_11
REMARK    6  A    between atoms: C_11  and  OXT_13
REMARK    7  A    between atoms: CA_15  and  C_16
REMARK    8  A    between atoms: C_16  and  OXT_18
REMARK                            x       y       z     vdW  Elec       q    Type
REMARK                         _______ _______ _______ _____ _____    ______ ____
ROOT
ATOM      1  C   UNL     1       2.671   6.341  19.349  0.00  0.00    +0.000 A 
ATOM      2  C   UNL     1       2.117   5.400  20.227  0.00  0.00    +0.000 A 
ATOM      3  CA  UNL     1       2.654   4.117  20.300  0.00  0.00    +0.000 A 
ATOM      4  N   UNL     1       3.712   3.672  19.558  0.00  0.00    +0.000 NA
ATOM      5  CA  UNL     1       4.233   4.610  18.712  0.00  0.00    +0.000 A 
ATOM      6  C   UNL     1       3.764   5.916  18.583  0.00  0.00    +0.000 A 
ENDROOT
BRANCH   1  10
ATOM      7  C   UNL     1       0.980  10.358  18.976  0.00  0.00    +0.000 A 
ATOM      8  C   UNL     1       0.888   9.616  20.159  0.00  0.00    +0.000 A 
ATOM      9  C   UNL     1       1.444   8.333  20.287  0.00  0.00    +0.000 A 
ATOM     10  C   UNL     1       2.115   7.710  19.227  0.00  0.00    +0.000 A 
ATOM     11  C   UNL     1       2.214   8.447  18.040  0.00  0.00    +0.000 A 
ATOM     12  C   UNL     1       1.665   9.737  17.923  0.00  0.00    +0.000 A 
BRANCH   7  14
ATOM     13  C   UNL     1       1.274  12.815  18.878  0.00  0.00    +0.000 C 
ATOM     14  N   UNL     1       0.429  11.628  18.854  0.00  0.00    +0.000 N 
ATOM     15  C   UNL     1      -1.010  11.815  18.741  0.00  0.00    +0.000 C 
ENDBRANCH   7  14
ENDBRANCH   1  10
BRANCH   3  16
ATOM     16  C   UNL     1       2.040   3.137  21.249  0.00  0.00    +0.000 C 
ATOM     17  O   UNL     1       2.649   2.561  22.133  0.00  0.00    +0.000 OA
BRANCH  16  18
ATOM     18  OXT UNL     1       0.721   2.965  21.006  0.00  0.00    +0.000 OA
ATOM     19  HXT UNL     1       0.467   2.030  21.140  0.00  0.00    +0.000 HD
ENDBRANCH  16  18
ENDBRANCH   3  16
BRANCH   5  20
ATOM     20  C   UNL     1       5.385   4.178  17.858  0.00  0.00    +0.000 C 
ATOM     21  O   UNL     1       5.310   3.961  16.662  0.00  0.00    +0.000 OA
BRANCH  20  22
ATOM     22  OXT UNL     1       6.521   4.047  18.579  0.00  0.00    +0.000 OA
ATOM     23  HXT UNL     1       7.018   4.890  18.595  0.00  0.00    +0.000 HD
ENDBRANCH  20  22
ENDBRANCH   5  20
TORSDOF 6
ENDMDL
