MODEL 1
REMARK VINA RESULT:      -6.7      0.000      0.000
REMARK  Name = 
REMARK  11 active torsions:
REMARK  status: ('A' for Active; 'I' for Inactive)
REMARK    1  A    between atoms: C_1  and  C_2
REMARK    2  A    between atoms: C_2  and  C_3
REMARK    3  A    between atoms: C_2  and  C_10
REMARK    4  A    between atoms: C_3  and  C_4
REMARK    5  A    between atoms: C_4  and  C_5
REMARK    6  A    between atoms: C_5  and  C_6
REMARK    7  A    between atoms: C_6  and  C_7
REMARK    8  A    between atoms: C_7  and  O_9
REMARK    9  A    between atoms: C_19  and  O_20
REMARK   10  A    between atoms: C_23  and  C_24
REMARK   11  A    between atoms: C_28  and  C_29
REMARK                            x       y       z     vdW  Elec       q    Type
REMARK                         _______ _______ _______ _____ _____    ______ ____
ROOT
ATOM      1  C   UNL     1       0.976  10.346  18.656  0.00  0.00    +0.000 C 
ATOM      2  C   UNL     1      -0.520  10.221  19.045  0.00  0.00    +0.000 C 
ATOM      3  C   UNL     1      -1.002  11.618  19.433  0.00  0.00    +0.000 C 
ATOM      4  C   UNL     1       0.042  12.547  18.838  0.00  0.00    +0.000 C 
ATOM      5  C   UNL     1       0.134  13.965  19.395  0.00  0.00    +0.000 C 
ATOM      6  C   UNL     1      -1.196  14.723  19.355  0.00  0.00    +0.000 C 
ATOM      7  C   UNL     1      -1.031  16.119  19.959  0.00  0.00    +0.000 C 
ATOM      8  C   UNL     1       0.106  16.930  19.308  0.00  0.00    +0.000 C 
ATOM      9  C   UNL     1      -0.320  17.375  17.895  0.00  0.00    +0.000 C 
ATOM     10  C   UNL     1       0.767  18.176  17.185  0.00  0.00    +0.000 C 
ATOM     11  C   UNL     1       2.089  17.423  17.142  0.00  0.00    +0.000 C 
ATOM     12  C   UNL     1       2.528  17.014  18.541  0.00  0.00    +0.000 C 
ATOM     13  C   UNL     1       1.472  16.163  19.303  0.00  0.00    +0.000 C 
ATOM     14  C   UNL     1       2.002  16.038  20.759  0.00  0.00    +0.000 C 
ATOM     15  C   UNL     1       1.259  14.747  18.649  0.00  0.00    +0.000 C 
ATOM     16  C   UNL     1       2.578  13.945  18.434  0.00  0.00    +0.000 C 
ATOM     17  C   UNL     1       2.377  12.461  18.081  0.00  0.00    +0.000 C 
ATOM     18  C   UNL     1       1.380  11.794  19.047  0.00  0.00    +0.000 C 
ATOM     19  C   UNL     1       1.937  11.887  20.480  0.00  0.00    +0.000 C 
ENDROOT
BRANCH   1  21
ATOM     20  C   UNL     1       1.347   8.304  20.291  0.00  0.00    +0.000 C 
ATOM     21  C   UNL     1       1.856   9.136  19.094  0.00  0.00    +0.000 C 
BRANCH  21  22
ATOM     22  C   UNL     1       2.032   8.114  17.941  0.00  0.00    +0.000 C 
BRANCH  22  23
ATOM     23  C   UNL     1       3.399   7.435  17.858  0.00  0.00    +0.000 C 
BRANCH  23  24
ATOM     24  C   UNL     1       3.318   5.923  18.094  0.00  0.00    +0.000 C 
BRANCH  24  25
ATOM     25  C   UNL     1       4.013   5.500  19.391  0.00  0.00    +0.000 C 
BRANCH  25  26
ATOM     26  C   UNL     1       5.374   4.894  19.156  0.00  0.00    +0.000 C 
ATOM     27  O   UNL     1       6.410   5.246  19.696  0.00  0.00    +0.000 OA
BRANCH  26  28
ATOM     28  O   UNL     1       5.326   3.881  18.259  0.00  0.00    +0.000 OA
ATOM     29  H   UNL     1       5.898   3.125  18.488  0.00  0.00    +0.000 HD
ENDBRANCH  26  28
ENDBRANCH  25  26
ENDBRANCH  24  25
ENDBRANCH  23  24
ENDBRANCH  22  23
ENDBRANCH  21  22
ENDBRANCH   1  21
BRANCH  10  30
ATOM     30  O   UNL     1       0.346  18.473  15.858  0.00  0.00    +0.000 OA
ATOM     31  H   UNL     1      -0.620  18.371  15.822  0.00  0.00    +0.000 HD
ENDBRANCH  10  30
TORSDOF 8
ENDMDL
MODEL 2
REMARK VINA RESULT:      -6.6      1.624      9.334
REMARK  Name = 
REMARK  11 active torsions:
REMARK  status: ('A' for Active; 'I' for Inactive)
REMARK    1  A    between atoms: C_1  and  C_2
REMARK    2  A    between atoms: C_2  and  C_3
REMARK    3  A    between atoms: C_2  and  C_10
REMARK    4  A    between atoms: C_3  and  C_4
REMARK    5  A    between atoms: C_4  and  C_5
REMARK    6  A    between atoms: C_5  and  C_6
REMARK    7  A    between atoms: C_6  and  C_7
REMARK    8  A    between atoms: C_7  and  O_9
REMARK    9  A    between atoms: C_19  and  O_20
REMARK   10  A    between atoms: C_23  and  C_24
REMARK   11  A    between atoms: C_28  and  C_29
REMARK                            x       y       z     vdW  Elec       q    Type
REMARK                         _______ _______ _______ _____ _____    ______ ____
ROOT
ATOM      1  C   UNL     1       0.735  11.056  19.510  0.00  0.00    +0.000 C 
ATOM      2  C   UNL     1       0.183  10.725  20.920  0.00  0.00    +0.000 C 
ATOM      3  C   UNL     1       0.383   9.226  21.142  0.00  0.00    +0.000 C 
ATOM      4  C   UNL     1       1.420   8.835  20.102  0.00  0.00    +0.000 C 
ATOM      5  C   UNL     1       1.535   7.359  19.732  0.00  0.00    +0.000 C 
ATOM      6  C   UNL     1       1.762   6.443  20.938  0.00  0.00    +0.000 C 
ATOM      7  C   UNL     1       1.833   4.982  20.492  0.00  0.00    +0.000 C 
ATOM      8  C   UNL     1       2.878   4.736  19.387  0.00  0.00    +0.000 C 
ATOM      9  C   UNL     1       4.295   4.829  19.986  0.00  0.00    +0.000 C 
ATOM     10  C   UNL     1       5.384   4.607  18.941  0.00  0.00    +0.000 C 
ATOM     11  C   UNL     1       5.233   5.550  17.756  0.00  0.00    +0.000 C 
ATOM     12  C   UNL     1       3.845   5.434  17.142  0.00  0.00    +0.000 C 
ATOM     13  C   UNL     1       2.691   5.685  18.154  0.00  0.00    +0.000 C 
ATOM     14  C   UNL     1       1.382   5.309  17.403  0.00  0.00    +0.000 C 
ATOM     15  C   UNL     1       2.652   7.175  18.658  0.00  0.00    +0.000 C 
ATOM     16  C   UNL     1       2.634   8.232  17.512  0.00  0.00    +0.000 C 
ATOM     17  C   UNL     1       2.297   9.664  17.963  0.00  0.00    +0.000 C 
ATOM     18  C   UNL     1       1.044   9.679  18.859  0.00  0.00    +0.000 C 
ATOM     19  C   UNL     1      -0.148   9.122  18.058  0.00  0.00    +0.000 C 
ENDROOT
BRANCH   1  21
ATOM     20  C   UNL     1      -1.424  12.571  19.367  0.00  0.00    +0.000 C 
ATOM     21  C   UNL     1      -0.087  12.129  18.734  0.00  0.00    +0.000 C 
BRANCH  21  22
ATOM     22  C   UNL     1       0.720  13.438  18.546  0.00  0.00    +0.000 C 
BRANCH  22  23
ATOM     23  C   UNL     1       0.216  14.649  19.330  0.00  0.00    +0.000 C 
BRANCH  23  24
ATOM     24  C   UNL     1       0.824  15.965  18.833  0.00  0.00    +0.000 C 
BRANCH  24  25
ATOM     25  C   UNL     1       2.354  15.964  18.912  0.00  0.00    +0.000 C 
BRANCH  25  26
ATOM     26  C   UNL     1       3.008  16.344  17.607  0.00  0.00    +0.000 C 
ATOM     27  O   UNL     1       3.024  17.463  17.120  0.00  0.00    +0.000 OA
BRANCH  26  28
ATOM     28  O   UNL     1       3.603  15.281  17.014  0.00  0.00    +0.000 OA
ATOM     29  H   UNL     1       3.009  14.771  16.434  0.00  0.00    +0.000 HD
ENDBRANCH  26  28
ENDBRANCH  25  26
ENDBRANCH  24  25
ENDBRANCH  23  24
ENDBRANCH  22  23
ENDBRANCH  21  22
ENDBRANCH   1  21
BRANCH  10  30
ATOM     30  O   UNL     1       6.661   4.798  19.540  0.00  0.00    +0.000 OA
ATOM     31  H   UNL     1       7.116   3.938  19.553  0.00  0.00    +0.000 HD
ENDBRANCH  10  30
TORSDOF 8
ENDMDL
MODEL 3
REMARK VINA RESULT:      -6.5      7.476      9.593
REMARK  Name = 
REMARK  11 active torsions:
REMARK  status: ('A' for Active; 'I' for Inactive)
REMARK    1  A    between atoms: C_1  and  C_2
REMARK    2  A    between atoms: C_2  and  C_3
REMARK    3  A    between atoms: C_2  and  C_10
REMARK    4  A    between atoms: C_3  and  C_4
REMARK    5  A    between atoms: C_4  and  C_5
REMARK    6  A    between atoms: C_5  and  C_6
REMARK    7  A    between atoms: C_6  and  C_7
REMARK    8  A    between atoms: C_7  and  O_9
REMARK    9  A    between atoms: C_19  and  O_20
REMARK   10  A    between atoms: C_23  and  C_24
REMARK   11  A    between atoms: C_28  and  C_29
REMARK                            x       y       z     vdW  Elec       q    Type
REMARK                         _______ _______ _______ _____ _____    ______ ____
ROOT
ATOM      1  C   UNL     1      10.400  13.658  19.369  0.00  0.00    +0.000 C 
ATOM      2  C   UNL     1      11.575  14.668  19.433  0.00  0.00    +0.000 C 
ATOM      3  C   UNL     1      11.343  15.550  20.660  0.00  0.00    +0.000 C 
ATOM      4  C   UNL     1      10.348  14.763  21.496  0.00  0.00    +0.000 C 
ATOM      5  C   UNL     1       9.555  15.520  22.558  0.00  0.00    +0.000 C 
ATOM      6  C   UNL     1      10.438  16.292  23.544  0.00  0.00    +0.000 C 
ATOM      7  C   UNL     1       9.573  17.048  24.553  0.00  0.00    +0.000 C 
ATOM      8  C   UNL     1       8.561  16.144  25.283  0.00  0.00    +0.000 C 
ATOM      9  C   UNL     1       9.305  15.248  26.293  0.00  0.00    +0.000 C 
ATOM     10  C   UNL     1       8.362  14.314  27.046  0.00  0.00    +0.000 C 
ATOM     11  C   UNL     1       7.516  13.477  26.097  0.00  0.00    +0.000 C 
ATOM     12  C   UNL     1       6.755  14.364  25.121  0.00  0.00    +0.000 C 
ATOM     13  C   UNL     1       7.668  15.315  24.298  0.00  0.00    +0.000 C 
ATOM     14  C   UNL     1       6.706  16.272  23.540  0.00  0.00    +0.000 C 
ATOM     15  C   UNL     1       8.600  14.534  23.299  0.00  0.00    +0.000 C 
ATOM     16  C   UNL     1       7.840  13.541  22.369  0.00  0.00    +0.000 C 
ATOM     17  C   UNL     1       8.672  12.993  21.196  0.00  0.00    +0.000 C 
ATOM     18  C   UNL     1       9.393  14.133  20.452  0.00  0.00    +0.000 C 
ATOM     19  C   UNL     1       8.339  15.108  19.894  0.00  0.00    +0.000 C 
ENDROOT
BRANCH   1  21
ATOM     20  C   UNL     1      10.996  13.222  16.833  0.00  0.00    +0.000 C 
ATOM     21  C   UNL     1       9.911  13.333  17.924  0.00  0.00    +0.000 C 
BRANCH  21  22
ATOM     22  C   UNL     1       9.148  11.985  17.872  0.00  0.00    +0.000 C 
BRANCH  22  23
ATOM     23  C   UNL     1       9.887  10.779  18.452  0.00  0.00    +0.000 C 
BRANCH  23  24
ATOM     24  C   UNL     1       8.932   9.701  18.972  0.00  0.00    +0.000 C 
BRANCH  24  25
ATOM     25  C   UNL     1       8.032   9.139  17.868  0.00  0.00    +0.000 C 
BRANCH  25  26
ATOM     26  C   UNL     1       7.981   7.632  17.863  0.00  0.00    +0.000 C 
ATOM     27  O   UNL     1       8.189   6.911  18.826  0.00  0.00    +0.000 OA
BRANCH  26  28
ATOM     28  O   UNL     1       7.664   7.143  16.641  0.00  0.00    +0.000 OA
ATOM     29  H   UNL     1       6.968   6.460  16.659  0.00  0.00    +0.000 HD
ENDBRANCH  26  28
ENDBRANCH  25  26
ENDBRANCH  24  25
ENDBRANCH  23  24
ENDBRANCH  22  23
ENDBRANCH  21  22
ENDBRANCH   1  21
BRANCH  10  30
ATOM     30  O   UNL     1       9.121  13.454  27.889  0.00  0.00    +0.000 OA
ATOM     31  H   UNL     1       8.582  12.665  28.073  0.00  0.00    +0.000 HD
ENDBRANCH  10  30
TORSDOF 8
ENDMDL
MODEL 4
REMARK VINA RESULT:      -6.5      3.426      4.908
REMARK  Name = 
REMARK  11 active torsions:
REMARK  status: ('A' for Active; 'I' for Inactive)
REMARK    1  A    between atoms: C_1  and  C_2
REMARK    2  A    between atoms: C_2  and  C_3
REMARK    3  A    between atoms: C_2  and  C_10
REMARK    4  A    between atoms: C_3  and  C_4
REMARK    5  A    between atoms: C_4  and  C_5
REMARK    6  A    between atoms: C_5  and  C_6
REMARK    7  A    between atoms: C_6  and  C_7
REMARK    8  A    between atoms: C_7  and  O_9
REMARK    9  A    between atoms: C_19  and  O_20
REMARK   10  A    between atoms: C_23  and  C_24
REMARK   11  A    between atoms: C_28  and  C_29
REMARK                            x       y       z     vdW  Elec       q    Type
REMARK                         _______ _______ _______ _____ _____    ______ ____
ROOT
ATOM      1  C   UNL     1       0.643   9.122  19.234  0.00  0.00    +0.000 C 
ATOM      2  C   UNL     1       1.382   8.849  20.570  0.00  0.00    +0.000 C 
ATOM      3  C   UNL     1       0.880   9.880  21.580  0.00  0.00    +0.000 C 
ATOM      4  C   UNL     1      -0.413  10.395  20.971  0.00  0.00    +0.000 C 
ATOM      5  C   UNL     1      -0.952  11.733  21.468  0.00  0.00    +0.000 C 
ATOM      6  C   UNL     1      -1.135  11.789  22.988  0.00  0.00    +0.000 C 
ATOM      7  C   UNL     1      -1.644  13.167  23.412  0.00  0.00    +0.000 C 
ATOM      8  C   UNL     1      -2.924  13.595  22.669  0.00  0.00    +0.000 C 
ATOM      9  C   UNL     1      -4.122  12.774  23.187  0.00  0.00    +0.000 C 
ATOM     10  C   UNL     1      -5.425  13.139  22.484  0.00  0.00    +0.000 C 
ATOM     11  C   UNL     1      -5.303  13.026  20.970  0.00  0.00    +0.000 C 
ATOM     12  C   UNL     1      -4.142  13.864  20.454  0.00  0.00    +0.000 C 
ATOM     13  C   UNL     1      -2.777  13.513  21.111  0.00  0.00    +0.000 C 
ATOM     14  C   UNL     1      -1.782  14.604  20.625  0.00  0.00    +0.000 C 
ATOM     15  C   UNL     1      -2.279  12.072  20.721  0.00  0.00    +0.000 C 
ATOM     16  C   UNL     1      -2.248  11.806  19.186  0.00  0.00    +0.000 C 
ATOM     17  C   UNL     1      -1.492  10.533  18.768  0.00  0.00    +0.000 C 
ATOM     18  C   UNL     1      -0.114  10.461  19.452  0.00  0.00    +0.000 C 
ATOM     19  C   UNL     1       0.717  11.687  19.028  0.00  0.00    +0.000 C 
ENDROOT
BRANCH   1  21
ATOM     20  C   UNL     1       2.739   9.838  17.794  0.00  0.00    +0.000 C 
ATOM     21  C   UNL     1       1.519   8.908  17.962  0.00  0.00    +0.000 C 
BRANCH  21  22
ATOM     22  C   UNL     1       2.098   7.471  17.904  0.00  0.00    +0.000 C 
BRANCH  22  23
ATOM     23  C   UNL     1       3.609   7.371  17.699  0.00  0.00    +0.000 C 
BRANCH  23  24
ATOM     24  C   UNL     1       4.106   5.922  17.702  0.00  0.00    +0.000 C 
BRANCH  24  25
ATOM     25  C   UNL     1       4.597   5.479  19.083  0.00  0.00    +0.000 C 
BRANCH  25  26
ATOM     26  C   UNL     1       5.273   4.131  19.060  0.00  0.00    +0.000 C 
ATOM     27  O   UNL     1       4.873   3.127  19.627  0.00  0.00    +0.000 OA
BRANCH  26  28
ATOM     28  O   UNL     1       6.404   4.147  18.316  0.00  0.00    +0.000 OA
ATOM     29  H   UNL     1       6.601   5.015  17.917  0.00  0.00    +0.000 HD
ENDBRANCH  26  28
ENDBRANCH  25  26
ENDBRANCH  24  25
ENDBRANCH  23  24
ENDBRANCH  22  23
ENDBRANCH  21  22
ENDBRANCH   1  21
BRANCH  10  30
ATOM     30  O   UNL     1      -6.466  12.282  22.941  0.00  0.00    +0.000 OA
ATOM     31  H   UNL     1      -7.315  12.687  22.693  0.00  0.00    +0.000 HD
ENDBRANCH  10  30
TORSDOF 8
ENDMDL
MODEL 5
REMARK VINA RESULT:      -6.4      3.670      5.185
REMARK  Name = 
REMARK  11 active torsions:
REMARK  status: ('A' for Active; 'I' for Inactive)
REMARK    1  A    between atoms: C_1  and  C_2
REMARK    2  A    between atoms: C_2  and  C_3
REMARK    3  A    between atoms: C_2  and  C_10
REMARK    4  A    between atoms: C_3  and  C_4
REMARK    5  A    between atoms: C_4  and  C_5
REMARK    6  A    between atoms: C_5  and  C_6
REMARK    7  A    between atoms: C_6  and  C_7
REMARK    8  A    between atoms: C_7  and  O_9
REMARK    9  A    between atoms: C_19  and  O_20
REMARK   10  A    between atoms: C_23  and  C_24
REMARK   11  A    between atoms: C_28  and  C_29
REMARK                            x       y       z     vdW  Elec       q    Type
REMARK                         _______ _______ _______ _____ _____    ______ ____
ROOT
ATOM      1  C   UNL     1       0.421   9.494  19.221  0.00  0.00    +0.000 C 
ATOM      2  C   UNL     1       1.194   9.221  20.538  0.00  0.00    +0.000 C 
ATOM      3  C   UNL     1       0.658  10.198  21.584  0.00  0.00    +0.000 C 
ATOM      4  C   UNL     1      -0.668  10.664  21.008  0.00  0.00    +0.000 C 
ATOM      5  C   UNL     1      -1.265  11.960  21.552  0.00  0.00    +0.000 C 
ATOM      6  C   UNL     1      -1.426  11.965  23.075  0.00  0.00    +0.000 C 
ATOM      7  C   UNL     1      -1.996  13.304  23.545  0.00  0.00    +0.000 C 
ATOM      8  C   UNL     1      -3.307  13.688  22.833  0.00  0.00    +0.000 C 
ATOM      9  C   UNL     1      -4.454  12.795  23.345  0.00  0.00    +0.000 C 
ATOM     10  C   UNL     1      -5.785  13.114  22.671  0.00  0.00    +0.000 C 
ATOM     11  C   UNL     1      -5.681  13.049  21.154  0.00  0.00    +0.000 C 
ATOM     12  C   UNL     1      -4.572  13.958  20.645  0.00  0.00    +0.000 C 
ATOM     13  C   UNL     1      -3.180  13.657  21.272  0.00  0.00    +0.000 C 
ATOM     14  C   UNL     1      -2.248  14.809  20.803  0.00  0.00    +0.000 C 
ATOM     15  C   UNL     1      -2.618  12.253  20.834  0.00  0.00    +0.000 C 
ATOM     16  C   UNL     1      -2.599  12.032  19.291  0.00  0.00    +0.000 C 
ATOM     17  C   UNL     1      -1.788  10.810  18.827  0.00  0.00    +0.000 C 
ATOM     18  C   UNL     1      -0.397  10.788  19.488  0.00  0.00    +0.000 C 
ATOM     19  C   UNL     1       0.366  12.064  19.087  0.00  0.00    +0.000 C 
ENDROOT
BRANCH   1  21
ATOM     20  C   UNL     1       2.524  10.275  17.826  0.00  0.00    +0.000 C 
ATOM     21  C   UNL     1       1.286   9.359  17.930  0.00  0.00    +0.000 C 
BRANCH  21  22
ATOM     22  C   UNL     1       1.835   7.920  17.761  0.00  0.00    +0.000 C 
BRANCH  22  23
ATOM     23  C   UNL     1       3.338   7.752  17.978  0.00  0.00    +0.000 C 
BRANCH  23  24
ATOM     24  C   UNL     1       3.876   6.450  17.375  0.00  0.00    +0.000 C 
BRANCH  24  25
ATOM     25  C   UNL     1       5.369   6.255  17.651  0.00  0.00    +0.000 C 
BRANCH  25  26
ATOM     26  C   UNL     1       6.204   6.265  16.394  0.00  0.00    +0.000 C 
ATOM     27  O   UNL     1       7.411   6.098  16.343  0.00  0.00    +0.000 OA
BRANCH  26  28
ATOM     28  O   UNL     1       5.449   6.480  15.290  0.00  0.00    +0.000 OA
ATOM     29  H   UNL     1       4.815   5.763  15.102  0.00  0.00    +0.000 HD
ENDBRANCH  26  28
ENDBRANCH  25  26
ENDBRANCH  24  25
ENDBRANCH  23  24
ENDBRANCH  22  23
ENDBRANCH  21  22
ENDBRANCH   1  21
BRANCH  10  30
ATOM     30  O   UNL     1      -6.775  12.194  23.119  0.00  0.00    +0.000 OA
ATOM     31  H   UNL     1      -6.907  12.339  24.072  0.00  0.00    +0.000 HD
ENDBRANCH  10  30
TORSDOF 8
ENDMDL
MODEL 6
REMARK VINA RESULT:      -6.4      3.408      4.919
REMARK  Name = 
REMARK  11 active torsions:
REMARK  status: ('A' for Active; 'I' for Inactive)
REMARK    1  A    between atoms: C_1  and  C_2
REMARK    2  A    between atoms: C_2  and  C_3
REMARK    3  A    between atoms: C_2  and  C_10
REMARK    4  A    between atoms: C_3  and  C_4
REMARK    5  A    between atoms: C_4  and  C_5
REMARK    6  A    between atoms: C_5  and  C_6
REMARK    7  A    between atoms: C_6  and  C_7
REMARK    8  A    between atoms: C_7  and  O_9
REMARK    9  A    between atoms: C_19  and  O_20
REMARK   10  A    between atoms: C_23  and  C_24
REMARK   11  A    between atoms: C_28  and  C_29
REMARK                            x       y       z     vdW  Elec       q    Type
REMARK                         _______ _______ _______ _____ _____    ______ ____
ROOT
ATOM      1  C   UNL     1       0.803   8.727  19.190  0.00  0.00    +0.000 C 
ATOM      2  C   UNL     1       1.502   8.431  20.542  0.00  0.00    +0.000 C 
ATOM      3  C   UNL     1       1.023   9.489  21.536  0.00  0.00    +0.000 C 
ATOM      4  C   UNL     1      -0.234  10.053  20.897  0.00  0.00    +0.000 C 
ATOM      5  C   UNL     1      -0.727  11.416  21.377  0.00  0.00    +0.000 C 
ATOM      6  C   UNL     1      -0.939  11.489  22.892  0.00  0.00    +0.000 C 
ATOM      7  C   UNL     1      -1.398  12.890  23.298  0.00  0.00    +0.000 C 
ATOM      8  C   UNL     1      -2.644  13.366  22.526  0.00  0.00    +0.000 C 
ATOM      9  C   UNL     1      -3.885  12.599  23.024  0.00  0.00    +0.000 C 
ATOM     10  C   UNL     1      -5.157  13.013  22.292  0.00  0.00    +0.000 C 
ATOM     11  C   UNL     1      -5.009  12.886  20.782  0.00  0.00    +0.000 C 
ATOM     12  C   UNL     1      -3.804  13.672  20.285  0.00  0.00    +0.000 C 
ATOM     13  C   UNL     1      -2.469  13.268  20.972  0.00  0.00    +0.000 C 
ATOM     14  C   UNL     1      -1.419  14.314  20.501  0.00  0.00    +0.000 C 
ATOM     15  C   UNL     1      -2.023  11.805  20.601  0.00  0.00    +0.000 C 
ATOM     16  C   UNL     1      -1.972  11.529  19.067  0.00  0.00    +0.000 C 
ATOM     17  C   UNL     1      -1.262  10.222  18.673  0.00  0.00    +0.000 C 
ATOM     18  C   UNL     1       0.098  10.098  19.385  0.00  0.00    +0.000 C 
ATOM     19  C   UNL     1       0.988  11.285  18.971  0.00  0.00    +0.000 C 
ENDROOT
BRANCH   1  21
ATOM     20  C   UNL     1       2.736   9.554  17.591  0.00  0.00    +0.000 C 
ATOM     21  C   UNL     1       1.694   8.469  17.937  0.00  0.00    +0.000 C 
BRANCH  21  22
ATOM     22  C   UNL     1       2.511   7.159  18.080  0.00  0.00    +0.000 C 
BRANCH  22  23
ATOM     23  C   UNL     1       4.007   7.273  17.786  0.00  0.00    +0.000 C 
BRANCH  23  24
ATOM     24  C   UNL     1       4.623   5.939  17.353  0.00  0.00    +0.000 C 
BRANCH  24  25
ATOM     25  C   UNL     1       6.133   6.043  17.124  0.00  0.00    +0.000 C 
BRANCH  25  26
ATOM     26  C   UNL     1       6.873   4.789  17.517  0.00  0.00    +0.000 C 
ATOM     27  O   UNL     1       7.911   4.389  17.015  0.00  0.00    +0.000 OA
BRANCH  26  28
ATOM     28  O   UNL     1       6.249   4.130  18.523  0.00  0.00    +0.000 OA
ATOM     29  H   UNL     1       6.389   4.531  19.401  0.00  0.00    +0.000 HD
ENDBRANCH  26  28
ENDBRANCH  25  26
ENDBRANCH  24  25
ENDBRANCH  23  24
ENDBRANCH  22  23
ENDBRANCH  21  22
ENDBRANCH   1  21
BRANCH  10  30
ATOM     30  O   UNL     1      -6.242  12.203  22.732  0.00  0.00    +0.000 OA
ATOM     31  H   UNL     1      -5.944  11.704  23.512  0.00  0.00    +0.000 HD
ENDBRANCH  10  30
TORSDOF 8
ENDMDL
MODEL 7
REMARK VINA RESULT:      -6.4      3.653      5.230
REMARK  Name = 
REMARK  11 active torsions:
REMARK  status: ('A' for Active; 'I' for Inactive)
REMARK    1  A    between atoms: C_1  and  C_2
REMARK    2  A    between atoms: C_2  and  C_3
REMARK    3  A    between atoms: C_2  and  C_10
REMARK    4  A    between atoms: C_3  and  C_4
REMARK    5  A    between atoms: C_4  and  C_5
REMARK    6  A    between atoms: C_5  and  C_6
REMARK    7  A    between atoms: C_6  and  C_7
REMARK    8  A    between atoms: C_7  and  O_9
REMARK    9  A    between atoms: C_19  and  O_20
REMARK   10  A    between atoms: C_23  and  C_24
REMARK   11  A    between atoms: C_28  and  C_29
REMARK                            x       y       z     vdW  Elec       q    Type
REMARK                         _______ _______ _______ _____ _____    ______ ____
ROOT
ATOM      1  C   UNL     1       0.348   9.711  19.273  0.00  0.00    +0.000 C 
ATOM      2  C   UNL     1       1.164   9.498  20.575  0.00  0.00    +0.000 C 
ATOM      3  C   UNL     1       0.617  10.479  21.613  0.00  0.00    +0.000 C 
ATOM      4  C   UNL     1      -0.740  10.881  21.061  0.00  0.00    +0.000 C 
ATOM      5  C   UNL     1      -1.372  12.166  21.590  0.00  0.00    +0.000 C 
ATOM      6  C   UNL     1      -1.495  12.201  23.116  0.00  0.00    +0.000 C 
ATOM      7  C   UNL     1      -2.103  13.528  23.571  0.00  0.00    +0.000 C 
ATOM      8  C   UNL     1      -3.446  13.845  22.885  0.00  0.00    +0.000 C 
ATOM      9  C   UNL     1      -4.545  12.921  23.447  0.00  0.00    +0.000 C 
ATOM     10  C   UNL     1      -5.903  13.174  22.801  0.00  0.00    +0.000 C 
ATOM     11  C   UNL     1      -5.836  13.077  21.283  0.00  0.00    +0.000 C 
ATOM     12  C   UNL     1      -4.775  14.015  20.725  0.00  0.00    +0.000 C 
ATOM     13  C   UNL     1      -3.358  13.782  21.322  0.00  0.00    +0.000 C 
ATOM     14  C   UNL     1      -2.483  14.957  20.803  0.00  0.00    +0.000 C 
ATOM     15  C   UNL     1      -2.753  12.391  20.902  0.00  0.00    +0.000 C 
ATOM     16  C   UNL     1      -2.764  12.134  19.364  0.00  0.00    +0.000 C 
ATOM     17  C   UNL     1      -1.919  10.932  18.907  0.00  0.00    +0.000 C 
ATOM     18  C   UNL     1      -0.512  10.978  19.532  0.00  0.00    +0.000 C 
ATOM     19  C   UNL     1       0.191  12.273  19.082  0.00  0.00    +0.000 C 
ENDROOT
BRANCH   1  21
ATOM     20  C   UNL     1       2.486  10.404  17.885  0.00  0.00    +0.000 C 
ATOM     21  C   UNL     1       1.184   9.579  17.964  0.00  0.00    +0.000 C 
BRANCH  21  22
ATOM     22  C   UNL     1       1.623   8.113  17.714  0.00  0.00    +0.000 C 
BRANCH  22  23
ATOM     23  C   UNL     1       3.125   7.845  17.795  0.00  0.00    +0.000 C 
BRANCH  23  24
ATOM     24  C   UNL     1       3.447   6.358  17.981  0.00  0.00    +0.000 C 
BRANCH  24  25
ATOM     25  C   UNL     1       2.185   5.491  18.011  0.00  0.00    +0.000 C 
BRANCH  25  26
ATOM     26  C   UNL     1       2.487   4.024  18.193  0.00  0.00    +0.000 C 
ATOM     27  O   UNL     1       3.056   3.530  19.152  0.00  0.00    +0.000 OA
BRANCH  26  28
ATOM     28  O   UNL     1       2.041   3.285  17.149  0.00  0.00    +0.000 OA
ATOM     29  H   UNL     1       2.752   2.861  16.634  0.00  0.00    +0.000 HD
ENDBRANCH  26  28
ENDBRANCH  25  26
ENDBRANCH  24  25
ENDBRANCH  23  24
ENDBRANCH  22  23
ENDBRANCH  21  22
ENDBRANCH   1  21
BRANCH  10  30
ATOM     30  O   UNL     1      -6.846  12.228  23.295  0.00  0.00    +0.000 OA
ATOM     31  H   UNL     1      -7.611  12.229  22.695  0.00  0.00    +0.000 HD
ENDBRANCH  10  30
TORSDOF 8
ENDMDL
MODEL 8
REMARK VINA RESULT:      -6.3      2.450      8.977
REMARK  Name = 
REMARK  11 active torsions:
REMARK  status: ('A' for Active; 'I' for Inactive)
REMARK    1  A    between atoms: C_1  and  C_2
REMARK    2  A    between atoms: C_2  and  C_3
REMARK    3  A    between atoms: C_2  and  C_10
REMARK    4  A    between atoms: C_3  and  C_4
REMARK    5  A    between atoms: C_4  and  C_5
REMARK    6  A    between atoms: C_5  and  C_6
REMARK    7  A    between atoms: C_6  and  C_7
REMARK    8  A    between atoms: C_7  and  O_9
REMARK    9  A    between atoms: C_19  and  O_20
REMARK   10  A    between atoms: C_23  and  C_24
REMARK   11  A    between atoms: C_28  and  C_29
REMARK                            x       y       z     vdW  Elec       q    Type
REMARK                         _______ _______ _______ _____ _____    ______ ____
ROOT
ATOM      1  C   UNL     1       0.605  11.070  19.427  0.00  0.00    +0.000 C 
ATOM      2  C   UNL     1       0.078  10.748  20.848  0.00  0.00    +0.000 C 
ATOM      3  C   UNL     1       0.338   9.262  21.099  0.00  0.00    +0.000 C 
ATOM      4  C   UNL     1       1.380   8.890  20.058  0.00  0.00    +0.000 C 
ATOM      5  C   UNL     1       1.549   7.412  19.716  0.00  0.00    +0.000 C 
ATOM      6  C   UNL     1       1.822   6.531  20.939  0.00  0.00    +0.000 C 
ATOM      7  C   UNL     1       1.946   5.066  20.521  0.00  0.00    +0.000 C 
ATOM      8  C   UNL     1       2.991   4.837  19.412  0.00  0.00    +0.000 C 
ATOM      9  C   UNL     1       4.408   4.997  19.997  0.00  0.00    +0.000 C 
ATOM     10  C   UNL     1       5.496   4.796  18.947  0.00  0.00    +0.000 C 
ATOM     11  C   UNL     1       5.299   5.708  17.744  0.00  0.00    +0.000 C 
ATOM     12  C   UNL     1       3.912   5.526  17.145  0.00  0.00    +0.000 C 
ATOM     13  C   UNL     1       2.757   5.753  18.162  0.00  0.00    +0.000 C 
ATOM     14  C   UNL     1       1.458   5.311  17.431  0.00  0.00    +0.000 C 
ATOM     15  C   UNL     1       2.664   7.250  18.637  0.00  0.00    +0.000 C 
ATOM     16  C   UNL     1       2.596   8.282  17.470  0.00  0.00    +0.000 C 
ATOM     17  C   UNL     1       2.207   9.708  17.894  0.00  0.00    +0.000 C 
ATOM     18  C   UNL     1       0.962   9.694  18.801  0.00  0.00    +0.000 C 
ATOM     19  C   UNL     1      -0.214   9.075  18.022  0.00  0.00    +0.000 C 
ENDROOT
BRANCH   1  21
ATOM     20  C   UNL     1      -1.538  12.611  19.339  0.00  0.00    +0.000 C 
ATOM     21  C   UNL     1      -0.265  12.095  18.636  0.00  0.00    +0.000 C 
BRANCH  21  22
ATOM     22  C   UNL     1       0.542  13.369  18.278  0.00  0.00    +0.000 C 
BRANCH  22  23
ATOM     23  C   UNL     1      -0.045  14.689  18.778  0.00  0.00    +0.000 C 
BRANCH  23  24
ATOM     24  C   UNL     1       0.819  15.342  19.862  0.00  0.00    +0.000 C 
BRANCH  24  25
ATOM     25  C   UNL     1       2.239  14.768  19.897  0.00  0.00    +0.000 C 
BRANCH  25  26
ATOM     26  C   UNL     1       2.564  14.086  21.202  0.00  0.00    +0.000 C 
ATOM     27  O   UNL     1       3.678  13.756  21.573  0.00  0.00    +0.000 OA
BRANCH  26  28
ATOM     28  O   UNL     1       1.454  13.875  21.950  0.00  0.00    +0.000 OA
ATOM     29  H   UNL     1       0.650  13.711  21.423  0.00  0.00    +0.000 HD
ENDBRANCH  26  28
ENDBRANCH  25  26
ENDBRANCH  24  25
ENDBRANCH  23  24
ENDBRANCH  22  23
ENDBRANCH  21  22
ENDBRANCH   1  21
BRANCH  10  30
ATOM     30  O   UNL     1       6.770   5.049  19.531  0.00  0.00    +0.000 OA
ATOM     31  H   UNL     1       7.410   4.437  19.126  0.00  0.00    +0.000 HD
ENDBRANCH  10  30
TORSDOF 8
ENDMDL
MODEL 9
REMARK VINA RESULT:      -6.3      1.163      1.326
REMARK  Name = 
REMARK  11 active torsions:
REMARK  status: ('A' for Active; 'I' for Inactive)
REMARK    1  A    between atoms: C_1  and  C_2
REMARK    2  A    between atoms: C_2  and  C_3
REMARK    3  A    between atoms: C_2  and  C_10
REMARK    4  A    between atoms: C_3  and  C_4
REMARK    5  A    between atoms: C_4  and  C_5
REMARK    6  A    between atoms: C_5  and  C_6
REMARK    7  A    between atoms: C_6  and  C_7
REMARK    8  A    between atoms: C_7  and  O_9
REMARK    9  A    between atoms: C_19  and  O_20
REMARK   10  A    between atoms: C_23  and  C_24
REMARK   11  A    between atoms: C_28  and  C_29
REMARK                            x       y       z     vdW  Elec       q    Type
REMARK                         _______ _______ _______ _____ _____    ______ ____
ROOT
ATOM      1  C   UNL     1       0.925  10.418  18.608  0.00  0.00    +0.000 C 
ATOM      2  C   UNL     1      -0.570  10.294  19.001  0.00  0.00    +0.000 C 
ATOM      3  C   UNL     1      -1.046  11.690  19.402  0.00  0.00    +0.000 C 
ATOM      4  C   UNL     1      -0.001  12.620  18.811  0.00  0.00    +0.000 C 
ATOM      5  C   UNL     1       0.097  14.034  19.379  0.00  0.00    +0.000 C 
ATOM      6  C   UNL     1      -1.231  14.796  19.349  0.00  0.00    +0.000 C 
ATOM      7  C   UNL     1      -1.060  16.186  19.963  0.00  0.00    +0.000 C 
ATOM      8  C   UNL     1       0.077  16.999  19.316  0.00  0.00    +0.000 C 
ATOM      9  C   UNL     1      -0.352  17.457  17.907  0.00  0.00    +0.000 C 
ATOM     10  C   UNL     1       0.735  18.260  17.200  0.00  0.00    +0.000 C 
ATOM     11  C   UNL     1       2.055  17.503  17.147  0.00  0.00    +0.000 C 
ATOM     12  C   UNL     1       2.497  17.082  18.541  0.00  0.00    +0.000 C 
ATOM     13  C   UNL     1       1.441  16.228  19.300  0.00  0.00    +0.000 C 
ATOM     14  C   UNL     1       1.976  16.090  20.753  0.00  0.00    +0.000 C 
ATOM     15  C   UNL     1       1.222  14.818  18.636  0.00  0.00    +0.000 C 
ATOM     16  C   UNL     1       2.537  14.013  18.409  0.00  0.00    +0.000 C 
ATOM     17  C   UNL     1       2.331  12.533  18.045  0.00  0.00    +0.000 C 
ATOM     18  C   UNL     1       1.335  11.862  19.009  0.00  0.00    +0.000 C 
ATOM     19  C   UNL     1       1.897  11.942  20.441  0.00  0.00    +0.000 C 
ENDROOT
BRANCH   1  21
ATOM     20  C   UNL     1       1.296   8.362  20.225  0.00  0.00    +0.000 C 
ATOM     21  C   UNL     1       1.803   9.201  19.033  0.00  0.00    +0.000 C 
BRANCH  21  22
ATOM     22  C   UNL     1       1.972   8.188  17.872  0.00  0.00    +0.000 C 
BRANCH  22  23
ATOM     23  C   UNL     1       2.389   6.775  18.278  0.00  0.00    +0.000 C 
BRANCH  23  24
ATOM     24  C   UNL     1       3.907   6.575  18.231  0.00  0.00    +0.000 C 
BRANCH  24  25
ATOM     25  C   UNL     1       4.333   5.622  17.110  0.00  0.00    +0.000 C 
BRANCH  25  26
ATOM     26  C   UNL     1       5.402   6.205  16.221  0.00  0.00    +0.000 C 
ATOM     27  O   UNL     1       5.207   6.829  15.191  0.00  0.00    +0.000 OA
BRANCH  26  28
ATOM     28  O   UNL     1       6.645   5.961  16.701  0.00  0.00    +0.000 OA
ATOM     29  H   UNL     1       6.929   5.033  16.604  0.00  0.00    +0.000 HD
ENDBRANCH  26  28
ENDBRANCH  25  26
ENDBRANCH  24  25
ENDBRANCH  23  24
ENDBRANCH  22  23
ENDBRANCH  21  22
ENDBRANCH   1  21
BRANCH  10  30
ATOM     30  O   UNL     1       0.311  18.568  15.877  0.00  0.00    +0.000 OA
ATOM     31  H   UNL     1       0.789  19.365  15.589  0.00  0.00    +0.000 HD
ENDBRANCH  10  30
TORSDOF 8
ENDMDL
