MODEL 1
REMARK VINA RESULT:      -7.3      0.000      0.000
REMARK  Name = 
REMARK  7 active torsions:
REMARK  status: ('A' for Active; 'I' for Inactive)
REMARK    1  A    between atoms: C_1  and  N_2
REMARK    2  A    between atoms: C_6  and  S_7
REMARK    3  A    between atoms: S_7  and  C_8
REMARK    4  A    between atoms: C_8  and  C_9
REMARK    5  A    between atoms: C_9  and  C_11
REMARK    6  A    between atoms: C_12  and  N_13
REMARK    7  A    between atoms: N_14  and  C_15
REMARK                            x       y       z     vdW  Elec       q    Type
REMARK                         _______ _______ _______ _____ _____    ______ ____
ROOT
ATOM      1  C   UNL     1       4.898   4.900  18.505  0.00  0.00    +0.000 A 
ATOM      2  C   UNL     1       4.243   3.741  18.790  0.00  0.00    +0.000 A 
ATOM      3  N   UNL     1       2.883   3.614  18.464  0.00  0.00    +0.000 N 
ATOM      4  C   UNL     1       2.167   4.616  17.812  0.00  0.00    +0.000 A 
ATOM      5  O   UNL     1       1.014   4.510  17.401  0.00  0.00    +0.000 OA
ATOM      6  N   UNL     1       2.829   5.791  17.624  0.00  0.00    +0.000 N 
ATOM      7  C   UNL     1       4.137   6.018  17.906  0.00  0.00    +0.000 A 
ATOM      8  O   UNL     1       4.642   7.107  17.655  0.00  0.00    +0.000 OA
ATOM      9  H   UNL     1       2.313   6.527  17.166  0.00  0.00    +0.000 HD
ENDROOT
BRANCH   2  10
ATOM     10  N   UNL     1       4.895   2.668  19.392  0.00  0.00    +0.000 N 
ATOM     11  H   UNL     1       5.109   1.909  18.731  0.00  0.00    +0.000 HD
ATOM     12  H   UNL     1       4.396   2.303  20.199  0.00  0.00    +0.000 HD
ENDBRANCH   2  10
BRANCH   3  13
ATOM     13  C   UNL     1       2.210   2.338  18.674  0.00  0.00    +0.000 C 
ATOM     14  C   UNL     1       1.763   1.827  20.025  0.00  0.00    +0.000 C 
ATOM     15  C   UNL     1       0.741   2.285  19.036  0.00  0.00    +0.000 C 
ENDBRANCH   3  13
BRANCH   1  16
ATOM     16  C   UNL     1       6.378   5.019  18.784  0.00  0.00    +0.000 C 
ATOM     17  O   UNL     1       6.748   5.370  19.911  0.00  0.00    +0.000 OA
BRANCH  16  18
ATOM     18  C   UNL     1       7.372   4.737  17.659  0.00  0.00    +0.000 C 
BRANCH  18  19
ATOM     19  S   UNL     1       7.424   6.095  16.438  0.00  0.00    +0.000 S 
BRANCH  19  25
ATOM     20  C   UNL     1       6.694   2.269  11.326  0.00  0.00    +0.000 C 
ATOM     21  N   UNL     1       5.921   2.731  12.460  0.00  0.00    +0.000 N 
ATOM     22  C   UNL     1       6.454   3.722  13.218  0.00  0.00    +0.000 A 
ATOM     23  N   UNL     1       7.334   4.618  12.819  0.00  0.00    +0.000 NA
ATOM     24  N   UNL     1       7.721   5.473  13.831  0.00  0.00    +0.000 NA
ATOM     25  C   UNL     1       7.116   5.194  14.964  0.00  0.00    +0.000 A 
ATOM     26  S   UNL     1       6.025   3.880  14.881  0.00  0.00    +0.000 S 
ATOM     27  H   UNL     1       5.424   2.001  12.959  0.00  0.00    +0.000 HD
ENDBRANCH  19  25
ENDBRANCH  18  19
ENDBRANCH  16  18
ENDBRANCH   1  16
TORSDOF 6
ENDMDL
MODEL 2
REMARK VINA RESULT:      -7.0      3.280      5.304
REMARK  Name = 
REMARK  7 active torsions:
REMARK  status: ('A' for Active; 'I' for Inactive)
REMARK    1  A    between atoms: C_1  and  N_2
REMARK    2  A    between atoms: C_6  and  S_7
REMARK    3  A    between atoms: S_7  and  C_8
REMARK    4  A    between atoms: C_8  and  C_9
REMARK    5  A    between atoms: C_9  and  C_11
REMARK    6  A    between atoms: C_12  and  N_13
REMARK    7  A    between atoms: N_14  and  C_15
REMARK                            x       y       z     vdW  Elec       q    Type
REMARK                         _______ _______ _______ _____ _____    ______ ____
ROOT
ATOM      1  C   UNL     1       2.634   5.181  19.140  0.00  0.00    +0.000 A 
ATOM      2  C   UNL     1       2.589   6.457  18.666  0.00  0.00    +0.000 A 
ATOM      3  N   UNL     1       2.074   7.480  19.477  0.00  0.00    +0.000 N 
ATOM      4  C   UNL     1       1.640   7.261  20.783  0.00  0.00    +0.000 A 
ATOM      5  O   UNL     1       1.294   8.138  21.571  0.00  0.00    +0.000 OA
ATOM      6  N   UNL     1       1.618   5.962  21.191  0.00  0.00    +0.000 N 
ATOM      7  C   UNL     1       2.086   4.902  20.485  0.00  0.00    +0.000 A 
ATOM      8  O   UNL     1       2.053   3.776  20.969  0.00  0.00    +0.000 OA
ATOM      9  H   UNL     1       1.290   5.793  22.130  0.00  0.00    +0.000 HD
ENDROOT
BRANCH   2  10
ATOM     10  N   UNL     1       3.052   6.775  17.391  0.00  0.00    +0.000 N 
ATOM     11  H   UNL     1       3.477   7.710  17.344  0.00  0.00    +0.000 HD
ATOM     12  H   UNL     1       2.338   6.675  16.674  0.00  0.00    +0.000 HD
ENDBRANCH   2  10
BRANCH   3  13
ATOM     13  C   UNL     1       2.121   8.860  19.010  0.00  0.00    +0.000 C 
ATOM     14  C   UNL     1       1.635   9.313  17.652  0.00  0.00    +0.000 C 
ATOM     15  C   UNL     1       0.855   9.678  18.872  0.00  0.00    +0.000 C 
ENDBRANCH   3  13
BRANCH   1  16
ATOM     16  C   UNL     1       3.254   4.087  18.303  0.00  0.00    +0.000 C 
ATOM     17  O   UNL     1       2.525   3.412  17.564  0.00  0.00    +0.000 OA
BRANCH  16  18
ATOM     18  C   UNL     1       4.754   3.822  18.418  0.00  0.00    +0.000 C 
BRANCH  18  19
ATOM     19  S   UNL     1       5.608   4.025  16.815  0.00  0.00    +0.000 S 
BRANCH  19  25
ATOM     20  C   UNL     1       8.637   9.459  18.427  0.00  0.00    +0.000 C 
ATOM     21  N   UNL     1       8.584   8.075  18.850  0.00  0.00    +0.000 N 
ATOM     22  C   UNL     1       7.903   7.206  18.061  0.00  0.00    +0.000 A 
ATOM     23  N   UNL     1       7.682   7.339  16.769  0.00  0.00    +0.000 NA
ATOM     24  N   UNL     1       6.921   6.311  16.249  0.00  0.00    +0.000 NA
ATOM     25  C   UNL     1       6.594   5.431  17.170  0.00  0.00    +0.000 A 
ATOM     26  S   UNL     1       7.196   5.784  18.732  0.00  0.00    +0.000 S 
ATOM     27  H   UNL     1       8.489   7.943  19.851  0.00  0.00    +0.000 HD
ENDBRANCH  19  25
ENDBRANCH  18  19
ENDBRANCH  16  18
ENDBRANCH   1  16
TORSDOF 6
ENDMDL
MODEL 3
REMARK VINA RESULT:      -6.9      3.165      6.530
REMARK  Name = 
REMARK  7 active torsions:
REMARK  status: ('A' for Active; 'I' for Inactive)
REMARK    1  A    between atoms: C_1  and  N_2
REMARK    2  A    between atoms: C_6  and  S_7
REMARK    3  A    between atoms: S_7  and  C_8
REMARK    4  A    between atoms: C_8  and  C_9
REMARK    5  A    between atoms: C_9  and  C_11
REMARK    6  A    between atoms: C_12  and  N_13
REMARK    7  A    between atoms: N_14  and  C_15
REMARK                            x       y       z     vdW  Elec       q    Type
REMARK                         _______ _______ _______ _____ _____    ______ ____
ROOT
ATOM      1  C   UNL     1       5.185   4.332  18.321  0.00  0.00    +0.000 A 
ATOM      2  C   UNL     1       5.024   4.303  16.969  0.00  0.00    +0.000 A 
ATOM      3  N   UNL     1       5.895   5.041  16.152  0.00  0.00    +0.000 N 
ATOM      4  C   UNL     1       6.963   5.779  16.659  0.00  0.00    +0.000 A 
ATOM      5  O   UNL     1       7.820   6.342  15.982  0.00  0.00    +0.000 OA
ATOM      6  N   UNL     1       7.039   5.855  18.016  0.00  0.00    +0.000 N 
ATOM      7  C   UNL     1       6.246   5.188  18.894  0.00  0.00    +0.000 A 
ATOM      8  O   UNL     1       6.433   5.300  20.100  0.00  0.00    +0.000 OA
ATOM      9  H   UNL     1       7.800   6.401  18.392  0.00  0.00    +0.000 HD
ENDROOT
BRANCH   2  10
ATOM     10  N   UNL     1       4.016   3.549  16.374  0.00  0.00    +0.000 N 
ATOM     11  H   UNL     1       3.951   3.702  15.359  0.00  0.00    +0.000 HD
ATOM     12  H   UNL     1       3.109   3.685  16.811  0.00  0.00    +0.000 HD
ENDBRANCH   2  10
BRANCH   3  13
ATOM     13  C   UNL     1       5.787   4.927  14.702  0.00  0.00    +0.000 C 
ATOM     14  C   UNL     1       6.971   4.926  13.762  0.00  0.00    +0.000 C 
ATOM     15  C   UNL     1       6.210   3.661  13.988  0.00  0.00    +0.000 C 
ENDBRANCH   3  13
BRANCH   1  16
ATOM     16  C   UNL     1       4.300   3.484  19.205  0.00  0.00    +0.000 C 
ATOM     17  O   UNL     1       4.788   2.495  19.768  0.00  0.00    +0.000 OA
BRANCH  16  18
ATOM     18  C   UNL     1       2.824   3.850  19.350  0.00  0.00    +0.000 C 
BRANCH  18  19
ATOM     19  S   UNL     1       2.514   4.852  20.845  0.00  0.00    +0.000 S 
BRANCH  19  25
ATOM     20  C   UNL     1       1.936  10.694  18.230  0.00  0.00    +0.000 C 
ATOM     21  N   UNL     1       1.974   9.310  17.806  0.00  0.00    +0.000 N 
ATOM     22  C   UNL     1       1.925   8.359  18.772  0.00  0.00    +0.000 A 
ATOM     23  N   UNL     1       1.398   8.496  19.972  0.00  0.00    +0.000 NA
ATOM     24  N   UNL     1       1.537   7.364  20.749  0.00  0.00    +0.000 NA
ATOM     25  C   UNL     1       2.166   6.405  20.106  0.00  0.00    +0.000 A 
ATOM     26  S   UNL     1       2.624   6.805  18.507  0.00  0.00    +0.000 S 
ATOM     27  H   UNL     1       2.591   9.124  17.023  0.00  0.00    +0.000 HD
ENDBRANCH  19  25
ENDBRANCH  18  19
ENDBRANCH  16  18
ENDBRANCH   1  16
TORSDOF 6
ENDMDL
MODEL 4
REMARK VINA RESULT:      -6.8      3.444      7.037
REMARK  Name = 
REMARK  7 active torsions:
REMARK  status: ('A' for Active; 'I' for Inactive)
REMARK    1  A    between atoms: C_1  and  N_2
REMARK    2  A    between atoms: C_6  and  S_7
REMARK    3  A    between atoms: S_7  and  C_8
REMARK    4  A    between atoms: C_8  and  C_9
REMARK    5  A    between atoms: C_9  and  C_11
REMARK    6  A    between atoms: C_12  and  N_13
REMARK    7  A    between atoms: N_14  and  C_15
REMARK                            x       y       z     vdW  Elec       q    Type
REMARK                         _______ _______ _______ _____ _____    ______ ____
ROOT
ATOM      1  C   UNL     1       5.959   4.950  17.462  0.00  0.00    +0.000 A 
ATOM      2  C   UNL     1       5.665   4.168  16.387  0.00  0.00    +0.000 A 
ATOM      3  N   UNL     1       6.338   4.378  15.173  0.00  0.00    +0.000 N 
ATOM      4  C   UNL     1       7.342   5.332  15.022  0.00  0.00    +0.000 A 
ATOM      5  O   UNL     1       8.040   5.474  14.020  0.00  0.00    +0.000 OA
ATOM      6  N   UNL     1       7.546   6.152  16.089  0.00  0.00    +0.000 N 
ATOM      7  C   UNL     1       6.947   6.039  17.302  0.00  0.00    +0.000 A 
ATOM      8  O   UNL     1       7.240   6.810  18.208  0.00  0.00    +0.000 OA
ATOM      9  H   UNL     1       8.261   6.856  15.983  0.00  0.00    +0.000 HD
ENDROOT
BRANCH   2  10
ATOM     10  N   UNL     1       4.713   3.155  16.464  0.00  0.00    +0.000 N 
ATOM     11  H   UNL     1       5.105   2.224  16.267  0.00  0.00    +0.000 HD
ATOM     12  H   UNL     1       3.901   3.328  15.877  0.00  0.00    +0.000 HD
ENDBRANCH   2  10
BRANCH   3  13
ATOM     13  C   UNL     1       6.098   3.475  14.054  0.00  0.00    +0.000 C 
ATOM     14  C   UNL     1       5.046   3.700  12.992  0.00  0.00    +0.000 C 
ATOM     15  C   UNL     1       6.489   3.864  12.644  0.00  0.00    +0.000 C 
ENDBRANCH   3  13
BRANCH   1  16
ATOM     16  C   UNL     1       5.293   4.684  18.792  0.00  0.00    +0.000 C 
ATOM     17  O   UNL     1       5.645   3.698  19.451  0.00  0.00    +0.000 OA
BRANCH  16  18
ATOM     18  C   UNL     1       4.184   5.621  19.269  0.00  0.00    +0.000 C 
BRANCH  18  19
ATOM     19  S   UNL     1       3.346   6.451  17.874  0.00  0.00    +0.000 S 
BRANCH  19  25
ATOM     20  C   UNL     1       0.389  11.164  21.091  0.00  0.00    +0.000 C 
ATOM     21  N   UNL     1       0.407  10.601  19.757  0.00  0.00    +0.000 N 
ATOM     22  C   UNL     1       1.087   9.440  19.578  0.00  0.00    +0.000 A 
ATOM     23  N   UNL     1       1.336   8.535  20.502  0.00  0.00    +0.000 NA
ATOM     24  N   UNL     1       2.088   7.479  20.026  0.00  0.00    +0.000 NA
ATOM     25  C   UNL     1       2.379   7.623  18.752  0.00  0.00    +0.000 A 
ATOM     26  S   UNL     1       1.753   9.045  18.037  0.00  0.00    +0.000 S 
ATOM     27  H   UNL     1       0.479  11.284  19.011  0.00  0.00    +0.000 HD
ENDBRANCH  19  25
ENDBRANCH  18  19
ENDBRANCH  16  18
ENDBRANCH   1  16
TORSDOF 6
ENDMDL
MODEL 5
REMARK VINA RESULT:      -6.8      1.460      2.423
REMARK  Name = 
REMARK  7 active torsions:
REMARK  status: ('A' for Active; 'I' for Inactive)
REMARK    1  A    between atoms: C_1  and  N_2
REMARK    2  A    between atoms: C_6  and  S_7
REMARK    3  A    between atoms: S_7  and  C_8
REMARK    4  A    between atoms: C_8  and  C_9
REMARK    5  A    between atoms: C_9  and  C_11
REMARK    6  A    between atoms: C_12  and  N_13
REMARK    7  A    between atoms: N_14  and  C_15
REMARK                            x       y       z     vdW  Elec       q    Type
REMARK                         _______ _______ _______ _____ _____    ______ ____
ROOT
ATOM      1  C   UNL     1       4.517   5.148  18.187  0.00  0.00    +0.000 A 
ATOM      2  C   UNL     1       3.257   4.705  18.451  0.00  0.00    +0.000 A 
ATOM      3  N   UNL     1       3.076   3.563  19.247  0.00  0.00    +0.000 N 
ATOM      4  C   UNL     1       4.137   2.873  19.829  0.00  0.00    +0.000 A 
ATOM      5  O   UNL     1       4.026   1.944  20.627  0.00  0.00    +0.000 OA
ATOM      6  N   UNL     1       5.383   3.291  19.472  0.00  0.00    +0.000 N 
ATOM      7  C   UNL     1       5.667   4.375  18.707  0.00  0.00    +0.000 A 
ATOM      8  O   UNL     1       6.832   4.683  18.482  0.00  0.00    +0.000 OA
ATOM      9  H   UNL     1       6.157   2.786  19.877  0.00  0.00    +0.000 HD
ENDROOT
BRANCH   2  10
ATOM     10  N   UNL     1       2.136   5.366  17.953  0.00  0.00    +0.000 N 
ATOM     11  H   UNL     1       1.277   5.136  18.470  0.00  0.00    +0.000 HD
ATOM     12  H   UNL     1       2.000   5.220  16.957  0.00  0.00    +0.000 HD
ENDBRANCH   2  10
BRANCH   3  13
ATOM     13  C   UNL     1       1.726   3.151  19.615  0.00  0.00    +0.000 C 
ATOM     14  C   UNL     1       1.310   2.763  21.015  0.00  0.00    +0.000 C 
ATOM     15  C   UNL     1       0.835   4.056  20.438  0.00  0.00    +0.000 C 
ENDBRANCH   3  13
BRANCH   1  16
ATOM     16  C   UNL     1       4.721   6.417  17.392  0.00  0.00    +0.000 C 
ATOM     17  O   UNL     1       4.573   7.507  17.959  0.00  0.00    +0.000 OA
BRANCH  16  18
ATOM     18  C   UNL     1       5.069   6.318  15.908  0.00  0.00    +0.000 C 
BRANCH  18  19
ATOM     19  S   UNL     1       6.854   6.030  15.644  0.00  0.00    +0.000 S 
BRANCH  19  25
ATOM     20  C   UNL     1       6.960   1.718  10.879  0.00  0.00    +0.000 C 
ATOM     21  N   UNL     1       6.011   2.281  11.817  0.00  0.00    +0.000 N 
ATOM     22  C   UNL     1       6.418   3.346  12.554  0.00  0.00    +0.000 A 
ATOM     23  N   UNL     1       7.358   4.207  12.222  0.00  0.00    +0.000 NA
ATOM     24  N   UNL     1       7.577   5.160  13.196  0.00  0.00    +0.000 NA
ATOM     25  C   UNL     1       6.790   4.987  14.234  0.00  0.00    +0.000 A 
ATOM     26  S   UNL     1       5.718   3.661  14.098  0.00  0.00    +0.000 S 
ATOM     27  H   UNL     1       5.433   1.599  12.295  0.00  0.00    +0.000 HD
ENDBRANCH  19  25
ENDBRANCH  18  19
ENDBRANCH  16  18
ENDBRANCH   1  16
TORSDOF 6
ENDMDL
MODEL 6
REMARK VINA RESULT:      -6.8      3.908      6.706
REMARK  Name = 
REMARK  7 active torsions:
REMARK  status: ('A' for Active; 'I' for Inactive)
REMARK    1  A    between atoms: C_1  and  N_2
REMARK    2  A    between atoms: C_6  and  S_7
REMARK    3  A    between atoms: S_7  and  C_8
REMARK    4  A    between atoms: C_8  and  C_9
REMARK    5  A    between atoms: C_9  and  C_11
REMARK    6  A    between atoms: C_12  and  N_13
REMARK    7  A    between atoms: N_14  and  C_15
REMARK                            x       y       z     vdW  Elec       q    Type
REMARK                         _______ _______ _______ _____ _____    ______ ____
ROOT
ATOM      1  C   UNL     1       4.366   4.861  18.256  0.00  0.00    +0.000 A 
ATOM      2  C   UNL     1       3.155   4.327  18.577  0.00  0.00    +0.000 A 
ATOM      3  N   UNL     1       3.092   3.220  19.438  0.00  0.00    +0.000 N 
ATOM      4  C   UNL     1       4.222   2.658  20.028  0.00  0.00    +0.000 A 
ATOM      5  O   UNL     1       4.210   1.769  20.877  0.00  0.00    +0.000 OA
ATOM      6  N   UNL     1       5.418   3.161  19.616  0.00  0.00    +0.000 N 
ATOM      7  C   UNL     1       5.590   4.221  18.786  0.00  0.00    +0.000 A 
ATOM      8  O   UNL     1       6.718   4.616  18.515  0.00  0.00    +0.000 OA
ATOM      9  H   UNL     1       6.243   2.748  20.027  0.00  0.00    +0.000 HD
ENDROOT
BRANCH   2  10
ATOM     10  N   UNL     1       1.971   4.860  18.074  0.00  0.00    +0.000 N 
ATOM     11  H   UNL     1       1.441   5.388  18.781  0.00  0.00    +0.000 HD
ATOM     12  H   UNL     1       1.376   4.161  17.636  0.00  0.00    +0.000 HD
ENDBRANCH   2  10
BRANCH   3  13
ATOM     13  C   UNL     1       1.792   2.714  19.862  0.00  0.00    +0.000 C 
ATOM     14  C   UNL     1       1.376   2.553  21.306  0.00  0.00    +0.000 C 
ATOM     15  C   UNL     1       0.764   3.637  20.480  0.00  0.00    +0.000 C 
ENDBRANCH   3  13
BRANCH   1  16
ATOM     16  C   UNL     1       4.440   6.097  17.390  0.00  0.00    +0.000 C 
ATOM     17  O   UNL     1       4.691   5.969  16.185  0.00  0.00    +0.000 OA
BRANCH  16  18
ATOM     18  C   UNL     1       4.239   7.468  18.032  0.00  0.00    +0.000 C 
BRANCH  18  19
ATOM     19  S   UNL     1       2.699   8.270  17.460  0.00  0.00    +0.000 S 
BRANCH  19  25
ATOM     20  C   UNL     1       0.127   9.452  23.230  0.00  0.00    +0.000 C 
ATOM     21  N   UNL     1      -0.159   9.717  21.835  0.00  0.00    +0.000 N 
ATOM     22  C   UNL     1       0.607   9.086  20.909  0.00  0.00    +0.000 A 
ATOM     23  N   UNL     1       1.248   7.948  21.077  0.00  0.00    +0.000 NA
ATOM     24  N   UNL     1       1.980   7.579  19.966  0.00  0.00    +0.000 NA
ATOM     25  C   UNL     1       1.864   8.455  18.992  0.00  0.00    +0.000 A 
ATOM     26  S   UNL     1       0.849   9.784  19.351  0.00  0.00    +0.000 S 
ATOM     27  H   UNL     1      -0.411  10.678  21.631  0.00  0.00    +0.000 HD
ENDBRANCH  19  25
ENDBRANCH  18  19
ENDBRANCH  16  18
ENDBRANCH   1  16
TORSDOF 6
ENDMDL
MODEL 7
REMARK VINA RESULT:      -6.7      2.899      4.174
REMARK  Name = 
REMARK  7 active torsions:
REMARK  status: ('A' for Active; 'I' for Inactive)
REMARK    1  A    between atoms: C_1  and  N_2
REMARK    2  A    between atoms: C_6  and  S_7
REMARK    3  A    between atoms: S_7  and  C_8
REMARK    4  A    between atoms: C_8  and  C_9
REMARK    5  A    between atoms: C_9  and  C_11
REMARK    6  A    between atoms: C_12  and  N_13
REMARK    7  A    between atoms: N_14  and  C_15
REMARK                            x       y       z     vdW  Elec       q    Type
REMARK                         _______ _______ _______ _____ _____    ______ ____
ROOT
ATOM      1  C   UNL     1       2.778   5.492  19.216  0.00  0.00    +0.000 A 
ATOM      2  C   UNL     1       2.639   6.749  18.712  0.00  0.00    +0.000 A 
ATOM      3  N   UNL     1       2.009   7.739  19.482  0.00  0.00    +0.000 N 
ATOM      4  C   UNL     1       1.550   7.510  20.778  0.00  0.00    +0.000 A 
ATOM      5  O   UNL     1       1.102   8.369  21.534  0.00  0.00    +0.000 OA
ATOM      6  N   UNL     1       1.627   6.222  21.214  0.00  0.00    +0.000 N 
ATOM      7  C   UNL     1       2.209   5.193  20.549  0.00  0.00    +0.000 A 
ATOM      8  O   UNL     1       2.258   4.079  21.058  0.00  0.00    +0.000 OA
ATOM      9  H   UNL     1       1.283   6.044  22.146  0.00  0.00    +0.000 HD
ENDROOT
BRANCH   2  10
ATOM     10  N   UNL     1       3.116   7.080  17.446  0.00  0.00    +0.000 N 
ATOM     11  H   UNL     1       3.236   6.258  16.838  0.00  0.00    +0.000 HD
ATOM     12  H   UNL     1       3.973   7.626  17.476  0.00  0.00    +0.000 HD
ENDBRANCH   2  10
BRANCH   3  13
ATOM     13  C   UNL     1       1.953   9.108  18.984  0.00  0.00    +0.000 C 
ATOM     14  C   UNL     1       1.104   9.551  17.814  0.00  0.00    +0.000 C 
ATOM     15  C   UNL     1       0.722   9.963  19.198  0.00  0.00    +0.000 C 
ENDBRANCH   3  13
BRANCH   1  16
ATOM     16  C   UNL     1       3.519   4.439  18.426  0.00  0.00    +0.000 C 
ATOM     17  O   UNL     1       2.956   3.909  17.460  0.00  0.00    +0.000 OA
BRANCH  16  18
ATOM     18  C   UNL     1       4.927   4.036  18.862  0.00  0.00    +0.000 C 
BRANCH  18  19
ATOM     19  S   UNL     1       6.169   5.298  18.413  0.00  0.00    +0.000 S 
BRANCH  19  25
ATOM     20  C   UNL     1       7.095   3.943  12.199  0.00  0.00    +0.000 C 
ATOM     21  N   UNL     1       6.213   3.552  13.279  0.00  0.00    +0.000 N 
ATOM     22  C   UNL     1       6.276   4.271  14.429  0.00  0.00    +0.000 A 
ATOM     23  N   UNL     1       6.677   5.521  14.542  0.00  0.00    +0.000 NA
ATOM     24  N   UNL     1       6.671   5.967  15.849  0.00  0.00    +0.000 NA
ATOM     25  C   UNL     1       6.261   5.035  16.681  0.00  0.00    +0.000 A 
ATOM     26  S   UNL     1       5.843   3.553  15.935  0.00  0.00    +0.000 S 
ATOM     27  H   UNL     1       6.088   2.551  13.381  0.00  0.00    +0.000 HD
ENDBRANCH  19  25
ENDBRANCH  18  19
ENDBRANCH  16  18
ENDBRANCH   1  16
TORSDOF 6
ENDMDL
MODEL 8
REMARK VINA RESULT:      -6.6      3.915      6.961
REMARK  Name = 
REMARK  7 active torsions:
REMARK  status: ('A' for Active; 'I' for Inactive)
REMARK    1  A    between atoms: C_1  and  N_2
REMARK    2  A    between atoms: C_6  and  S_7
REMARK    3  A    between atoms: S_7  and  C_8
REMARK    4  A    between atoms: C_8  and  C_9
REMARK    5  A    between atoms: C_9  and  C_11
REMARK    6  A    between atoms: C_12  and  N_13
REMARK    7  A    between atoms: N_14  and  C_15
REMARK                            x       y       z     vdW  Elec       q    Type
REMARK                         _______ _______ _______ _____ _____    ______ ____
ROOT
ATOM      1  C   UNL     1       4.322   5.309  18.080  0.00  0.00    +0.000 A 
ATOM      2  C   UNL     1       3.198   4.616  18.411  0.00  0.00    +0.000 A 
ATOM      3  N   UNL     1       3.306   3.443  19.174  0.00  0.00    +0.000 N 
ATOM      4  C   UNL     1       4.523   2.967  19.657  0.00  0.00    +0.000 A 
ATOM      5  O   UNL     1       4.658   2.016  20.425  0.00  0.00    +0.000 OA
ATOM      6  N   UNL     1       5.631   3.635  19.234  0.00  0.00    +0.000 N 
ATOM      7  C   UNL     1       5.637   4.772  18.493  0.00  0.00    +0.000 A 
ATOM      8  O   UNL     1       6.698   5.314  18.203  0.00  0.00    +0.000 OA
ATOM      9  H   UNL     1       6.519   3.287  19.567  0.00  0.00    +0.000 HD
ENDROOT
BRANCH   2  10
ATOM     10  N   UNL     1       1.935   5.049  18.015  0.00  0.00    +0.000 N 
ATOM     11  H   UNL     1       1.541   5.759  18.647  0.00  0.00    +0.000 HD
ATOM     12  H   UNL     1       1.276   4.286  17.887  0.00  0.00    +0.000 HD
ENDBRANCH   2  10
BRANCH   3  13
ATOM     13  C   UNL     1       2.096   2.759  19.615  0.00  0.00    +0.000 C 
ATOM     14  C   UNL     1       1.774   2.453  21.059  0.00  0.00    +0.000 C 
ATOM     15  C   UNL     1       1.000   3.509  20.341  0.00  0.00    +0.000 C 
ENDBRANCH   3  13
BRANCH   1  16
ATOM     16  C   UNL     1       4.210   6.612  17.323  0.00  0.00    +0.000 C 
ATOM     17  O   UNL     1       4.499   6.631  16.120  0.00  0.00    +0.000 OA
BRANCH  16  18
ATOM     18  C   UNL     1       3.777   7.872  18.070  0.00  0.00    +0.000 C 
BRANCH  18  19
ATOM     19  S   UNL     1       2.089   8.394  17.607  0.00  0.00    +0.000 S 
BRANCH  19  25
ATOM     20  C   UNL     1      -0.613  10.110  23.180  0.00  0.00    +0.000 C 
ATOM     21  N   UNL     1       0.456   9.256  22.705  0.00  0.00    +0.000 N 
ATOM     22  C   UNL     1       0.798   9.353  21.395  0.00  0.00    +0.000 A 
ATOM     23  N   UNL     1       0.623  10.405  20.622  0.00  0.00    +0.000 NA
ATOM     24  N   UNL     1       1.034  10.187  19.323  0.00  0.00    +0.000 NA
ATOM     25  C   UNL     1       1.511   8.973  19.159  0.00  0.00    +0.000 A 
ATOM     26  S   UNL     1       1.503   8.011  20.573  0.00  0.00    +0.000 S 
ATOM     27  H   UNL     1       0.460   8.323  23.103  0.00  0.00    +0.000 HD
ENDBRANCH  19  25
ENDBRANCH  18  19
ENDBRANCH  16  18
ENDBRANCH   1  16
TORSDOF 6
ENDMDL
MODEL 9
REMARK VINA RESULT:      -6.6      3.805      7.372
REMARK  Name = 
REMARK  7 active torsions:
REMARK  status: ('A' for Active; 'I' for Inactive)
REMARK    1  A    between atoms: C_1  and  N_2
REMARK    2  A    between atoms: C_6  and  S_7
REMARK    3  A    between atoms: S_7  and  C_8
REMARK    4  A    between atoms: C_8  and  C_9
REMARK    5  A    between atoms: C_9  and  C_11
REMARK    6  A    between atoms: C_12  and  N_13
REMARK    7  A    between atoms: N_14  and  C_15
REMARK                            x       y       z     vdW  Elec       q    Type
REMARK                         _______ _______ _______ _____ _____    ______ ____
ROOT
ATOM      1  C   UNL     1       3.694   4.539  18.313  0.00  0.00    +0.000 A 
ATOM      2  C   UNL     1       4.379   5.567  17.741  0.00  0.00    +0.000 A 
ATOM      3  N   UNL     1       5.783   5.542  17.729  0.00  0.00    +0.000 N 
ATOM      4  C   UNL     1       6.523   4.479  18.242  0.00  0.00    +0.000 A 
ATOM      5  O   UNL     1       7.743   4.355  18.150  0.00  0.00    +0.000 OA
ATOM      6  N   UNL     1       5.809   3.513  18.883  0.00  0.00    +0.000 N 
ATOM      7  C   UNL     1       4.455   3.446  18.956  0.00  0.00    +0.000 A 
ATOM      8  O   UNL     1       3.915   2.504  19.526  0.00  0.00    +0.000 OA
ATOM      9  H   UNL     1       6.339   2.747  19.271  0.00  0.00    +0.000 HD
ENDROOT
BRANCH   2  10
ATOM     10  N   UNL     1       3.718   6.645  17.157  0.00  0.00    +0.000 N 
ATOM     11  H   UNL     1       4.125   6.918  16.253  0.00  0.00    +0.000 HD
ATOM     12  H   UNL     1       3.653   7.450  17.773  0.00  0.00    +0.000 HD
ENDBRANCH   2  10
BRANCH   3  13
ATOM     13  C   UNL     1       6.514   6.590  17.027  0.00  0.00    +0.000 C 
ATOM     14  C   UNL     1       6.442   8.058  17.381  0.00  0.00    +0.000 C 
ATOM     15  C   UNL     1       7.688   7.289  17.678  0.00  0.00    +0.000 C 
ENDBRANCH   3  13
BRANCH   1  16
ATOM     16  C   UNL     1       2.183   4.520  18.265  0.00  0.00    +0.000 C 
ATOM     17  O   UNL     1       1.622   4.243  17.198  0.00  0.00    +0.000 OA
BRANCH  16  18
ATOM     18  C   UNL     1       1.395   4.876  19.524  0.00  0.00    +0.000 C 
BRANCH  18  19
ATOM     19  S   UNL     1       2.377   5.899  20.677  0.00  0.00    +0.000 S 
BRANCH  19  25
ATOM     20  C   UNL     1      -0.413  11.450  19.033  0.00  0.00    +0.000 C 
ATOM     21  N   UNL     1       0.131  10.813  20.214  0.00  0.00    +0.000 N 
ATOM     22  C   UNL     1       0.813   9.652  20.040  0.00  0.00    +0.000 A 
ATOM     23  N   UNL     1       1.431   9.272  18.941  0.00  0.00    +0.000 NA
ATOM     24  N   UNL     1       2.000   8.019  19.055  0.00  0.00    +0.000 NA
ATOM     25  C   UNL     1       1.793   7.495  20.243  0.00  0.00    +0.000 A 
ATOM     26  S   UNL     1       0.901   8.490  21.311  0.00  0.00    +0.000 S 
ATOM     27  H   UNL     1      -0.462  10.867  21.035  0.00  0.00    +0.000 HD
ENDBRANCH  19  25
ENDBRANCH  18  19
ENDBRANCH  16  18
ENDBRANCH   1  16
TORSDOF 6
ENDMDL
