MODEL 1
REMARK VINA RESULT:      -7.2      0.000      0.000
REMARK  Name = 
REMARK  6 active torsions:
REMARK  status: ('A' for Active; 'I' for Inactive)
REMARK    1  A    between atoms: C_1  and  N_2
REMARK    2  A    between atoms: C_6  and  C_7
REMARK    3  A    between atoms: N_10  and  S_11
REMARK    4  A    between atoms: S_11  and  C_14
REMARK    5  A    between atoms: C_14  and  C_15
REMARK    6  A    between atoms: C_15  and  C_16
REMARK                            x       y       z     vdW  Elec       q    Type
REMARK                         _______ _______ _______ _____ _____    ______ ____
ROOT
ATOM      1  C   UNL     1       4.056   5.233  19.292  0.00  0.00    +0.000 C 
ATOM      2  C   UNL     1       5.193   4.277  19.603  0.00  0.00    +0.000 C 
ATOM      3  C   UNL     1       6.391   5.183  19.404  0.00  0.00    +0.000 C 
ATOM      4  N   UNL     1       6.065   5.960  18.163  0.00  0.00    +0.000 NA
ATOM      5  C   UNL     1       4.554   5.963  18.046  0.00  0.00    +0.000 C 
ENDROOT
BRANCH   1  11
ATOM      6  C   UNL     1       2.744   3.025  17.297  0.00  0.00    +0.000 C 
ATOM      7  N   UNL     1       2.206   3.575  18.517  0.00  0.00    +0.000 N 
ATOM      8  C   UNL     1       1.032   3.139  19.081  0.00  0.00    +0.000 A 
ATOM      9  C   UNL     1       0.859   3.901  20.204  0.00  0.00    +0.000 A 
ATOM     10  N   UNL     1       1.885   4.789  20.334  0.00  0.00    +0.000 NA
ATOM     11  C   UNL     1       2.722   4.561  19.332  0.00  0.00    +0.000 A 
ENDBRANCH   1  11
BRANCH   4  12
ATOM     12  S   UNL     1       6.943   5.423  16.804  0.00  0.00    +0.000 S 
ATOM     13  O   UNL     1       7.483   6.592  16.145  0.00  0.00    +0.000 OA
ATOM     14  O   UNL     1       7.808   4.354  17.264  0.00  0.00    +0.000 OA
BRANCH  12  15
ATOM     15  C   UNL     1       5.666   4.729  15.760  0.00  0.00    +0.000 C 
BRANCH  15  16
ATOM     16  C   UNL     1       5.954   5.042  14.292  0.00  0.00    +0.000 C 
BRANCH  16  17
ATOM     17  C   UNL     1       6.155   3.782  13.453  0.00  0.00    +0.000 C 
ATOM     18  C   UNL     1       4.915   3.404  12.644  0.00  0.00    +0.000 C 
ATOM     19  C   UNL     1       5.446   2.416  11.615  0.00  0.00    +0.000 C 
ATOM     20  C   UNL     1       6.902   2.811  11.369  0.00  0.00    +0.000 C 
ATOM     21  C   UNL     1       7.214   3.927  12.361  0.00  0.00    +0.000 C 
ENDBRANCH  16  17
ENDBRANCH  15  16
ENDBRANCH  12  15
ENDBRANCH   4  12
TORSDOF 5
ENDMDL
MODEL 2
REMARK VINA RESULT:      -7.2      2.480      6.874
REMARK  Name = 
REMARK  6 active torsions:
REMARK  status: ('A' for Active; 'I' for Inactive)
REMARK    1  A    between atoms: C_1  and  N_2
REMARK    2  A    between atoms: C_6  and  C_7
REMARK    3  A    between atoms: N_10  and  S_11
REMARK    4  A    between atoms: S_11  and  C_14
REMARK    5  A    between atoms: C_14  and  C_15
REMARK    6  A    between atoms: C_15  and  C_16
REMARK                            x       y       z     vdW  Elec       q    Type
REMARK                         _______ _______ _______ _____ _____    ______ ____
ROOT
ATOM      1  C   UNL     1       6.414   4.125  15.594  0.00  0.00    +0.000 C 
ATOM      2  C   UNL     1       7.083   4.800  16.777  0.00  0.00    +0.000 C 
ATOM      3  C   UNL     1       6.221   4.298  17.918  0.00  0.00    +0.000 C 
ATOM      4  N   UNL     1       4.820   4.389  17.391  0.00  0.00    +0.000 NA
ATOM      5  C   UNL     1       4.927   4.326  15.881  0.00  0.00    +0.000 C 
ENDROOT
BRANCH   1  11
ATOM      6  C   UNL     1       5.691   3.215  12.557  0.00  0.00    +0.000 C 
ATOM      7  N   UNL     1       6.664   4.180  13.004  0.00  0.00    +0.000 N 
ATOM      8  C   UNL     1       7.397   4.960  12.144  0.00  0.00    +0.000 A 
ATOM      9  C   UNL     1       8.205   5.727  12.938  0.00  0.00    +0.000 A 
ATOM     10  N   UNL     1       7.992   5.431  14.252  0.00  0.00    +0.000 NA
ATOM     11  C   UNL     1       7.027   4.523  14.291  0.00  0.00    +0.000 A 
ENDBRANCH   1  11
BRANCH   4  12
ATOM     12  S   UNL     1       3.956   5.703  18.050  0.00  0.00    +0.000 S 
ATOM     13  O   UNL     1       4.310   5.798  19.450  0.00  0.00    +0.000 OA
ATOM     14  O   UNL     1       4.150   6.821  17.149  0.00  0.00    +0.000 OA
BRANCH  12  15
ATOM     15  C   UNL     1       2.257   5.152  17.937  0.00  0.00    +0.000 C 
BRANCH  15  16
ATOM     16  C   UNL     1       2.199   3.629  17.843  0.00  0.00    +0.000 C 
BRANCH  16  17
ATOM     17  C   UNL     1       1.882   2.971  19.185  0.00  0.00    +0.000 C 
ATOM     18  C   UNL     1       3.137   2.637  19.993  0.00  0.00    +0.000 C 
ATOM     19  C   UNL     1       2.603   2.390  21.397  0.00  0.00    +0.000 C 
ATOM     20  C   UNL     1       1.350   3.254  21.525  0.00  0.00    +0.000 C 
ATOM     21  C   UNL     1       1.114   3.872  20.150  0.00  0.00    +0.000 C 
ENDBRANCH  16  17
ENDBRANCH  15  16
ENDBRANCH  12  15
ENDBRANCH   4  12
TORSDOF 5
ENDMDL
MODEL 3
REMARK VINA RESULT:      -7.2      2.422      6.737
REMARK  Name = 
REMARK  6 active torsions:
REMARK  status: ('A' for Active; 'I' for Inactive)
REMARK    1  A    between atoms: C_1  and  N_2
REMARK    2  A    between atoms: C_6  and  C_7
REMARK    3  A    between atoms: N_10  and  S_11
REMARK    4  A    between atoms: S_11  and  C_14
REMARK    5  A    between atoms: C_14  and  C_15
REMARK    6  A    between atoms: C_15  and  C_16
REMARK                            x       y       z     vdW  Elec       q    Type
REMARK                         _______ _______ _______ _____ _____    ______ ____
ROOT
ATOM      1  C   UNL     1       6.663   5.236  15.403  0.00  0.00    +0.000 C 
ATOM      2  C   UNL     1       5.519   6.184  15.710  0.00  0.00    +0.000 C 
ATOM      3  C   UNL     1       5.807   6.519  17.160  0.00  0.00    +0.000 C 
ATOM      4  N   UNL     1       6.194   5.206  17.773  0.00  0.00    +0.000 NA
ATOM      5  C   UNL     1       6.709   4.341  16.640  0.00  0.00    +0.000 C 
ENDROOT
BRANCH   1  11
ATOM      6  C   UNL     1       8.499   5.790  12.776  0.00  0.00    +0.000 C 
ATOM      7  N   UNL     1       7.406   4.864  12.936  0.00  0.00    +0.000 N 
ATOM      8  C   UNL     1       7.033   3.969  11.963  0.00  0.00    +0.000 A 
ATOM      9  C   UNL     1       5.967   3.285  12.480  0.00  0.00    +0.000 A 
ATOM     10  N   UNL     1       5.676   3.741  13.732  0.00  0.00    +0.000 NA
ATOM     11  C   UNL     1       6.577   4.670  14.022  0.00  0.00    +0.000 A 
ENDBRANCH   1  11
BRANCH   4  12
ATOM     12  S   UNL     1       4.960   4.548  18.747  0.00  0.00    +0.000 S 
ATOM     13  O   UNL     1       5.573   3.580  19.631  0.00  0.00    +0.000 OA
ATOM     14  O   UNL     1       4.201   5.667  19.270  0.00  0.00    +0.000 OA
BRANCH  12  15
ATOM     15  C   UNL     1       3.952   3.665  17.561  0.00  0.00    +0.000 C 
BRANCH  15  16
ATOM     16  C   UNL     1       3.562   2.295  18.113  0.00  0.00    +0.000 C 
BRANCH  16  17
ATOM     17  C   UNL     1       2.298   2.347  18.969  0.00  0.00    +0.000 C 
ATOM     18  C   UNL     1       2.598   2.428  20.466  0.00  0.00    +0.000 C 
ATOM     19  C   UNL     1       1.274   2.873  21.073  0.00  0.00    +0.000 C 
ATOM     20  C   UNL     1       0.577   3.700  19.993  0.00  0.00    +0.000 C 
ATOM     21  C   UNL     1       1.451   3.599  18.746  0.00  0.00    +0.000 C 
ENDBRANCH  16  17
ENDBRANCH  15  16
ENDBRANCH  12  15
ENDBRANCH   4  12
TORSDOF 5
ENDMDL
MODEL 4
REMARK VINA RESULT:      -7.1      2.209      6.792
REMARK  Name = 
REMARK  6 active torsions:
REMARK  status: ('A' for Active; 'I' for Inactive)
REMARK    1  A    between atoms: C_1  and  N_2
REMARK    2  A    between atoms: C_6  and  C_7
REMARK    3  A    between atoms: N_10  and  S_11
REMARK    4  A    between atoms: S_11  and  C_14
REMARK    5  A    between atoms: C_14  and  C_15
REMARK    6  A    between atoms: C_15  and  C_16
REMARK                            x       y       z     vdW  Elec       q    Type
REMARK                         _______ _______ _______ _____ _____    ______ ____
ROOT
ATOM      1  C   UNL     1       5.457   4.497  14.995  0.00  0.00    +0.000 C 
ATOM      2  C   UNL     1       5.615   3.238  15.828  0.00  0.00    +0.000 C 
ATOM      3  C   UNL     1       4.503   3.424  16.840  0.00  0.00    +0.000 C 
ATOM      4  N   UNL     1       4.582   4.873  17.216  0.00  0.00    +0.000 NA
ATOM      5  C   UNL     1       5.243   5.581  16.050  0.00  0.00    +0.000 C 
ENDROOT
BRANCH   1  11
ATOM      6  C   UNL     1       5.690   3.091  12.073  0.00  0.00    +0.000 C 
ATOM      7  N   UNL     1       6.561   4.068  12.678  0.00  0.00    +0.000 N 
ATOM      8  C   UNL     1       7.621   4.638  12.018  0.00  0.00    +0.000 A 
ATOM      9  C   UNL     1       8.200   5.492  12.917  0.00  0.00    +0.000 A 
ATOM     10  N   UNL     1       7.529   5.452  14.103  0.00  0.00    +0.000 NA
ATOM     11  C   UNL     1       6.510   4.618  13.942  0.00  0.00    +0.000 A 
ENDBRANCH   1  11
BRANCH   4  12
ATOM     12  S   UNL     1       5.272   5.114  18.756  0.00  0.00    +0.000 S 
ATOM     13  O   UNL     1       5.461   3.811  19.357  0.00  0.00    +0.000 OA
ATOM     14  O   UNL     1       6.385   6.025  18.576  0.00  0.00    +0.000 OA
BRANCH  12  15
ATOM     15  C   UNL     1       3.967   5.957  19.645  0.00  0.00    +0.000 C 
BRANCH  15  16
ATOM     16  C   UNL     1       2.654   5.865  18.869  0.00  0.00    +0.000 C 
BRANCH  16  17
ATOM     17  C   UNL     1       1.664   4.892  19.507  0.00  0.00    +0.000 C 
ATOM     18  C   UNL     1       1.421   3.648  18.652  0.00  0.00    +0.000 C 
ATOM     19  C   UNL     1       0.765   2.672  19.618  0.00  0.00    +0.000 C 
ATOM     20  C   UNL     1       1.307   3.027  21.002  0.00  0.00    +0.000 C 
ATOM     21  C   UNL     1       2.154   4.283  20.820  0.00  0.00    +0.000 C 
ENDBRANCH  16  17
ENDBRANCH  15  16
ENDBRANCH  12  15
ENDBRANCH   4  12
TORSDOF 5
ENDMDL
MODEL 5
REMARK VINA RESULT:      -7.1      1.534      1.759
REMARK  Name = 
REMARK  6 active torsions:
REMARK  status: ('A' for Active; 'I' for Inactive)
REMARK    1  A    between atoms: C_1  and  N_2
REMARK    2  A    between atoms: C_6  and  C_7
REMARK    3  A    between atoms: N_10  and  S_11
REMARK    4  A    between atoms: S_11  and  C_14
REMARK    5  A    between atoms: C_14  and  C_15
REMARK    6  A    between atoms: C_15  and  C_16
REMARK                            x       y       z     vdW  Elec       q    Type
REMARK                         _______ _______ _______ _____ _____    ______ ____
ROOT
ATOM      1  C   UNL     1       2.468   5.172  18.714  0.00  0.00    +0.000 C 
ATOM      2  C   UNL     1       3.024   6.498  19.200  0.00  0.00    +0.000 C 
ATOM      3  C   UNL     1       3.474   7.116  17.891  0.00  0.00    +0.000 C 
ATOM      4  N   UNL     1       4.122   5.983  17.151  0.00  0.00    +0.000 NA
ATOM      5  C   UNL     1       3.517   4.710  17.705  0.00  0.00    +0.000 C 
ENDROOT
BRANCH   1  11
ATOM      6  C   UNL     1       0.783   2.391  18.683  0.00  0.00    +0.000 C 
ATOM      7  N   UNL     1       1.361   3.086  19.807  0.00  0.00    +0.000 N 
ATOM      8  C   UNL     1       1.354   2.581  21.084  0.00  0.00    +0.000 A 
ATOM      9  C   UNL     1       1.977   3.523  21.856  0.00  0.00    +0.000 A 
ATOM     10  N   UNL     1       2.354   4.586  21.090  0.00  0.00    +0.000 NA
ATOM     11  C   UNL     1       2.016   4.300  19.840  0.00  0.00    +0.000 A 
ENDBRANCH   1  11
BRANCH   4  12
ATOM     12  S   UNL     1       5.823   6.092  17.148  0.00  0.00    +0.000 S 
ATOM     13  O   UNL     1       6.179   7.337  16.502  0.00  0.00    +0.000 OA
ATOM     14  O   UNL     1       6.261   5.794  18.497  0.00  0.00    +0.000 OA
BRANCH  12  15
ATOM     15  C   UNL     1       6.301   4.745  16.070  0.00  0.00    +0.000 C 
BRANCH  15  16
ATOM     16  C   UNL     1       5.933   5.068  14.623  0.00  0.00    +0.000 C 
BRANCH  16  17
ATOM     17  C   UNL     1       6.172   3.890  13.681  0.00  0.00    +0.000 C 
ATOM     18  C   UNL     1       4.948   3.557  12.826  0.00  0.00    +0.000 C 
ATOM     19  C   UNL     1       5.513   2.673  11.722  0.00  0.00    +0.000 C 
ATOM     20  C   UNL     1       6.962   3.120  11.530  0.00  0.00    +0.000 C 
ATOM     21  C   UNL     1       7.239   4.153  12.618  0.00  0.00    +0.000 C 
ENDBRANCH  16  17
ENDBRANCH  15  16
ENDBRANCH  12  15
ENDBRANCH   4  12
TORSDOF 5
ENDMDL
MODEL 6
REMARK VINA RESULT:      -7.1      0.845      1.542
REMARK  Name = 
REMARK  6 active torsions:
REMARK  status: ('A' for Active; 'I' for Inactive)
REMARK    1  A    between atoms: C_1  and  N_2
REMARK    2  A    between atoms: C_6  and  C_7
REMARK    3  A    between atoms: N_10  and  S_11
REMARK    4  A    between atoms: S_11  and  C_14
REMARK    5  A    between atoms: C_14  and  C_15
REMARK    6  A    between atoms: C_15  and  C_16
REMARK                            x       y       z     vdW  Elec       q    Type
REMARK                         _______ _______ _______ _____ _____    ______ ____
ROOT
ATOM      1  C   UNL     1       4.208   4.777  19.266  0.00  0.00    +0.000 C 
ATOM      2  C   UNL     1       5.517   4.019  19.383  0.00  0.00    +0.000 C 
ATOM      3  C   UNL     1       6.510   5.164  19.390  0.00  0.00    +0.000 C 
ATOM      4  N   UNL     1       6.002   6.102  18.336  0.00  0.00    +0.000 NA
ATOM      5  C   UNL     1       4.516   5.833  18.206  0.00  0.00    +0.000 C 
ENDROOT
BRANCH   1  11
ATOM      6  C   UNL     1       1.308   4.877  20.735  0.00  0.00    +0.000 C 
ATOM      7  N   UNL     1       1.781   3.958  19.730  0.00  0.00    +0.000 N 
ATOM      8  C   UNL     1       0.984   2.998  19.157  0.00  0.00    +0.000 A 
ATOM      9  C   UNL     1       1.787   2.331  18.273  0.00  0.00    +0.000 A 
ATOM     10  N   UNL     1       3.048   2.850  18.298  0.00  0.00    +0.000 NA
ATOM     11  C   UNL     1       3.031   3.864  19.152  0.00  0.00    +0.000 A 
ENDBRANCH   1  11
BRANCH   4  12
ATOM     12  S   UNL     1       6.925   6.040  16.904  0.00  0.00    +0.000 S 
ATOM     13  O   UNL     1       7.491   7.355  16.695  0.00  0.00    +0.000 OA
ATOM     14  O   UNL     1       7.769   4.867  17.003  0.00  0.00    +0.000 OA
BRANCH  12  15
ATOM     15  C   UNL     1       5.682   5.759  15.647  0.00  0.00    +0.000 C 
BRANCH  15  16
ATOM     16  C   UNL     1       5.562   4.266  15.346  0.00  0.00    +0.000 C 
BRANCH  16  17
ATOM     17  C   UNL     1       6.376   3.848  14.123  0.00  0.00    +0.000 C 
ATOM     18  C   UNL     1       5.504   3.322  12.982  0.00  0.00    +0.000 C 
ATOM     19  C   UNL     1       6.433   3.358  11.776  0.00  0.00    +0.000 C 
ATOM     20  C   UNL     1       7.416   4.498  12.040  0.00  0.00    +0.000 C 
ATOM     21  C   UNL     1       7.118   5.002  13.449  0.00  0.00    +0.000 C 
ENDBRANCH  16  17
ENDBRANCH  15  16
ENDBRANCH  12  15
ENDBRANCH   4  12
TORSDOF 5
ENDMDL
MODEL 7
REMARK VINA RESULT:      -6.9      2.402      6.991
REMARK  Name = 
REMARK  6 active torsions:
REMARK  status: ('A' for Active; 'I' for Inactive)
REMARK    1  A    between atoms: C_1  and  N_2
REMARK    2  A    between atoms: C_6  and  C_7
REMARK    3  A    between atoms: N_10  and  S_11
REMARK    4  A    between atoms: S_11  and  C_14
REMARK    5  A    between atoms: C_14  and  C_15
REMARK    6  A    between atoms: C_15  and  C_16
REMARK                            x       y       z     vdW  Elec       q    Type
REMARK                         _______ _______ _______ _____ _____    ______ ____
ROOT
ATOM      1  C   UNL     1       6.623   5.240  15.218  0.00  0.00    +0.000 C 
ATOM      2  C   UNL     1       5.369   6.046  15.499  0.00  0.00    +0.000 C 
ATOM      3  C   UNL     1       5.574   6.394  16.960  0.00  0.00    +0.000 C 
ATOM      4  N   UNL     1       6.094   5.128  17.574  0.00  0.00    +0.000 NA
ATOM      5  C   UNL     1       6.737   4.342  16.449  0.00  0.00    +0.000 C 
ENDROOT
BRANCH   1  11
ATOM      6  C   UNL     1       8.564   5.921  12.700  0.00  0.00    +0.000 C 
ATOM      7  N   UNL     1       7.517   4.934  12.794  0.00  0.00    +0.000 N 
ATOM      8  C   UNL     1       7.248   4.031  11.795  0.00  0.00    +0.000 A 
ATOM      9  C   UNL     1       6.195   3.283  12.249  0.00  0.00    +0.000 A 
ATOM     10  N   UNL     1       5.812   3.711  13.486  0.00  0.00    +0.000 NA
ATOM     11  C   UNL     1       6.643   4.685  13.832  0.00  0.00    +0.000 A 
ENDBRANCH   1  11
BRANCH   4  12
ATOM     12  S   UNL     1       4.916   4.320  18.505  0.00  0.00    +0.000 S 
ATOM     13  O   UNL     1       4.126   3.513  17.601  0.00  0.00    +0.000 OA
ATOM     14  O   UNL     1       5.611   3.726  19.629  0.00  0.00    +0.000 OA
BRANCH  12  15
ATOM     15  C   UNL     1       3.893   5.664  19.097  0.00  0.00    +0.000 C 
BRANCH  15  16
ATOM     16  C   UNL     1       2.433   5.427  18.713  0.00  0.00    +0.000 C 
BRANCH  16  17
ATOM     17  C   UNL     1       1.663   4.660  19.786  0.00  0.00    +0.000 C 
ATOM     18  C   UNL     1       1.317   3.232  19.362  0.00  0.00    +0.000 C 
ATOM     19  C   UNL     1       0.943   2.550  20.671  0.00  0.00    +0.000 C 
ATOM     20  C   UNL     1       1.746   3.263  21.757  0.00  0.00    +0.000 C 
ATOM     21  C   UNL     1       2.458   4.425  21.070  0.00  0.00    +0.000 C 
ENDBRANCH  16  17
ENDBRANCH  15  16
ENDBRANCH  12  15
ENDBRANCH   4  12
TORSDOF 5
ENDMDL
MODEL 8
REMARK VINA RESULT:      -6.9      3.751      6.657
REMARK  Name = 
REMARK  6 active torsions:
REMARK  status: ('A' for Active; 'I' for Inactive)
REMARK    1  A    between atoms: C_1  and  N_2
REMARK    2  A    between atoms: C_6  and  C_7
REMARK    3  A    between atoms: N_10  and  S_11
REMARK    4  A    between atoms: S_11  and  C_14
REMARK    5  A    between atoms: C_14  and  C_15
REMARK    6  A    between atoms: C_15  and  C_16
REMARK                            x       y       z     vdW  Elec       q    Type
REMARK                         _______ _______ _______ _____ _____    ______ ____
ROOT
ATOM      1  C   UNL     1       4.735   3.210  17.890  0.00  0.00    +0.000 C 
ATOM      2  C   UNL     1       4.756   3.611  19.353  0.00  0.00    +0.000 C 
ATOM      3  C   UNL     1       4.024   2.441  19.980  0.00  0.00    +0.000 C 
ATOM      4  N   UNL     1       2.882   2.174  19.045  0.00  0.00    +0.000 NA
ATOM      5  C   UNL     1       3.305   2.710  17.692  0.00  0.00    +0.000 C 
ENDROOT
BRANCH   1  11
ATOM      6  C   UNL     1       7.707   4.527  17.898  0.00  0.00    +0.000 C 
ATOM      7  N   UNL     1       6.620   4.755  16.978  0.00  0.00    +0.000 N 
ATOM      8  C   UNL     1       6.738   5.540  15.858  0.00  0.00    +0.000 A 
ATOM      9  C   UNL     1       5.508   5.517  15.260  0.00  0.00    +0.000 A 
ATOM     10  N   UNL     1       4.646   4.750  15.987  0.00  0.00    +0.000 NA
ATOM     11  C   UNL     1       5.335   4.255  17.006  0.00  0.00    +0.000 A 
ENDBRANCH   1  11
BRANCH   4  12
ATOM     12  S   UNL     1       1.390   2.723  19.660  0.00  0.00    +0.000 S 
ATOM     13  O   UNL     1       0.343   2.009  18.962  0.00  0.00    +0.000 OA
ATOM     14  O   UNL     1       1.494   2.678  21.105  0.00  0.00    +0.000 OA
BRANCH  12  15
ATOM     15  C   UNL     1       1.352   4.433  19.132  0.00  0.00    +0.000 C 
BRANCH  15  16
ATOM     16  C   UNL     1       1.835   5.345  20.257  0.00  0.00    +0.000 C 
BRANCH  16  17
ATOM     17  C   UNL     1       2.400   6.666  19.738  0.00  0.00    +0.000 C 
ATOM     18  C   UNL     1       2.469   6.723  18.211  0.00  0.00    +0.000 C 
ATOM     19  C   UNL     1       2.656   8.205  17.916  0.00  0.00    +0.000 C 
ATOM     20  C   UNL     1       1.974   8.948  19.064  0.00  0.00    +0.000 C 
ATOM     21  C   UNL     1       1.531   7.881  20.061  0.00  0.00    +0.000 C 
ENDBRANCH  16  17
ENDBRANCH  15  16
ENDBRANCH  12  15
ENDBRANCH   4  12
TORSDOF 5
ENDMDL
MODEL 9
REMARK VINA RESULT:      -6.9      2.420      6.964
REMARK  Name = 
REMARK  6 active torsions:
REMARK  status: ('A' for Active; 'I' for Inactive)
REMARK    1  A    between atoms: C_1  and  N_2
REMARK    2  A    between atoms: C_6  and  C_7
REMARK    3  A    between atoms: N_10  and  S_11
REMARK    4  A    between atoms: S_11  and  C_14
REMARK    5  A    between atoms: C_14  and  C_15
REMARK    6  A    between atoms: C_15  and  C_16
REMARK                            x       y       z     vdW  Elec       q    Type
REMARK                         _______ _______ _______ _____ _____    ______ ____
ROOT
ATOM      1  C   UNL     1       6.156   4.102  15.335  0.00  0.00    +0.000 C 
ATOM      2  C   UNL     1       7.002   4.359  16.568  0.00  0.00    +0.000 C 
ATOM      3  C   UNL     1       6.020   4.003  17.667  0.00  0.00    +0.000 C 
ATOM      4  N   UNL     1       4.724   4.606  17.214  0.00  0.00    +0.000 NA
ATOM      5  C   UNL     1       4.811   4.724  15.706  0.00  0.00    +0.000 C 
ENDROOT
BRANCH   1  11
ATOM      6  C   UNL     1       5.666   3.109  12.278  0.00  0.00    +0.000 C 
ATOM      7  N   UNL     1       6.606   4.084  12.772  0.00  0.00    +0.000 N 
ATOM      8  C   UNL     1       7.406   4.837  11.948  0.00  0.00    +0.000 A 
ATOM      9  C   UNL     1       8.154   5.625  12.781  0.00  0.00    +0.000 A 
ATOM     10  N   UNL     1       7.839   5.366  14.082  0.00  0.00    +0.000 NA
ATOM     11  C   UNL     1       6.870   4.462  14.072  0.00  0.00    +0.000 A 
ENDBRANCH   1  11
BRANCH   4  12
ATOM     12  S   UNL     1       4.324   6.022  18.076  0.00  0.00    +0.000 S 
ATOM     13  O   UNL     1       4.928   5.918  19.387  0.00  0.00    +0.000 OA
ATOM     14  O   UNL     1       4.617   7.139  17.201  0.00  0.00    +0.000 OA
BRANCH  12  15
ATOM     15  C   UNL     1       2.549   5.879  18.264  0.00  0.00    +0.000 C 
BRANCH  15  16
ATOM     16  C   UNL     1       2.164   5.972  19.740  0.00  0.00    +0.000 C 
BRANCH  16  17
ATOM     17  C   UNL     1       1.514   4.689  20.256  0.00  0.00    +0.000 C 
ATOM     18  C   UNL     1       1.589   3.539  19.252  0.00  0.00    +0.000 C 
ATOM     19  C   UNL     1       1.275   2.309  20.092  0.00  0.00    +0.000 C 
ATOM     20  C   UNL     1       1.758   2.634  21.505  0.00  0.00    +0.000 C 
ATOM     21  C   UNL     1       2.212   4.090  21.477  0.00  0.00    +0.000 C 
ENDBRANCH  16  17
ENDBRANCH  15  16
ENDBRANCH  12  15
ENDBRANCH   4  12
TORSDOF 5
ENDMDL
