MODEL 1
REMARK VINA RESULT:      -6.8      0.000      0.000
REMARK  Name = 
REMARK  2 active torsions:
REMARK  status: ('A' for Active; 'I' for Inactive)
REMARK    1  A    between atoms: C_1  and  C_2
REMARK    2  A    between atoms: C_9  and  C_10
REMARK                            x       y       z     vdW  Elec       q    Type
REMARK                         _______ _______ _______ _____ _____    ______ ____
ROOT
ATOM      1  C   UNL     1       6.958   4.746  14.128  0.00  0.00    +0.000 C 
ATOM      2  C   UNL     1       6.225   5.158  15.378  0.00  0.00    +0.000 C 
ATOM      3  O   UNL     1       6.427   6.263  15.870  0.00  0.00    +0.000 OA
ATOM      4  N   UNL     1       5.378   4.175  15.846  0.00  0.00    +0.000 N 
ATOM      5  C   UNL     1       4.543   4.301  16.933  0.00  0.00    +0.000 A 
ATOM      6  N   UNL     1       4.003   3.265  17.525  0.00  0.00    +0.000 NA
ATOM      7  C   UNL     1       3.282   3.694  18.637  0.00  0.00    +0.000 A 
ATOM      8  C   UNL     1       2.639   2.877  19.594  0.00  0.00    +0.000 A 
ATOM      9  C   UNL     1       1.987   3.459  20.697  0.00  0.00    +0.000 A 
ATOM     10  C   UNL     1       1.342   2.613  21.757  0.00  0.00    +0.000 C 
ATOM     11  C   UNL     1       1.952   4.851  20.826  0.00  0.00    +0.000 A 
ATOM     12  C   UNL     1       2.558   5.680  19.880  0.00  0.00    +0.000 A 
ATOM     13  C   UNL     1       3.225   5.077  18.804  0.00  0.00    +0.000 A 
ATOM     14  S   UNL     1       4.086   5.828  17.529  0.00  0.00    +0.000 S 
ATOM     15  H   UNL     1       5.472   3.226  15.510  0.00  0.00    +0.000 HD
ENDROOT
TORSDOF 0
ENDMDL
MODEL 2
REMARK VINA RESULT:      -6.6      2.353      5.734
REMARK  Name = 
REMARK  2 active torsions:
REMARK  status: ('A' for Active; 'I' for Inactive)
REMARK    1  A    between atoms: C_1  and  C_2
REMARK    2  A    between atoms: C_9  and  C_10
REMARK                            x       y       z     vdW  Elec       q    Type
REMARK                         _______ _______ _______ _____ _____    ______ ____
ROOT
ATOM      1  C   UNL     1       1.424   2.507  21.951  0.00  0.00    +0.000 C 
ATOM      2  C   UNL     1       1.815   3.472  20.862  0.00  0.00    +0.000 C 
ATOM      3  O   UNL     1       1.152   4.486  20.675  0.00  0.00    +0.000 OA
ATOM      4  N   UNL     1       2.931   3.060  20.163  0.00  0.00    +0.000 N 
ATOM      5  C   UNL     1       3.542   3.775  19.158  0.00  0.00    +0.000 A 
ATOM      6  N   UNL     1       4.387   3.223  18.320  0.00  0.00    +0.000 NA
ATOM      7  C   UNL     1       4.774   4.165  17.369  0.00  0.00    +0.000 A 
ATOM      8  C   UNL     1       5.591   3.937  16.239  0.00  0.00    +0.000 A 
ATOM      9  C   UNL     1       5.856   4.984  15.337  0.00  0.00    +0.000 A 
ATOM     10  C   UNL     1       6.676   4.757  14.100  0.00  0.00    +0.000 C 
ATOM     11  C   UNL     1       5.331   6.257  15.578  0.00  0.00    +0.000 A 
ATOM     12  C   UNL     1       4.542   6.512  16.701  0.00  0.00    +0.000 A 
ATOM     13  C   UNL     1       4.269   5.449  17.572  0.00  0.00    +0.000 A 
ATOM     14  S   UNL     1       3.307   5.451  18.990  0.00  0.00    +0.000 S 
ATOM     15  H   UNL     1       3.248   2.104  20.237  0.00  0.00    +0.000 HD
ENDROOT
TORSDOF 0
ENDMDL
MODEL 3
REMARK VINA RESULT:      -6.3      2.166      5.802
REMARK  Name = 
REMARK  2 active torsions:
REMARK  status: ('A' for Active; 'I' for Inactive)
REMARK    1  A    between atoms: C_1  and  C_2
REMARK    2  A    between atoms: C_9  and  C_10
REMARK                            x       y       z     vdW  Elec       q    Type
REMARK                         _______ _______ _______ _____ _____    ______ ____
ROOT
ATOM      1  C   UNL     1       1.199   2.868  21.225  0.00  0.00    +0.000 C 
ATOM      2  C   UNL     1       2.213   3.751  20.546  0.00  0.00    +0.000 C 
ATOM      3  O   UNL     1       2.416   4.885  20.967  0.00  0.00    +0.000 OA
ATOM      4  N   UNL     1       2.812   3.140  19.464  0.00  0.00    +0.000 N 
ATOM      5  C   UNL     1       3.814   3.691  18.699  0.00  0.00    +0.000 A 
ATOM      6  N   UNL     1       4.128   3.224  17.515  0.00  0.00    +0.000 NA
ATOM      7  C   UNL     1       5.113   4.030  16.949  0.00  0.00    +0.000 A 
ATOM      8  C   UNL     1       5.646   3.923  15.644  0.00  0.00    +0.000 A 
ATOM      9  C   UNL     1       6.607   4.848  15.195  0.00  0.00    +0.000 A 
ATOM     10  C   UNL     1       7.150   4.790  13.797  0.00  0.00    +0.000 C 
ATOM     11  C   UNL     1       7.055   5.854  16.056  0.00  0.00    +0.000 A 
ATOM     12  C   UNL     1       6.563   5.964  17.357  0.00  0.00    +0.000 A 
ATOM     13  C   UNL     1       5.586   5.050  17.774  0.00  0.00    +0.000 A 
ATOM     14  S   UNL     1       4.776   4.968  19.281  0.00  0.00    +0.000 S 
ATOM     15  H   UNL     1       2.399   2.309  19.063  0.00  0.00    +0.000 HD
ENDROOT
TORSDOF 0
ENDMDL
MODEL 4
REMARK VINA RESULT:      -6.3      3.256      5.651
REMARK  Name = 
REMARK  2 active torsions:
REMARK  status: ('A' for Active; 'I' for Inactive)
REMARK    1  A    between atoms: C_1  and  C_2
REMARK    2  A    between atoms: C_9  and  C_10
REMARK                            x       y       z     vdW  Elec       q    Type
REMARK                         _______ _______ _______ _____ _____    ______ ____
ROOT
ATOM      1  C   UNL     1       0.530   2.500  18.769  0.00  0.00    +0.000 C 
ATOM      2  C   UNL     1       1.896   3.009  19.147  0.00  0.00    +0.000 C 
ATOM      3  O   UNL     1       2.410   2.658  20.203  0.00  0.00    +0.000 OA
ATOM      4  N   UNL     1       2.422   3.869  18.204  0.00  0.00    +0.000 N 
ATOM      5  C   UNL     1       3.675   4.435  18.263  0.00  0.00    +0.000 A 
ATOM      6  N   UNL     1       4.011   5.470  17.532  0.00  0.00    +0.000 NA
ATOM      7  C   UNL     1       5.303   5.870  17.866  0.00  0.00    +0.000 A 
ATOM      8  C   UNL     1       5.988   7.005  17.378  0.00  0.00    +0.000 A 
ATOM      9  C   UNL     1       7.280   7.307  17.849  0.00  0.00    +0.000 A 
ATOM     10  C   UNL     1       8.009   8.536  17.389  0.00  0.00    +0.000 C 
ATOM     11  C   UNL     1       7.894   6.462  18.778  0.00  0.00    +0.000 A 
ATOM     12  C   UNL     1       7.247   5.320  19.254  0.00  0.00    +0.000 A 
ATOM     13  C   UNL     1       5.951   5.054  18.793  0.00  0.00    +0.000 A 
ATOM     14  S   UNL     1       4.907   3.768  19.229  0.00  0.00    +0.000 S 
ATOM     15  H   UNL     1       1.821   4.276  17.502  0.00  0.00    +0.000 HD
ENDROOT
TORSDOF 0
ENDMDL
MODEL 5
REMARK VINA RESULT:      -6.1      2.366      2.978
REMARK  Name = 
REMARK  2 active torsions:
REMARK  status: ('A' for Active; 'I' for Inactive)
REMARK    1  A    between atoms: C_1  and  C_2
REMARK    2  A    between atoms: C_9  and  C_10
REMARK                            x       y       z     vdW  Elec       q    Type
REMARK                         _______ _______ _______ _____ _____    ______ ____
ROOT
ATOM      1  C   UNL     1       8.116   8.339  17.705  0.00  0.00    +0.000 C 
ATOM      2  C   UNL     1       7.310   7.116  17.355  0.00  0.00    +0.000 C 
ATOM      3  O   UNL     1       7.555   6.495  16.326  0.00  0.00    +0.000 OA
ATOM      4  N   UNL     1       6.331   6.839  18.287  0.00  0.00    +0.000 N 
ATOM      5  C   UNL     1       5.490   5.751  18.251  0.00  0.00    +0.000 A 
ATOM      6  N   UNL     1       4.389   5.693  18.960  0.00  0.00    +0.000 NA
ATOM      7  C   UNL     1       3.706   4.518  18.655  0.00  0.00    +0.000 A 
ATOM      8  C   UNL     1       2.431   4.135  19.130  0.00  0.00    +0.000 A 
ATOM      9  C   UNL     1       1.846   2.932  18.691  0.00  0.00    +0.000 A 
ATOM     10  C   UNL     1       0.471   2.527  19.137  0.00  0.00    +0.000 C 
ATOM     11  C   UNL     1       2.545   2.104  17.808  0.00  0.00    +0.000 A 
ATOM     12  C   UNL     1       3.816   2.449  17.346  0.00  0.00    +0.000 A 
ATOM     13  C   UNL     1       4.367   3.664  17.774  0.00  0.00    +0.000 A 
ATOM     14  S   UNL     1       5.871   4.362  17.344  0.00  0.00    +0.000 S 
ATOM     15  H   UNL     1       6.060   7.545  18.958  0.00  0.00    +0.000 HD
ENDROOT
TORSDOF 0
ENDMDL
MODEL 6
REMARK VINA RESULT:      -5.9      3.299      5.983
REMARK  Name = 
REMARK  2 active torsions:
REMARK  status: ('A' for Active; 'I' for Inactive)
REMARK    1  A    between atoms: C_1  and  C_2
REMARK    2  A    between atoms: C_9  and  C_10
REMARK                            x       y       z     vdW  Elec       q    Type
REMARK                         _______ _______ _______ _____ _____    ______ ____
ROOT
ATOM      1  C   UNL     1       0.876   8.529  21.171  0.00  0.00    +0.000 C 
ATOM      2  C   UNL     1       1.588   7.371  20.523  0.00  0.00    +0.000 C 
ATOM      3  O   UNL     1       1.563   6.264  21.050  0.00  0.00    +0.000 OA
ATOM      4  N   UNL     1       2.226   7.727  19.352  0.00  0.00    +0.000 N 
ATOM      5  C   UNL     1       2.901   6.860  18.524  0.00  0.00    +0.000 A 
ATOM      6  N   UNL     1       3.745   7.277  17.612  0.00  0.00    +0.000 NA
ATOM      7  C   UNL     1       4.333   6.176  16.991  0.00  0.00    +0.000 A 
ATOM      8  C   UNL     1       5.367   6.202  16.028  0.00  0.00    +0.000 A 
ATOM      9  C   UNL     1       5.895   4.999  15.527  0.00  0.00    +0.000 A 
ATOM     10  C   UNL     1       7.030   4.996  14.543  0.00  0.00    +0.000 C 
ATOM     11  C   UNL     1       5.373   3.777  15.962  0.00  0.00    +0.000 A 
ATOM     12  C   UNL     1       4.334   3.727  16.893  0.00  0.00    +0.000 A 
ATOM     13  C   UNL     1       3.842   4.937  17.400  0.00  0.00    +0.000 A 
ATOM     14  S   UNL     1       2.617   5.183  18.572  0.00  0.00    +0.000 S 
ATOM     15  H   UNL     1       2.386   8.702  19.142  0.00  0.00    +0.000 HD
ENDROOT
TORSDOF 0
ENDMDL
MODEL 7
REMARK VINA RESULT:      -5.8      2.209      2.999
REMARK  Name = 
REMARK  2 active torsions:
REMARK  status: ('A' for Active; 'I' for Inactive)
REMARK    1  A    between atoms: C_1  and  C_2
REMARK    2  A    between atoms: C_9  and  C_10
REMARK                            x       y       z     vdW  Elec       q    Type
REMARK                         _______ _______ _______ _____ _____    ______ ____
ROOT
ATOM      1  C   UNL     1       7.869   5.108  12.844  0.00  0.00    +0.000 C 
ATOM      2  C   UNL     1       6.750   4.759  13.790  0.00  0.00    +0.000 C 
ATOM      3  O   UNL     1       6.108   3.728  13.626  0.00  0.00    +0.000 OA
ATOM      4  N   UNL     1       6.571   5.709  14.775  0.00  0.00    +0.000 N 
ATOM      5  C   UNL     1       5.663   5.619  15.805  0.00  0.00    +0.000 A 
ATOM      6  N   UNL     1       5.308   6.660  16.519  0.00  0.00    +0.000 NA
ATOM      7  C   UNL     1       4.320   6.281  17.425  0.00  0.00    +0.000 A 
ATOM      8  C   UNL     1       3.606   7.131  18.299  0.00  0.00    +0.000 A 
ATOM      9  C   UNL     1       2.595   6.606  19.126  0.00  0.00    +0.000 A 
ATOM     10  C   UNL     1       1.785   7.494  20.025  0.00  0.00    +0.000 C 
ATOM     11  C   UNL     1       2.322   5.235  19.100  0.00  0.00    +0.000 A 
ATOM     12  C   UNL     1       3.031   4.372  18.264  0.00  0.00    +0.000 A 
ATOM     13  C   UNL     1       4.014   4.921  17.429  0.00  0.00    +0.000 A 
ATOM     14  S   UNL     1       5.003   4.124  16.279  0.00  0.00    +0.000 S 
ATOM     15  H   UNL     1       6.986   6.625  14.673  0.00  0.00    +0.000 HD
ENDROOT
TORSDOF 0
ENDMDL
MODEL 8
REMARK VINA RESULT:      -5.7      2.115      2.448
REMARK  Name = 
REMARK  2 active torsions:
REMARK  status: ('A' for Active; 'I' for Inactive)
REMARK    1  A    between atoms: C_1  and  C_2
REMARK    2  A    between atoms: C_9  and  C_10
REMARK                            x       y       z     vdW  Elec       q    Type
REMARK                         _______ _______ _______ _____ _____    ______ ____
ROOT
ATOM      1  C   UNL     1       8.127   7.975  17.511  0.00  0.00    +0.000 C 
ATOM      2  C   UNL     1       6.824   7.240  17.339  0.00  0.00    +0.000 C 
ATOM      3  O   UNL     1       6.170   7.385  16.312  0.00  0.00    +0.000 OA
ATOM      4  N   UNL     1       6.506   6.457  18.430  0.00  0.00    +0.000 N 
ATOM      5  C   UNL     1       5.407   5.634  18.520  0.00  0.00    +0.000 A 
ATOM      6  N   UNL     1       4.977   5.162  19.665  0.00  0.00    +0.000 NA
ATOM      7  C   UNL     1       3.808   4.435  19.453  0.00  0.00    +0.000 A 
ATOM      8  C   UNL     1       2.983   3.855  20.444  0.00  0.00    +0.000 A 
ATOM      9  C   UNL     1       1.800   3.188  20.076  0.00  0.00    +0.000 A 
ATOM     10  C   UNL     1       0.878   2.609  21.110  0.00  0.00    +0.000 C 
ATOM     11  C   UNL     1       1.459   3.075  18.724  0.00  0.00    +0.000 A 
ATOM     12  C   UNL     1       2.271   3.618  17.727  0.00  0.00    +0.000 A 
ATOM     13  C   UNL     1       3.430   4.302  18.118  0.00  0.00    +0.000 A 
ATOM     14  S   UNL     1       4.582   5.099  17.131  0.00  0.00    +0.000 S 
ATOM     15  H   UNL     1       6.984   6.600  19.309  0.00  0.00    +0.000 HD
ENDROOT
TORSDOF 0
ENDMDL
MODEL 9
REMARK VINA RESULT:      -5.6      3.505      5.452
REMARK  Name = 
REMARK  2 active torsions:
REMARK  status: ('A' for Active; 'I' for Inactive)
REMARK    1  A    between atoms: C_1  and  C_2
REMARK    2  A    between atoms: C_9  and  C_10
REMARK                            x       y       z     vdW  Elec       q    Type
REMARK                         _______ _______ _______ _____ _____    ______ ____
ROOT
ATOM      1  C   UNL     1       0.369   9.785  21.909  0.00  0.00    +0.000 C 
ATOM      2  C   UNL     1       0.893   8.951  20.769  0.00  0.00    +0.000 C 
ATOM      3  O   UNL     1       0.851   9.385  19.623  0.00  0.00    +0.000 OA
ATOM      4  N   UNL     1       1.372   7.725  21.183  0.00  0.00    +0.000 N 
ATOM      5  C   UNL     1       1.961   6.789  20.365  0.00  0.00    +0.000 A 
ATOM      6  N   UNL     1       2.109   5.537  20.726  0.00  0.00    +0.000 NA
ATOM      7  C   UNL     1       2.655   4.814  19.667  0.00  0.00    +0.000 A 
ATOM      8  C   UNL     1       2.873   3.419  19.621  0.00  0.00    +0.000 A 
ATOM      9  C   UNL     1       3.391   2.823  18.456  0.00  0.00    +0.000 A 
ATOM     10  C   UNL     1       3.582   1.337  18.361  0.00  0.00    +0.000 C 
ATOM     11  C   UNL     1       3.717   3.621  17.356  0.00  0.00    +0.000 A 
ATOM     12  C   UNL     1       3.535   5.004  17.387  0.00  0.00    +0.000 A 
ATOM     13  C   UNL     1       2.992   5.573  18.547  0.00  0.00    +0.000 A 
ATOM     14  S   UNL     1       2.619   7.216  18.855  0.00  0.00    +0.000 S 
ATOM     15  H   UNL     1       1.136   7.376  22.102  0.00  0.00    +0.000 HD
ENDROOT
TORSDOF 0
ENDMDL
