MODEL 1
REMARK VINA RESULT:      -7.8      0.000      0.000
REMARK  Name = 
REMARK  4 active torsions:
REMARK  status: ('A' for Active; 'I' for Inactive)
REMARK    1  A    between atoms: N_3  and  C_4
REMARK    2  A    between atoms: C_7  and  N_8
REMARK    3  A    between atoms: C_9  and  C_11
REMARK    4  A    between atoms: N_18  and  C_19
REMARK                            x       y       z     vdW  Elec       q    Type
REMARK                         _______ _______ _______ _____ _____    ______ ____
ROOT
ATOM      1  C   UNL     1       1.190   9.007  20.174  0.00  0.00    +0.000 A 
ATOM      2  C   UNL     1       1.259   8.903  21.563  0.00  0.00    +0.000 A 
ATOM      3  C   UNL     1       0.521   9.743  22.391  0.00  0.00    +0.000 A 
ATOM      4  C   UNL     1      -0.295  10.732  21.855  0.00  0.00    +0.000 A 
ATOM      5  C   UNL     1      -0.402  10.827  20.462  0.00  0.00    +0.000 A 
ATOM      6  C   UNL     1       0.357   9.985  19.626  0.00  0.00    +0.000 A 
ENDROOT
BRANCH   1   9
ATOM      7  O   UNL     1       1.667   6.205  20.507  0.00  0.00    +0.000 OA
ATOM      8  C   UNL     1       2.142   6.811  19.551  0.00  0.00    +0.000 C 
ATOM      9  N   UNL     1       1.932   8.159  19.312  0.00  0.00    +0.000 N 
ATOM     10  N   UNL     1       2.898   6.195  18.572  0.00  0.00    +0.000 N 
ATOM     11  H   UNL     1       2.156   8.516  18.397  0.00  0.00    +0.000 HD
ATOM     12  H   UNL     1       3.089   6.703  17.719  0.00  0.00    +0.000 HD
BRANCH  10  13
ATOM     13  C   UNL     1       3.177   4.801  18.543  0.00  0.00    +0.000 A 
ATOM     14  C   UNL     1       4.289   4.226  19.171  0.00  0.00    +0.000 A 
ATOM     15  C   UNL     1       4.469   2.841  19.180  0.00  0.00    +0.000 A 
ATOM     16  C   UNL     1       3.543   2.028  18.543  0.00  0.00    +0.000 A 
ATOM     17  F   UNL     1       3.712   0.701  18.566  0.00  0.00    +0.000 F 
ATOM     18  C   UNL     1       2.451   2.572  17.882  0.00  0.00    +0.000 A 
ATOM     19  C   UNL     1       2.283   3.956  17.878  0.00  0.00    +0.000 A 
ATOM     20  F   UNL     1       1.212   4.477  17.257  0.00  0.00    +0.000 F 
ENDBRANCH  10  13
ENDBRANCH   1   9
BRANCH   4  21
ATOM     21  N   UNL     1      -0.995  11.645  22.666  0.00  0.00    +0.000 N 
ATOM     22  C   UNL     1      -0.693  12.996  22.814  0.00  0.00    +0.000 C 
ATOM     23  O   UNL     1       0.231  13.581  22.259  0.00  0.00    +0.000 OA
ATOM     24  H   UNL     1      -1.864  11.344  23.091  0.00  0.00    +0.000 HD
BRANCH  22  25
ATOM     25  C   UNL     1      -1.617  13.714  23.670  0.00  0.00    +0.000 A 
ATOM     26  C   UNL     1      -2.981  13.577  23.814  0.00  0.00    +0.000 A 
ATOM     27  C   UNL     1      -3.379  14.510  24.799  0.00  0.00    +0.000 A 
ATOM     28  C   UNL     1      -2.236  15.159  25.192  0.00  0.00    +0.000 A 
ATOM     29  O   UNL     1      -1.155  14.687  24.515  0.00  0.00    +0.000 OA
ENDBRANCH  22  25
ENDBRANCH   4  21
TORSDOF 4
ENDMDL
MODEL 2
REMARK VINA RESULT:      -7.7      0.417      1.044
REMARK  Name = 
REMARK  4 active torsions:
REMARK  status: ('A' for Active; 'I' for Inactive)
REMARK    1  A    between atoms: N_3  and  C_4
REMARK    2  A    between atoms: C_7  and  N_8
REMARK    3  A    between atoms: C_9  and  C_11
REMARK    4  A    between atoms: N_18  and  C_19
REMARK                            x       y       z     vdW  Elec       q    Type
REMARK                         _______ _______ _______ _____ _____    ______ ____
ROOT
ATOM      1  C   UNL     1       1.289   8.898  20.068  0.00  0.00    +0.000 A 
ATOM      2  C   UNL     1       0.443   9.835  19.474  0.00  0.00    +0.000 A 
ATOM      3  C   UNL     1      -0.365  10.670  20.241  0.00  0.00    +0.000 A 
ATOM      4  C   UNL     1      -0.370  10.579  21.627  0.00  0.00    +0.000 A 
ATOM      5  C   UNL     1       0.498   9.667  22.239  0.00  0.00    +0.000 A 
ATOM      6  C   UNL     1       1.305   8.813  21.462  0.00  0.00    +0.000 A 
ENDROOT
BRANCH   1   9
ATOM      7  O   UNL     1       1.596   6.070  20.381  0.00  0.00    +0.000 OA
ATOM      8  C   UNL     1       2.239   6.679  19.532  0.00  0.00    +0.000 C 
ATOM      9  N   UNL     1       2.123   8.040  19.306  0.00  0.00    +0.000 N 
ATOM     10  N   UNL     1       3.116   6.055  18.664  0.00  0.00    +0.000 N 
ATOM     11  H   UNL     1       2.503   8.411  18.450  0.00  0.00    +0.000 HD
ATOM     12  H   UNL     1       3.460   6.576  17.869  0.00  0.00    +0.000 HD
BRANCH  10  13
ATOM     13  C   UNL     1       3.341   4.651  18.633  0.00  0.00    +0.000 A 
ATOM     14  C   UNL     1       4.380   4.024  19.331  0.00  0.00    +0.000 A 
ATOM     15  C   UNL     1       4.504   2.633  19.332  0.00  0.00    +0.000 A 
ATOM     16  C   UNL     1       3.595   1.866  18.617  0.00  0.00    +0.000 A 
ATOM     17  F   UNL     1       3.709   0.533  18.633  0.00  0.00    +0.000 F 
ATOM     18  C   UNL     1       2.577   2.463  17.888  0.00  0.00    +0.000 A 
ATOM     19  C   UNL     1       2.464   3.852  17.894  0.00  0.00    +0.000 A 
ATOM     20  F   UNL     1       1.463   4.424  17.205  0.00  0.00    +0.000 F 
ENDBRANCH  10  13
ENDBRANCH   1   9
BRANCH   4  21
ATOM     21  N   UNL     1      -1.231  11.356  22.424  0.00  0.00    +0.000 N 
ATOM     22  C   UNL     1      -1.030  12.688  22.774  0.00  0.00    +0.000 C 
ATOM     23  O   UNL     1      -0.068  13.373  22.438  0.00  0.00    +0.000 OA
ATOM     24  H   UNL     1      -2.135  10.972  22.674  0.00  0.00    +0.000 HD
BRANCH  22  25
ATOM     25  C   UNL     1      -2.107  13.259  23.558  0.00  0.00    +0.000 A 
ATOM     26  C   UNL     1      -3.411  12.839  23.711  0.00  0.00    +0.000 A 
ATOM     27  C   UNL     1      -4.025  13.746  24.606  0.00  0.00    +0.000 A 
ATOM     28  C   UNL     1      -3.061  14.664  24.940  0.00  0.00    +0.000 A 
ATOM     29  O   UNL     1      -1.888  14.382  24.311  0.00  0.00    +0.000 OA
ENDBRANCH  22  25
ENDBRANCH   4  21
TORSDOF 4
ENDMDL
MODEL 3
REMARK VINA RESULT:      -7.5      7.626     10.768
REMARK  Name = 
REMARK  4 active torsions:
REMARK  status: ('A' for Active; 'I' for Inactive)
REMARK    1  A    between atoms: N_3  and  C_4
REMARK    2  A    between atoms: C_7  and  N_8
REMARK    3  A    between atoms: C_9  and  C_11
REMARK    4  A    between atoms: N_18  and  C_19
REMARK                            x       y       z     vdW  Elec       q    Type
REMARK                         _______ _______ _______ _____ _____    ______ ____
ROOT
ATOM      1  C   UNL     1       7.558   7.756  17.656  0.00  0.00    +0.000 A 
ATOM      2  C   UNL     1       7.836   6.739  18.570  0.00  0.00    +0.000 A 
ATOM      3  C   UNL     1       6.894   5.760  18.873  0.00  0.00    +0.000 A 
ATOM      4  C   UNL     1       5.634   5.778  18.287  0.00  0.00    +0.000 A 
ATOM      5  C   UNL     1       5.352   6.771  17.342  0.00  0.00    +0.000 A 
ATOM      6  C   UNL     1       6.301   7.770  17.047  0.00  0.00    +0.000 A 
ENDROOT
BRANCH   1   9
ATOM      7  O   UNL     1       8.460   9.883  19.344  0.00  0.00    +0.000 OA
ATOM      8  C   UNL     1       8.875   9.779  18.194  0.00  0.00    +0.000 C 
ATOM      9  N   UNL     1       8.504   8.761  17.331  0.00  0.00    +0.000 N 
ATOM     10  N   UNL     1       9.810  10.640  17.651  0.00  0.00    +0.000 N 
ATOM     11  H   UNL     1       9.061   8.617  16.504  0.00  0.00    +0.000 HD
ATOM     12  H   UNL     1      10.252  10.385  16.780  0.00  0.00    +0.000 HD
BRANCH  10  13
ATOM     13  C   UNL     1      10.414  11.710  18.367  0.00  0.00    +0.000 A 
ATOM     14  C   UNL     1      11.576  11.562  19.136  0.00  0.00    +0.000 A 
ATOM     15  C   UNL     1      12.172  12.664  19.750  0.00  0.00    +0.000 A 
ATOM     16  C   UNL     1      11.596  13.919  19.612  0.00  0.00    +0.000 A 
ATOM     17  F   UNL     1      12.179  14.975  20.191  0.00  0.00    +0.000 F 
ATOM     18  C   UNL     1      10.426  14.089  18.886  0.00  0.00    +0.000 A 
ATOM     19  C   UNL     1       9.839  12.981  18.278  0.00  0.00    +0.000 A 
ATOM     20  F   UNL     1       8.718  13.155  17.557  0.00  0.00    +0.000 F 
ENDBRANCH  10  13
ENDBRANCH   1   9
BRANCH   4  21
ATOM     21  N   UNL     1       4.637   4.846  18.629  0.00  0.00    +0.000 N 
ATOM     22  C   UNL     1       3.474   5.127  19.341  0.00  0.00    +0.000 C 
ATOM     23  O   UNL     1       3.157   6.230  19.774  0.00  0.00    +0.000 OA
ATOM     24  H   UNL     1       4.690   3.915  18.231  0.00  0.00    +0.000 HD
BRANCH  22  25
ATOM     25  C   UNL     1       2.594   3.986  19.501  0.00  0.00    +0.000 A 
ATOM     26  C   UNL     1       1.342   3.906  20.073  0.00  0.00    +0.000 A 
ATOM     27  C   UNL     1       0.923   2.563  19.942  0.00  0.00    +0.000 A 
ATOM     28  C   UNL     1       1.945   1.905  19.304  0.00  0.00    +0.000 A 
ATOM     29  O   UNL     1       2.970   2.757  19.028  0.00  0.00    +0.000 OA
ENDBRANCH  22  25
ENDBRANCH   4  21
TORSDOF 4
ENDMDL
MODEL 4
REMARK VINA RESULT:      -7.5      1.054      1.501
REMARK  Name = 
REMARK  4 active torsions:
REMARK  status: ('A' for Active; 'I' for Inactive)
REMARK    1  A    between atoms: N_3  and  C_4
REMARK    2  A    between atoms: C_7  and  N_8
REMARK    3  A    between atoms: C_9  and  C_11
REMARK    4  A    between atoms: N_18  and  C_19
REMARK                            x       y       z     vdW  Elec       q    Type
REMARK                         _______ _______ _______ _____ _____    ______ ____
ROOT
ATOM      1  C   UNL     1       1.081   9.049  20.239  0.00  0.00    +0.000 A 
ATOM      2  C   UNL     1       1.224   9.049  21.627  0.00  0.00    +0.000 A 
ATOM      3  C   UNL     1       0.494   9.920  22.431  0.00  0.00    +0.000 A 
ATOM      4  C   UNL     1      -0.387  10.837  21.870  0.00  0.00    +0.000 A 
ATOM      5  C   UNL     1      -0.567  10.826  20.482  0.00  0.00    +0.000 A 
ATOM      6  C   UNL     1       0.182   9.954  19.668  0.00  0.00    +0.000 A 
ENDROOT
BRANCH   1   9
ATOM      7  O   UNL     1       1.406   6.226  20.577  0.00  0.00    +0.000 OA
ATOM      8  C   UNL     1       1.946   6.810  19.642  0.00  0.00    +0.000 C 
ATOM      9  N   UNL     1       1.811   8.167  19.402  0.00  0.00    +0.000 N 
ATOM     10  N   UNL     1       2.707   6.161  18.689  0.00  0.00    +0.000 N 
ATOM     11  H   UNL     1       2.087   8.516  18.498  0.00  0.00    +0.000 HD
ATOM     12  H   UNL     1       2.955   6.660  17.847  0.00  0.00    +0.000 HD
BRANCH  10  13
ATOM     13  C   UNL     1       2.918   4.754  18.664  0.00  0.00    +0.000 A 
ATOM     14  C   UNL     1       2.046   3.857  18.034  0.00  0.00    +0.000 A 
ATOM     15  C   UNL     1       2.345   2.495  17.969  0.00  0.00    +0.000 A 
ATOM     16  C   UNL     1       3.512   2.024  18.551  0.00  0.00    +0.000 A 
ATOM     17  F   UNL     1       3.802   0.720  18.473  0.00  0.00    +0.000 F 
ATOM     18  C   UNL     1       4.377   2.884  19.213  0.00  0.00    +0.000 A 
ATOM     19  C   UNL     1       4.067   4.241  19.272  0.00  0.00    +0.000 A 
ATOM     20  F   UNL     1       4.919   5.074  19.894  0.00  0.00    +0.000 F 
ENDBRANCH  10  13
ENDBRANCH   1   9
BRANCH   4  21
ATOM     21  N   UNL     1      -1.081  11.780  22.650  0.00  0.00    +0.000 N 
ATOM     22  C   UNL     1      -0.700  13.103  22.853  0.00  0.00    +0.000 C 
ATOM     23  O   UNL     1       0.300  13.634  22.379  0.00  0.00    +0.000 OA
ATOM     24  H   UNL     1      -1.998  11.532  23.004  0.00  0.00    +0.000 HD
BRANCH  22  25
ATOM     25  C   UNL     1      -1.634  13.868  23.656  0.00  0.00    +0.000 A 
ATOM     26  C   UNL     1      -1.501  15.117  24.222  0.00  0.00    +0.000 A 
ATOM     27  C   UNL     1      -2.721  15.395  24.880  0.00  0.00    +0.000 A 
ATOM     28  C   UNL     1      -3.520  14.298  24.679  0.00  0.00    +0.000 A 
ATOM     29  O   UNL     1      -2.874  13.359  23.936  0.00  0.00    +0.000 OA
ENDBRANCH  22  25
ENDBRANCH   4  21
TORSDOF 4
ENDMDL
MODEL 5
REMARK VINA RESULT:      -7.4      2.029      2.430
REMARK  Name = 
REMARK  4 active torsions:
REMARK  status: ('A' for Active; 'I' for Inactive)
REMARK    1  A    between atoms: N_3  and  C_4
REMARK    2  A    between atoms: C_7  and  N_8
REMARK    3  A    between atoms: C_9  and  C_11
REMARK    4  A    between atoms: N_18  and  C_19
REMARK                            x       y       z     vdW  Elec       q    Type
REMARK                         _______ _______ _______ _____ _____    ______ ____
ROOT
ATOM      1  C   UNL     1       0.684  10.046  21.693  0.00  0.00    +0.000 A 
ATOM      2  C   UNL     1      -0.111   9.859  22.824  0.00  0.00    +0.000 A 
ATOM      3  C   UNL     1      -0.983  10.848  23.269  0.00  0.00    +0.000 A 
ATOM      4  C   UNL     1      -1.071  12.068  22.609  0.00  0.00    +0.000 A 
ATOM      5  C   UNL     1      -0.306  12.259  21.453  0.00  0.00    +0.000 A 
ATOM      6  C   UNL     1       0.587  11.262  21.011  0.00  0.00    +0.000 A 
ENDROOT
BRANCH   1   9
ATOM      7  O   UNL     1       0.077   7.300  21.164  0.00  0.00    +0.000 OA
ATOM      8  C   UNL     1       1.216   7.729  21.010  0.00  0.00    +0.000 C 
ATOM      9  N   UNL     1       1.576   9.050  21.220  0.00  0.00    +0.000 N 
ATOM     10  N   UNL     1       2.258   6.946  20.551  0.00  0.00    +0.000 N 
ATOM     11  H   UNL     1       2.459   9.363  20.849  0.00  0.00    +0.000 HD
ATOM     12  H   UNL     1       3.112   7.402  20.260  0.00  0.00    +0.000 HD
BRANCH  10  13
ATOM     13  C   UNL     1       2.121   5.581  20.176  0.00  0.00    +0.000 A 
ATOM     14  C   UNL     1       2.036   4.534  21.102  0.00  0.00    +0.000 A 
ATOM     15  C   UNL     1       1.819   3.221  20.680  0.00  0.00    +0.000 A 
ATOM     16  C   UNL     1       1.705   2.950  19.324  0.00  0.00    +0.000 A 
ATOM     17  F   UNL     1       1.482   1.692  18.925  0.00  0.00    +0.000 F 
ATOM     18  C   UNL     1       1.820   3.962  18.382  0.00  0.00    +0.000 A 
ATOM     19  C   UNL     1       2.038   5.268  18.815  0.00  0.00    +0.000 A 
ATOM     20  F   UNL     1       2.126   6.249  17.901  0.00  0.00    +0.000 F 
ENDBRANCH  10  13
ENDBRANCH   1   9
BRANCH   4  21
ATOM     21  N   UNL     1      -1.887  13.115  23.079  0.00  0.00    +0.000 N 
ATOM     22  C   UNL     1      -3.275  13.166  22.986  0.00  0.00    +0.000 C 
ATOM     23  O   UNL     1      -3.984  12.303  22.476  0.00  0.00    +0.000 OA
ATOM     24  H   UNL     1      -1.461  13.843  23.640  0.00  0.00    +0.000 HD
BRANCH  22  25
ATOM     25  C   UNL     1      -3.862  14.337  23.605  0.00  0.00    +0.000 A 
ATOM     26  C   UNL     1      -3.344  15.193  24.553  0.00  0.00    +0.000 A 
ATOM     27  C   UNL     1      -4.328  16.181  24.786  0.00  0.00    +0.000 A 
ATOM     28  C   UNL     1      -5.386  15.865  23.971  0.00  0.00    +0.000 A 
ATOM     29  O   UNL     1      -5.119  14.746  23.245  0.00  0.00    +0.000 OA
ENDBRANCH  22  25
ENDBRANCH   4  21
TORSDOF 4
ENDMDL
MODEL 6
REMARK VINA RESULT:      -7.4      0.940      1.630
REMARK  Name = 
REMARK  4 active torsions:
REMARK  status: ('A' for Active; 'I' for Inactive)
REMARK    1  A    between atoms: N_3  and  C_4
REMARK    2  A    between atoms: C_7  and  N_8
REMARK    3  A    between atoms: C_9  and  C_11
REMARK    4  A    between atoms: N_18  and  C_19
REMARK                            x       y       z     vdW  Elec       q    Type
REMARK                         _______ _______ _______ _____ _____    ______ ____
ROOT
ATOM      1  C   UNL     1       1.222   9.035  19.997  0.00  0.00    +0.000 A 
ATOM      2  C   UNL     1       0.442  10.042  19.427  0.00  0.00    +0.000 A 
ATOM      3  C   UNL     1      -0.293  10.922  20.216  0.00  0.00    +0.000 A 
ATOM      4  C   UNL     1      -0.289  10.811  21.601  0.00  0.00    +0.000 A 
ATOM      5  C   UNL     1       0.516   9.828  22.189  0.00  0.00    +0.000 A 
ATOM      6  C   UNL     1       1.248   8.928  21.389  0.00  0.00    +0.000 A 
ENDROOT
BRANCH   1   9
ATOM      7  O   UNL     1       1.475   6.212  20.387  0.00  0.00    +0.000 OA
ATOM      8  C   UNL     1       2.077   6.773  19.476  0.00  0.00    +0.000 C 
ATOM      9  N   UNL     1       1.982   8.129  19.212  0.00  0.00    +0.000 N 
ATOM     10  N   UNL     1       2.878   6.098  18.575  0.00  0.00    +0.000 N 
ATOM     11  H   UNL     1       2.314   8.461  18.321  0.00  0.00    +0.000 HD
ATOM     12  H   UNL     1       3.181   6.581  17.742  0.00  0.00    +0.000 HD
BRANCH  10  13
ATOM     13  C   UNL     1       3.063   4.687  18.579  0.00  0.00    +0.000 A 
ATOM     14  C   UNL     1       2.179   3.794  17.960  0.00  0.00    +0.000 A 
ATOM     15  C   UNL     1       2.454   2.426  17.924  0.00  0.00    +0.000 A 
ATOM     16  C   UNL     1       3.608   1.945  18.524  0.00  0.00    +0.000 A 
ATOM     17  F   UNL     1       3.875   0.634  18.474  0.00  0.00    +0.000 F 
ATOM     18  C   UNL     1       4.484   2.802  19.175  0.00  0.00    +0.000 A 
ATOM     19  C   UNL     1       4.199   4.166  19.206  0.00  0.00    +0.000 A 
ATOM     20  F   UNL     1       5.060   4.995  19.817  0.00  0.00    +0.000 F 
ENDBRANCH  10  13
ENDBRANCH   1   9
BRANCH   4  21
ATOM     21  N   UNL     1      -1.080  11.638  22.420  0.00  0.00    +0.000 N 
ATOM     22  C   UNL     1      -0.774  12.944  22.791  0.00  0.00    +0.000 C 
ATOM     23  O   UNL     1       0.235  13.558  22.456  0.00  0.00    +0.000 OA
ATOM     24  H   UNL     1      -2.009  11.319  22.672  0.00  0.00    +0.000 HD
BRANCH  22  25
ATOM     25  C   UNL     1      -1.797  13.582  23.595  0.00  0.00    +0.000 A 
ATOM     26  C   UNL     1      -3.138  13.288  23.720  0.00  0.00    +0.000 A 
ATOM     27  C   UNL     1      -3.668  14.207  24.654  0.00  0.00    +0.000 A 
ATOM     28  C   UNL     1      -2.621  15.007  25.038  0.00  0.00    +0.000 A 
ATOM     29  O   UNL     1      -1.475  14.640  24.403  0.00  0.00    +0.000 OA
ENDBRANCH  22  25
ENDBRANCH   4  21
TORSDOF 4
ENDMDL
MODEL 7
REMARK VINA RESULT:      -7.4      1.559      1.764
REMARK  Name = 
REMARK  4 active torsions:
REMARK  status: ('A' for Active; 'I' for Inactive)
REMARK    1  A    between atoms: N_3  and  C_4
REMARK    2  A    between atoms: C_7  and  N_8
REMARK    3  A    between atoms: C_9  and  C_11
REMARK    4  A    between atoms: N_18  and  C_19
REMARK                            x       y       z     vdW  Elec       q    Type
REMARK                         _______ _______ _______ _____ _____    ______ ____
ROOT
ATOM      1  C   UNL     1       0.949   9.170  21.547  0.00  0.00    +0.000 A 
ATOM      2  C   UNL     1       0.466   9.158  22.855  0.00  0.00    +0.000 A 
ATOM      3  C   UNL     1      -0.536  10.033  23.266  0.00  0.00    +0.000 A 
ATOM      4  C   UNL     1      -1.072  10.965  22.386  0.00  0.00    +0.000 A 
ATOM      5  C   UNL     1      -0.622  10.967  21.060  0.00  0.00    +0.000 A 
ATOM      6  C   UNL     1       0.402  10.091  20.649  0.00  0.00    +0.000 A 
ENDROOT
BRANCH   1   9
ATOM      7  O   UNL     1       0.607   6.507  20.559  0.00  0.00    +0.000 OA
ATOM      8  C   UNL     1       1.727   6.996  20.662  0.00  0.00    +0.000 C 
ATOM      9  N   UNL     1       1.967   8.285  21.106  0.00  0.00    +0.000 N 
ATOM     10  N   UNL     1       2.877   6.326  20.289  0.00  0.00    +0.000 N 
ATOM     11  H   UNL     1       2.878   8.681  20.939  0.00  0.00    +0.000 HD
ATOM     12  H   UNL     1       3.738   6.850  20.213  0.00  0.00    +0.000 HD
BRANCH  10  13
ATOM     13  C   UNL     1       2.888   5.024  19.717  0.00  0.00    +0.000 A 
ATOM     14  C   UNL     1       3.130   4.783  18.359  0.00  0.00    +0.000 A 
ATOM     15  C   UNL     1       3.211   3.479  17.867  0.00  0.00    +0.000 A 
ATOM     16  C   UNL     1       3.032   2.410  18.733  0.00  0.00    +0.000 A 
ATOM     17  F   UNL     1       3.124   1.161  18.260  0.00  0.00    +0.000 F 
ATOM     18  C   UNL     1       2.755   2.619  20.076  0.00  0.00    +0.000 A 
ATOM     19  C   UNL     1       2.676   3.925  20.556  0.00  0.00    +0.000 A 
ATOM     20  F   UNL     1       2.431   4.123  21.862  0.00  0.00    +0.000 F 
ENDBRANCH  10  13
ENDBRANCH   1   9
BRANCH   4  21
ATOM     21  N   UNL     1      -2.031  11.911  22.792  0.00  0.00    +0.000 N 
ATOM     22  C   UNL     1      -1.757  13.172  23.315  0.00  0.00    +0.000 C 
ATOM     23  O   UNL     1      -0.635  13.635  23.498  0.00  0.00    +0.000 OA
ATOM     24  H   UNL     1      -3.006  11.729  22.584  0.00  0.00    +0.000 HD
BRANCH  22  25
ATOM     25  C   UNL     1      -2.939  13.962  23.594  0.00  0.00    +0.000 A 
ATOM     26  C   UNL     1      -4.261  13.720  23.288  0.00  0.00    +0.000 A 
ATOM     27  C   UNL     1      -5.003  14.802  23.815  0.00  0.00    +0.000 A 
ATOM     28  C   UNL     1      -4.089  15.639  24.405  0.00  0.00    +0.000 A 
ATOM     29  O   UNL     1      -2.828  15.143  24.280  0.00  0.00    +0.000 OA
ENDBRANCH  22  25
ENDBRANCH   4  21
TORSDOF 4
ENDMDL
MODEL 8
REMARK VINA RESULT:      -7.3      1.603      1.883
REMARK  Name = 
REMARK  4 active torsions:
REMARK  status: ('A' for Active; 'I' for Inactive)
REMARK    1  A    between atoms: N_3  and  C_4
REMARK    2  A    between atoms: C_7  and  N_8
REMARK    3  A    between atoms: C_9  and  C_11
REMARK    4  A    between atoms: N_18  and  C_19
REMARK                            x       y       z     vdW  Elec       q    Type
REMARK                         _______ _______ _______ _____ _____    ______ ____
ROOT
ATOM      1  C   UNL     1       0.709   9.514  21.689  0.00  0.00    +0.000 A 
ATOM      2  C   UNL     1       0.126   9.446  22.955  0.00  0.00    +0.000 A 
ATOM      3  C   UNL     1      -0.837  10.366  23.359  0.00  0.00    +0.000 A 
ATOM      4  C   UNL     1      -1.233  11.398  22.518  0.00  0.00    +0.000 A 
ATOM      5  C   UNL     1      -0.683  11.459  21.232  0.00  0.00    +0.000 A 
ATOM      6  C   UNL     1       0.302  10.536  20.829  0.00  0.00    +0.000 A 
ENDROOT
BRANCH   1   9
ATOM      7  O   UNL     1       0.262   6.844  20.760  0.00  0.00    +0.000 OA
ATOM      8  C   UNL     1       1.400   7.296  20.840  0.00  0.00    +0.000 C 
ATOM      9  N   UNL     1       1.690   8.585  21.255  0.00  0.00    +0.000 N 
ATOM     10  N   UNL     1       2.521   6.578  20.468  0.00  0.00    +0.000 N 
ATOM     11  H   UNL     1       2.612   8.945  21.069  0.00  0.00    +0.000 HD
ATOM     12  H   UNL     1       3.399   7.070  20.372  0.00  0.00    +0.000 HD
BRANCH  10  13
ATOM     13  C   UNL     1       2.480   5.265  19.923  0.00  0.00    +0.000 A 
ATOM     14  C   UNL     1       2.497   4.106  20.709  0.00  0.00    +0.000 A 
ATOM     15  C   UNL     1       2.371   2.844  20.124  0.00  0.00    +0.000 A 
ATOM     16  C   UNL     1       2.244   2.739  18.747  0.00  0.00    +0.000 A 
ATOM     17  F   UNL     1       2.109   1.529  18.192  0.00  0.00    +0.000 F 
ATOM     18  C   UNL     1       2.259   3.868  17.941  0.00  0.00    +0.000 A 
ATOM     19  C   UNL     1       2.387   5.122  18.535  0.00  0.00    +0.000 A 
ATOM     20  F   UNL     1       2.378   6.215  17.754  0.00  0.00    +0.000 F 
ENDBRANCH  10  13
ENDBRANCH   1   9
BRANCH   4  21
ATOM     21  N   UNL     1      -2.148  12.386  22.927  0.00  0.00    +0.000 N 
ATOM     22  C   UNL     1      -1.817  13.634  23.446  0.00  0.00    +0.000 C 
ATOM     23  O   UNL     1      -0.675  14.048  23.624  0.00  0.00    +0.000 OA
ATOM     24  H   UNL     1      -3.131  12.246  22.723  0.00  0.00    +0.000 HD
BRANCH  22  25
ATOM     25  C   UNL     1      -2.963  14.476  23.729  0.00  0.00    +0.000 A 
ATOM     26  C   UNL     1      -3.202  15.319  24.793  0.00  0.00    +0.000 A 
ATOM     27  C   UNL     1      -4.462  15.916  24.560  0.00  0.00    +0.000 A 
ATOM     28  C   UNL     1      -4.915  15.398  23.373  0.00  0.00    +0.000 A 
ATOM     29  O   UNL     1      -4.015  14.520  22.854  0.00  0.00    +0.000 OA
ENDBRANCH  22  25
ENDBRANCH   4  21
TORSDOF 4
ENDMDL
MODEL 9
REMARK VINA RESULT:      -7.3      1.987      2.292
REMARK  Name = 
REMARK  4 active torsions:
REMARK  status: ('A' for Active; 'I' for Inactive)
REMARK    1  A    between atoms: N_3  and  C_4
REMARK    2  A    between atoms: C_7  and  N_8
REMARK    3  A    between atoms: C_9  and  C_11
REMARK    4  A    between atoms: N_18  and  C_19
REMARK                            x       y       z     vdW  Elec       q    Type
REMARK                         _______ _______ _______ _____ _____    ______ ____
ROOT
ATOM      1  C   UNL     1       0.626   8.765  21.384  0.00  0.00    +0.000 A 
ATOM      2  C   UNL     1       0.189   9.536  20.307  0.00  0.00    +0.000 A 
ATOM      3  C   UNL     1      -0.488  10.736  20.501  0.00  0.00    +0.000 A 
ATOM      4  C   UNL     1      -0.771  11.194  21.782  0.00  0.00    +0.000 A 
ATOM      5  C   UNL     1      -0.309  10.450  22.874  0.00  0.00    +0.000 A 
ATOM      6  C   UNL     1       0.364   9.228  22.676  0.00  0.00    +0.000 A 
ENDROOT
BRANCH   1   9
ATOM      7  O   UNL     1       2.227   8.000  19.139  0.00  0.00    +0.000 OA
ATOM      8  C   UNL     1       2.060   7.229  20.079  0.00  0.00    +0.000 C 
ATOM      9  N   UNL     1       1.321   7.541  21.208  0.00  0.00    +0.000 N 
ATOM     10  N   UNL     1       2.642   5.977  20.137  0.00  0.00    +0.000 N 
ATOM     11  H   UNL     1       1.429   6.954  22.020  0.00  0.00    +0.000 HD
ATOM     12  H   UNL     1       2.627   5.478  21.016  0.00  0.00    +0.000 HD
BRANCH  10  13
ATOM     13  C   UNL     1       3.519   5.462  19.143  0.00  0.00    +0.000 A 
ATOM     14  C   UNL     1       4.915   5.502  19.254  0.00  0.00    +0.000 A 
ATOM     15  C   UNL     1       5.727   4.907  18.287  0.00  0.00    +0.000 A 
ATOM     16  C   UNL     1       5.142   4.284  17.193  0.00  0.00    +0.000 A 
ATOM     17  F   UNL     1       5.923   3.703  16.276  0.00  0.00    +0.000 F 
ATOM     18  C   UNL     1       3.763   4.261  17.039  0.00  0.00    +0.000 A 
ATOM     19  C   UNL     1       2.963   4.859  18.011  0.00  0.00    +0.000 A 
ATOM     20  F   UNL     1       1.628   4.815  17.870  0.00  0.00    +0.000 F 
ENDBRANCH  10  13
ENDBRANCH   1   9
BRANCH   4  21
ATOM     21  N   UNL     1      -1.519  12.364  22.010  0.00  0.00    +0.000 N 
ATOM     22  C   UNL     1      -2.594  12.482  22.886  0.00  0.00    +0.000 C 
ATOM     23  O   UNL     1      -3.043  11.578  23.584  0.00  0.00    +0.000 OA
ATOM     24  H   UNL     1      -1.190  13.233  21.604  0.00  0.00    +0.000 HD
BRANCH  22  25
ATOM     25  C   UNL     1      -3.143  13.821  22.965  0.00  0.00    +0.000 A 
ATOM     26  C   UNL     1      -2.918  14.921  22.165  0.00  0.00    +0.000 A 
ATOM     27  C   UNL     1      -3.728  15.963  22.673  0.00  0.00    +0.000 A 
ATOM     28  C   UNL     1      -4.393  15.437  23.751  0.00  0.00    +0.000 A 
ATOM     29  O   UNL     1      -4.049  14.134  23.944  0.00  0.00    +0.000 OA
ENDBRANCH  22  25
ENDBRANCH   4  21
TORSDOF 4
ENDMDL
