MODEL 1
REMARK VINA RESULT:      -8.7      0.000      0.000
REMARK  Name = 
REMARK  11 active torsions:
REMARK  status: ('A' for Active; 'I' for Inactive)
REMARK    1  A    between atoms: C_1  and  C_2
REMARK    2  A    between atoms: C_7  and  C_8
REMARK    3  A    between atoms: C_11  and  C_12
REMARK    4  A    between atoms: C_13  and  C_14
REMARK    5  A    between atoms: C_13  and  C_15
REMARK    6  A    between atoms: C_15  and  C_16
REMARK    7  A    between atoms: C_21  and  N_22
REMARK    8  A    between atoms: N_22  and  CA_23
REMARK    9  A    between atoms: CA_23  and  CB_24
REMARK   10  A    between atoms: CA_23  and  C_25
REMARK   11  A    between atoms: C_25  and  OXT_27
REMARK                            x       y       z     vdW  Elec       q    Type
REMARK                         _______ _______ _______ _____ _____    ______ ____
ROOT
ATOM      1  C   UNK A   0       1.810   7.817  19.236  0.00  0.00    +0.000 C 
ATOM      2  C   UNK A   0       1.624   7.865  20.553  0.00  0.00    +0.000 C 
ATOM      3  C   UNK A   0       1.168   9.096  21.220  0.00  0.00    +0.000 C 
ATOM      4  O   UNK A   0       1.002   9.127  22.430  0.00  0.00    +0.000 OA
ATOM      5  C   UNK A   0       0.849  10.263  20.385  0.00  0.00    +0.000 C 
ATOM      6  C   UNK A   0       1.118  10.310  19.077  0.00  0.00    +0.000 C 
ATOM      7  C   UNK A   0       1.725   9.095  18.432  0.00  0.00    +0.000 C 
ATOM      8  O   UNK A   0       2.070   9.166  17.254  0.00  0.00    +0.000 OA
ENDROOT
BRANCH   6   9
ATOM      9  N   ALA A   1       0.937  11.433  18.259  0.00  0.00    +0.000 N 
ATOM     10  H   ALA A   1       0.088  11.311  17.693  0.00  0.00    +0.000 HD
BRANCH   9  11
ATOM     11  CA  ALA A   1       1.091  12.826  18.748  0.00  0.00    +0.000 C 
ATOM     12  CB  ALA A   1       2.351  13.458  18.170  0.00  0.00    +0.000 C 
BRANCH  11  13
ATOM     13  C   ALA A   1      -0.147  13.676  18.381  0.00  0.00    +0.000 C 
ATOM     14  O   ALA A   1      -0.382  14.813  18.773  0.00  0.00    +0.000 OA
BRANCH  13  15
ATOM     15  OXT ALA A   1      -1.019  13.000  17.576  0.00  0.00    +0.000 OA
ATOM     16  HXT ALA A   1      -0.735  12.944  16.641  0.00  0.00    +0.000 HD
ENDBRANCH  13  15
ENDBRANCH  11  13
ENDBRANCH   9  11
ENDBRANCH   6   9
BRANCH   1  17
ATOM     17  C   UNK A   0       1.979   6.561  18.425  0.00  0.00    +0.000 C 
BRANCH  17  30
ATOM     18  C   UNK A   0       7.393   5.426  19.445  0.00  0.00    +0.000 C 
ATOM     19  C   UNK A   0       6.872   5.206  18.037  0.00  0.00    +0.000 C 
ATOM     20  C   UNK A   0       7.140   6.180  17.128  0.00  0.00    +0.000 C 
ATOM     21  C   UNK A   0       6.230   7.397  17.214  0.00  0.00    +0.000 C 
ATOM     22  C   UNK A   0       4.737   6.986  17.208  0.00  0.00    +0.000 C 
ATOM     23  C   UNK A   0       4.493   5.795  18.165  0.00  0.00    +0.000 C 
ATOM     24  C   UNK A   0       5.460   4.550  17.917  0.00  0.00    +0.000 C 
ATOM     25  C   UNK A   0       5.388   3.916  16.491  0.00  0.00    +0.000 C 
ATOM     26  C   UNK A   0       5.223   3.356  18.923  0.00  0.00    +0.000 C 
ATOM     27  C   UNK A   0       3.921   3.328  19.755  0.00  0.00    +0.000 C 
ATOM     28  C   UNK A   0       3.271   4.710  19.948  0.00  0.00    +0.000 C 
ATOM     29  C   UNK A   0       2.153   4.689  20.991  0.00  0.00    +0.000 C 
ATOM     30  C   UNK A   0       3.027   5.395  18.539  0.00  0.00    +0.000 C 
ATOM     31  C   UNK A   0       2.429   4.395  17.493  0.00  0.00    +0.000 C 
ENDBRANCH  17  30
ENDBRANCH   1  17
TORSDOF 6
ENDMDL
MODEL 2
REMARK VINA RESULT:      -8.5      0.986      1.209
REMARK  Name = 
REMARK  11 active torsions:
REMARK  status: ('A' for Active; 'I' for Inactive)
REMARK    1  A    between atoms: C_1  and  C_2
REMARK    2  A    between atoms: C_7  and  C_8
REMARK    3  A    between atoms: C_11  and  C_12
REMARK    4  A    between atoms: C_13  and  C_14
REMARK    5  A    between atoms: C_13  and  C_15
REMARK    6  A    between atoms: C_15  and  C_16
REMARK    7  A    between atoms: C_21  and  N_22
REMARK    8  A    between atoms: N_22  and  CA_23
REMARK    9  A    between atoms: CA_23  and  CB_24
REMARK   10  A    between atoms: CA_23  and  C_25
REMARK   11  A    between atoms: C_25  and  OXT_27
REMARK                            x       y       z     vdW  Elec       q    Type
REMARK                         _______ _______ _______ _____ _____    ______ ____
ROOT
ATOM      1  C   UNK A   0       1.738   7.885  19.407  0.00  0.00    +0.000 C 
ATOM      2  C   UNK A   0       1.721   7.935  20.736  0.00  0.00    +0.000 C 
ATOM      3  C   UNK A   0       1.333   9.160  21.454  0.00  0.00    +0.000 C 
ATOM      4  O   UNK A   0       1.324   9.193  22.676  0.00  0.00    +0.000 OA
ATOM      5  C   UNK A   0       0.890  10.318  20.665  0.00  0.00    +0.000 C 
ATOM      6  C   UNK A   0       0.987  10.365  19.334  0.00  0.00    +0.000 C 
ATOM      7  C   UNK A   0       1.528   9.158  18.618  0.00  0.00    +0.000 C 
ATOM      8  O   UNK A   0       1.717   9.230  17.405  0.00  0.00    +0.000 OA
ENDROOT
BRANCH   6   9
ATOM      9  N   ALA A   1       0.683  11.481  18.543  0.00  0.00    +0.000 N 
ATOM     10  H   ALA A   1       0.872  11.265  17.557  0.00  0.00    +0.000 HD
BRANCH   9  11
ATOM     11  CA  ALA A   1      -0.554  12.283  18.715  0.00  0.00    +0.000 C 
ATOM     12  CB  ALA A   1      -0.346  13.701  18.196  0.00  0.00    +0.000 C 
BRANCH  11  13
ATOM     13  C   ALA A   1      -1.744  11.620  17.985  0.00  0.00    +0.000 C 
ATOM     14  O   ALA A   1      -2.448  10.719  18.426  0.00  0.00    +0.000 OA
BRANCH  13  15
ATOM     15  OXT ALA A   1      -1.924  12.120  16.727  0.00  0.00    +0.000 OA
ATOM     16  HXT ALA A   1      -2.701  11.753  16.260  0.00  0.00    +0.000 HD
ENDBRANCH  13  15
ENDBRANCH  11  13
ENDBRANCH   9  11
ENDBRANCH   6   9
BRANCH   1  17
ATOM     17  C   UNK A   0       1.823   6.629  18.582  0.00  0.00    +0.000 C 
BRANCH  17  30
ATOM     18  C   UNK A   0       7.242   5.323  19.338  0.00  0.00    +0.000 C 
ATOM     19  C   UNK A   0       6.651   5.138  17.953  0.00  0.00    +0.000 C 
ATOM     20  C   UNK A   0       6.906   6.117  17.045  0.00  0.00    +0.000 C 
ATOM     21  C   UNK A   0       6.037   7.358  17.189  0.00  0.00    +0.000 C 
ATOM     22  C   UNK A   0       4.534   6.991  17.246  0.00  0.00    +0.000 C 
ATOM     23  C   UNK A   0       4.298   5.794  18.198  0.00  0.00    +0.000 C 
ATOM     24  C   UNK A   0       5.216   4.525  17.889  0.00  0.00    +0.000 C 
ATOM     25  C   UNK A   0       5.061   3.913  16.460  0.00  0.00    +0.000 C 
ATOM     26  C   UNK A   0       4.991   3.324  18.890  0.00  0.00    +0.000 C 
ATOM     27  C   UNK A   0       3.727   3.322  19.781  0.00  0.00    +0.000 C 
ATOM     28  C   UNK A   0       3.127   4.720  20.021  0.00  0.00    +0.000 C 
ATOM     29  C   UNK A   0       2.058   4.716  21.114  0.00  0.00    +0.000 C 
ATOM     30  C   UNK A   0       2.840   5.431  18.633  0.00  0.00    +0.000 C 
ATOM     31  C   UNK A   0       2.166   4.463  17.603  0.00  0.00    +0.000 C 
ENDBRANCH  17  30
ENDBRANCH   1  17
TORSDOF 6
ENDMDL
MODEL 3
REMARK VINA RESULT:      -8.2      0.946      1.271
REMARK  Name = 
REMARK  11 active torsions:
REMARK  status: ('A' for Active; 'I' for Inactive)
REMARK    1  A    between atoms: C_1  and  C_2
REMARK    2  A    between atoms: C_7  and  C_8
REMARK    3  A    between atoms: C_11  and  C_12
REMARK    4  A    between atoms: C_13  and  C_14
REMARK    5  A    between atoms: C_13  and  C_15
REMARK    6  A    between atoms: C_15  and  C_16
REMARK    7  A    between atoms: C_21  and  N_22
REMARK    8  A    between atoms: N_22  and  CA_23
REMARK    9  A    between atoms: CA_23  and  CB_24
REMARK   10  A    between atoms: CA_23  and  C_25
REMARK   11  A    between atoms: C_25  and  OXT_27
REMARK                            x       y       z     vdW  Elec       q    Type
REMARK                         _______ _______ _______ _____ _____    ______ ____
ROOT
ATOM      1  C   UNK A   0       1.731   7.935  19.358  0.00  0.00    +0.000 C 
ATOM      2  C   UNK A   0       1.714   7.994  20.687  0.00  0.00    +0.000 C 
ATOM      3  C   UNK A   0       1.299   9.216  21.396  0.00  0.00    +0.000 C 
ATOM      4  O   UNK A   0       1.289   9.258  22.617  0.00  0.00    +0.000 OA
ATOM      5  C   UNK A   0       0.830  10.358  20.599  0.00  0.00    +0.000 C 
ATOM      6  C   UNK A   0       0.926  10.397  19.267  0.00  0.00    +0.000 C 
ATOM      7  C   UNK A   0       1.493   9.197  18.560  0.00  0.00    +0.000 C 
ATOM      8  O   UNK A   0       1.680   9.264  17.346  0.00  0.00    +0.000 OA
ENDROOT
BRANCH   6   9
ATOM      9  N   ALA A   1       0.597  11.501  18.468  0.00  0.00    +0.000 N 
ATOM     10  H   ALA A   1       1.211  11.523  17.645  0.00  0.00    +0.000 HD
BRANCH   9  11
ATOM     11  CA  ALA A   1      -0.801  11.874  18.136  0.00  0.00    +0.000 C 
ATOM     12  CB  ALA A   1      -1.670  10.629  18.012  0.00  0.00    +0.000 C 
BRANCH  11  13
ATOM     13  C   ALA A   1      -1.384  12.824  19.207  0.00  0.00    +0.000 C 
ATOM     14  O   ALA A   1      -2.126  12.504  20.128  0.00  0.00    +0.000 OA
BRANCH  13  15
ATOM     15  OXT ALA A   1      -1.015  14.124  19.001  0.00  0.00    +0.000 OA
ATOM     16  HXT ALA A   1      -1.596  14.776  19.441  0.00  0.00    +0.000 HD
ENDBRANCH  13  15
ENDBRANCH  11  13
ENDBRANCH   9  11
ENDBRANCH   6   9
BRANCH   1  17
ATOM     17  C   UNK A   0       1.843   6.675  18.543  0.00  0.00    +0.000 C 
BRANCH  17  30
ATOM     18  C   UNK A   0       7.251   5.409  19.433  0.00  0.00    +0.000 C 
ATOM     19  C   UNK A   0       6.694   5.213  18.035  0.00  0.00    +0.000 C 
ATOM     20  C   UNK A   0       6.964   6.189  17.128  0.00  0.00    +0.000 C 
ATOM     21  C   UNK A   0       6.084   7.425  17.245  0.00  0.00    +0.000 C 
ATOM     22  C   UNK A   0       4.582   7.048  17.269  0.00  0.00    +0.000 C 
ATOM     23  C   UNK A   0       4.332   5.854  18.221  0.00  0.00    +0.000 C 
ATOM     24  C   UNK A   0       5.266   4.591  17.941  0.00  0.00    +0.000 C 
ATOM     25  C   UNK A   0       5.148   3.970  16.512  0.00  0.00    +0.000 C 
ATOM     26  C   UNK A   0       5.024   3.393  18.943  0.00  0.00    +0.000 C 
ATOM     27  C   UNK A   0       3.741   3.387  19.803  0.00  0.00    +0.000 C 
ATOM     28  C   UNK A   0       3.126   4.782  20.022  0.00  0.00    +0.000 C 
ATOM     29  C   UNK A   0       2.031   4.776  21.089  0.00  0.00    +0.000 C 
ATOM     30  C   UNK A   0       2.867   5.485  18.624  0.00  0.00    +0.000 C 
ATOM     31  C   UNK A   0       2.224   4.507  17.584  0.00  0.00    +0.000 C 
ENDBRANCH  17  30
ENDBRANCH   1  17
TORSDOF 6
ENDMDL
MODEL 4
REMARK VINA RESULT:      -8.1      1.069      1.246
REMARK  Name = 
REMARK  11 active torsions:
REMARK  status: ('A' for Active; 'I' for Inactive)
REMARK    1  A    between atoms: C_1  and  C_2
REMARK    2  A    between atoms: C_7  and  C_8
REMARK    3  A    between atoms: C_11  and  C_12
REMARK    4  A    between atoms: C_13  and  C_14
REMARK    5  A    between atoms: C_13  and  C_15
REMARK    6  A    between atoms: C_15  and  C_16
REMARK    7  A    between atoms: C_21  and  N_22
REMARK    8  A    between atoms: N_22  and  CA_23
REMARK    9  A    between atoms: CA_23  and  CB_24
REMARK   10  A    between atoms: CA_23  and  C_25
REMARK   11  A    between atoms: C_25  and  OXT_27
REMARK                            x       y       z     vdW  Elec       q    Type
REMARK                         _______ _______ _______ _____ _____    ______ ____
ROOT
ATOM      1  C   UNK A   0       1.754   8.020  19.257  0.00  0.00    +0.000 C 
ATOM      2  C   UNK A   0       1.786   8.061  20.586  0.00  0.00    +0.000 C 
ATOM      3  C   UNK A   0       1.292   9.231  21.331  0.00  0.00    +0.000 C 
ATOM      4  O   UNK A   0       1.329   9.256  22.552  0.00  0.00    +0.000 OA
ATOM      5  C   UNK A   0       0.688  10.335  20.572  0.00  0.00    +0.000 C 
ATOM      6  C   UNK A   0       0.724  10.399  19.238  0.00  0.00    +0.000 C 
ATOM      7  C   UNK A   0       1.368   9.265  18.489  0.00  0.00    +0.000 C 
ATOM      8  O   UNK A   0       1.498   9.365  17.270  0.00  0.00    +0.000 OA
ENDROOT
BRANCH   6   9
ATOM      9  N   ALA A   1       0.263  11.478  18.472  0.00  0.00    +0.000 N 
ATOM     10  H   ALA A   1      -0.762  11.448  18.420  0.00  0.00    +0.000 HD
BRANCH   9  11
ATOM     11  CA  ALA A   1       0.778  12.862  18.627  0.00  0.00    +0.000 C 
ATOM     12  CB  ALA A   1       0.375  13.431  19.981  0.00  0.00    +0.000 C 
BRANCH  11  13
ATOM     13  C   ALA A   1       2.315  12.896  18.471  0.00  0.00    +0.000 C 
ATOM     14  O   ALA A   1       3.105  13.436  19.236  0.00  0.00    +0.000 OA
BRANCH  13  15
ATOM     15  OXT ALA A   1       2.733  12.277  17.327  0.00  0.00    +0.000 OA
ATOM     16  HXT ALA A   1       3.403  11.579  17.475  0.00  0.00    +0.000 HD
ENDBRANCH  13  15
ENDBRANCH  11  13
ENDBRANCH   9  11
ENDBRANCH   6   9
BRANCH   1  17
ATOM     17  C   UNK A   0       1.946   6.786  18.417  0.00  0.00    +0.000 C 
BRANCH  17  30
ATOM     18  C   UNK A   0       7.303   5.476  19.525  0.00  0.00    +0.000 C 
ATOM     19  C   UNK A   0       6.790   5.244  18.115  0.00  0.00    +0.000 C 
ATOM     20  C   UNK A   0       7.104   6.189  17.190  0.00  0.00    +0.000 C 
ATOM     21  C   UNK A   0       6.238   7.439  17.240  0.00  0.00    +0.000 C 
ATOM     22  C   UNK A   0       4.731   7.083  17.225  0.00  0.00    +0.000 C 
ATOM     23  C   UNK A   0       4.433   5.923  18.203  0.00  0.00    +0.000 C 
ATOM     24  C   UNK A   0       5.356   4.639  17.993  0.00  0.00    +0.000 C 
ATOM     25  C   UNK A   0       5.277   3.977  16.580  0.00  0.00    +0.000 C 
ATOM     26  C   UNK A   0       5.065   3.475  19.021  0.00  0.00    +0.000 C 
ATOM     27  C   UNK A   0       3.754   3.513  19.838  0.00  0.00    +0.000 C 
ATOM     28  C   UNK A   0       3.152   4.922  19.994  0.00  0.00    +0.000 C 
ATOM     29  C   UNK A   0       2.023   4.964  21.024  0.00  0.00    +0.000 C 
ATOM     30  C   UNK A   0       2.949   5.585  18.568  0.00  0.00    +0.000 C 
ATOM     31  C   UNK A   0       2.327   4.585  17.537  0.00  0.00    +0.000 C 
ENDBRANCH  17  30
ENDBRANCH   1  17
TORSDOF 6
ENDMDL
MODEL 5
REMARK VINA RESULT:      -7.4      0.941      1.194
REMARK  Name = 
REMARK  11 active torsions:
REMARK  status: ('A' for Active; 'I' for Inactive)
REMARK    1  A    between atoms: C_1  and  C_2
REMARK    2  A    between atoms: C_7  and  C_8
REMARK    3  A    between atoms: C_11  and  C_12
REMARK    4  A    between atoms: C_13  and  C_14
REMARK    5  A    between atoms: C_13  and  C_15
REMARK    6  A    between atoms: C_15  and  C_16
REMARK    7  A    between atoms: C_21  and  N_22
REMARK    8  A    between atoms: N_22  and  CA_23
REMARK    9  A    between atoms: CA_23  and  CB_24
REMARK   10  A    between atoms: CA_23  and  C_25
REMARK   11  A    between atoms: C_25  and  OXT_27
REMARK                            x       y       z     vdW  Elec       q    Type
REMARK                         _______ _______ _______ _____ _____    ______ ____
ROOT
ATOM      1  C   UNK A   0       1.788   7.908  19.230  0.00  0.00    +0.000 C 
ATOM      2  C   UNK A   0       1.606   7.957  20.547  0.00  0.00    +0.000 C 
ATOM      3  C   UNK A   0       1.158   9.191  21.215  0.00  0.00    +0.000 C 
ATOM      4  O   UNK A   0       0.997   9.224  22.425  0.00  0.00    +0.000 OA
ATOM      5  C   UNK A   0       0.843  10.359  20.380  0.00  0.00    +0.000 C 
ATOM      6  C   UNK A   0       1.108  10.404  19.071  0.00  0.00    +0.000 C 
ATOM      7  C   UNK A   0       1.707   9.185  18.425  0.00  0.00    +0.000 C 
ATOM      8  O   UNK A   0       2.048   9.254  17.245  0.00  0.00    +0.000 OA
ENDROOT
BRANCH   6   9
ATOM      9  N   ALA A   1       0.930  11.527  18.253  0.00  0.00    +0.000 N 
ATOM     10  H   ALA A   1       0.629  11.226  17.318  0.00  0.00    +0.000 HD
BRANCH   9  11
ATOM     11  CA  ALA A   1       0.225  12.755  18.701  0.00  0.00    +0.000 C 
ATOM     12  CB  ALA A   1      -1.184  12.418  19.172  0.00  0.00    +0.000 C 
BRANCH  11  13
ATOM     13  C   ALA A   1       1.011  13.455  19.833  0.00  0.00    +0.000 C 
ATOM     14  O   ALA A   1       2.215  13.683  19.840  0.00  0.00    +0.000 OA
BRANCH  13  15
ATOM     15  OXT ALA A   1       0.213  13.776  20.894  0.00  0.00    +0.000 OA
ATOM     16  HXT ALA A   1      -0.719  13.951  20.653  0.00  0.00    +0.000 HD
ENDBRANCH  13  15
ENDBRANCH  11  13
ENDBRANCH   9  11
ENDBRANCH   6   9
BRANCH   1  17
ATOM     17  C   UNK A   0       1.948   6.651  18.418  0.00  0.00    +0.000 C 
BRANCH  17  30
ATOM     18  C   UNK A   0       7.336   5.425  19.471  0.00  0.00    +0.000 C 
ATOM     19  C   UNK A   0       6.816   5.202  18.062  0.00  0.00    +0.000 C 
ATOM     20  C   UNK A   0       7.106   6.163  17.146  0.00  0.00    +0.000 C 
ATOM     21  C   UNK A   0       6.219   7.397  17.218  0.00  0.00    +0.000 C 
ATOM     22  C   UNK A   0       4.718   7.014  17.210  0.00  0.00    +0.000 C 
ATOM     23  C   UNK A   0       4.448   5.836  18.176  0.00  0.00    +0.000 C 
ATOM     24  C   UNK A   0       5.393   4.572  17.942  0.00  0.00    +0.000 C 
ATOM     25  C   UNK A   0       5.315   3.926  16.522  0.00  0.00    +0.000 C 
ATOM     26  C   UNK A   0       5.131   3.390  18.958  0.00  0.00    +0.000 C 
ATOM     27  C   UNK A   0       3.825   3.394  19.785  0.00  0.00    +0.000 C 
ATOM     28  C   UNK A   0       3.199   4.789  19.963  0.00  0.00    +0.000 C 
ATOM     29  C   UNK A   0       2.077   4.797  21.001  0.00  0.00    +0.000 C 
ATOM     30  C   UNK A   0       2.974   5.466  18.547  0.00  0.00    +0.000 C 
ATOM     31  C   UNK A   0       2.362   4.468  17.508  0.00  0.00    +0.000 C 
ENDBRANCH  17  30
ENDBRANCH   1  17
TORSDOF 6
ENDMDL
MODEL 6
REMARK VINA RESULT:      -7.3      3.182      8.428
REMARK  Name = 
REMARK  11 active torsions:
REMARK  status: ('A' for Active; 'I' for Inactive)
REMARK    1  A    between atoms: C_1  and  C_2
REMARK    2  A    between atoms: C_7  and  C_8
REMARK    3  A    between atoms: C_11  and  C_12
REMARK    4  A    between atoms: C_13  and  C_14
REMARK    5  A    between atoms: C_13  and  C_15
REMARK    6  A    between atoms: C_15  and  C_16
REMARK    7  A    between atoms: C_21  and  N_22
REMARK    8  A    between atoms: N_22  and  CA_23
REMARK    9  A    between atoms: CA_23  and  CB_24
REMARK   10  A    between atoms: CA_23  and  C_25
REMARK   11  A    between atoms: C_25  and  OXT_27
REMARK                            x       y       z     vdW  Elec       q    Type
REMARK                         _______ _______ _______ _____ _____    ______ ____
ROOT
ATOM      1  C   UNK A   0       2.141   7.839  18.656  0.00  0.00    +0.000 C 
ATOM      2  C   UNK A   0       3.024   8.002  17.674  0.00  0.00    +0.000 C 
ATOM      3  C   UNK A   0       4.136   7.057  17.475  0.00  0.00    +0.000 C 
ATOM      4  O   UNK A   0       4.941   7.219  16.571  0.00  0.00    +0.000 OA
ATOM      5  C   UNK A   0       4.209   5.876  18.348  0.00  0.00    +0.000 C 
ATOM      6  C   UNK A   0       3.420   5.715  19.414  0.00  0.00    +0.000 C 
ATOM      7  C   UNK A   0       2.382   6.767  19.695  0.00  0.00    +0.000 C 
ATOM      8  O   UNK A   0       1.722   6.679  20.729  0.00  0.00    +0.000 OA
ENDROOT
BRANCH   6   9
ATOM      9  N   ALA A   1       3.521   4.668  20.339  0.00  0.00    +0.000 N 
ATOM     10  H   ALA A   1       3.329   5.024  21.283  0.00  0.00    +0.000 HD
BRANCH   9  11
ATOM     11  CA  ALA A   1       2.925   3.327  20.113  0.00  0.00    +0.000 C 
ATOM     12  CB  ALA A   1       3.962   2.236  20.352  0.00  0.00    +0.000 C 
BRANCH  11  13
ATOM     13  C   ALA A   1       1.703   3.107  21.032  0.00  0.00    +0.000 C 
ATOM     14  O   ALA A   1       1.684   2.442  22.061  0.00  0.00    +0.000 OA
BRANCH  13  15
ATOM     15  OXT ALA A   1       0.578   3.716  20.551  0.00  0.00    +0.000 OA
ATOM     16  HXT ALA A   1       0.518   3.726  19.574  0.00  0.00    +0.000 HD
ENDBRANCH  13  15
ENDBRANCH  11  13
ENDBRANCH   9  11
ENDBRANCH   6   9
BRANCH   1  17
ATOM     17  C   UNK A   0       0.821   8.553  18.769  0.00  0.00    +0.000 C 
BRANCH  17  30
ATOM     18  C   UNK A   0      -3.417  11.911  20.317  0.00  0.00    +0.000 C 
ATOM     19  C   UNK A   0      -2.695  12.227  19.020  0.00  0.00    +0.000 C 
ATOM     20  C   UNK A   0      -3.298  11.821  17.872  0.00  0.00    +0.000 C 
ATOM     21  C   UNK A   0      -3.119  10.346  17.547  0.00  0.00    +0.000 C 
ATOM     22  C   UNK A   0      -1.627   9.934  17.601  0.00  0.00    +0.000 C 
ATOM     23  C   UNK A   0      -0.944  10.515  18.862  0.00  0.00    +0.000 C 
ATOM     24  C   UNK A   0      -1.140  12.088  19.043  0.00  0.00    +0.000 C 
ATOM     25  C   UNK A   0      -0.601  12.973  17.874  0.00  0.00    +0.000 C 
ATOM     26  C   UNK A   0      -0.468  12.661  20.353  0.00  0.00    +0.000 C 
ATOM     27  C   UNK A   0       0.574  11.796  21.097  0.00  0.00    +0.000 C 
ATOM     28  C   UNK A   0       0.436  10.285  20.835  0.00  0.00    +0.000 C 
ATOM     29  C   UNK A   0       1.290   9.447  21.786  0.00  0.00    +0.000 C 
ATOM     30  C   UNK A   0       0.475  10.000  19.275  0.00  0.00    +0.000 C 
ATOM     31  C   UNK A   0       1.603  10.813  18.556  0.00  0.00    +0.000 C 
ENDBRANCH  17  30
ENDBRANCH   1  17
TORSDOF 6
ENDMDL
MODEL 7
REMARK VINA RESULT:      -7.2      3.260      8.570
REMARK  Name = 
REMARK  11 active torsions:
REMARK  status: ('A' for Active; 'I' for Inactive)
REMARK    1  A    between atoms: C_1  and  C_2
REMARK    2  A    between atoms: C_7  and  C_8
REMARK    3  A    between atoms: C_11  and  C_12
REMARK    4  A    between atoms: C_13  and  C_14
REMARK    5  A    between atoms: C_13  and  C_15
REMARK    6  A    between atoms: C_15  and  C_16
REMARK    7  A    between atoms: C_21  and  N_22
REMARK    8  A    between atoms: N_22  and  CA_23
REMARK    9  A    between atoms: CA_23  and  CB_24
REMARK   10  A    between atoms: CA_23  and  C_25
REMARK   11  A    between atoms: C_25  and  OXT_27
REMARK                            x       y       z     vdW  Elec       q    Type
REMARK                         _______ _______ _______ _____ _____    ______ ____
ROOT
ATOM      1  C   UNK A   0       2.179   7.709  18.673  0.00  0.00    +0.000 C 
ATOM      2  C   UNK A   0       3.103   7.881  17.731  0.00  0.00    +0.000 C 
ATOM      3  C   UNK A   0       4.171   6.891  17.511  0.00  0.00    +0.000 C 
ATOM      4  O   UNK A   0       5.014   7.063  16.644  0.00  0.00    +0.000 OA
ATOM      5  C   UNK A   0       4.153   5.660  18.313  0.00  0.00    +0.000 C 
ATOM      6  C   UNK A   0       3.320   5.479  19.342  0.00  0.00    +0.000 C 
ATOM      7  C   UNK A   0       2.329   6.567  19.653  0.00  0.00    +0.000 C 
ATOM      8  O   UNK A   0       1.630   6.455  20.658  0.00  0.00    +0.000 OA
ENDROOT
BRANCH   6   9
ATOM      9  N   ALA A   1       3.335   4.376  20.205  0.00  0.00    +0.000 N 
ATOM     10  H   ALA A   1       3.070   4.677  21.151  0.00  0.00    +0.000 HD
BRANCH   9  11
ATOM     11  CA  ALA A   1       2.747   3.060  19.849  0.00  0.00    +0.000 C 
ATOM     12  CB  ALA A   1       1.556   3.243  18.917  0.00  0.00    +0.000 C 
BRANCH  11  13
ATOM     13  C   ALA A   1       3.804   2.148  19.187  0.00  0.00    +0.000 C 
ATOM     14  O   ALA A   1       3.589   1.296  18.333  0.00  0.00    +0.000 OA
BRANCH  13  15
ATOM     15  OXT ALA A   1       5.056   2.354  19.694  0.00  0.00    +0.000 OA
ATOM     16  HXT ALA A   1       5.500   1.539  20.003  0.00  0.00    +0.000 HD
ENDBRANCH  13  15
ENDBRANCH  11  13
ENDBRANCH   9  11
ENDBRANCH   6   9
BRANCH   1  17
ATOM     17  C   UNK A   0       0.895   8.485  18.787  0.00  0.00    +0.000 C 
BRANCH  17  30
ATOM     18  C   UNK A   0      -3.164  11.978  20.506  0.00  0.00    +0.000 C 
ATOM     19  C   UNK A   0      -2.490  12.268  19.178  0.00  0.00    +0.000 C 
ATOM     20  C   UNK A   0      -3.155  11.880  18.058  0.00  0.00    +0.000 C 
ATOM     21  C   UNK A   0      -3.036  10.398  17.731  0.00  0.00    +0.000 C 
ATOM     22  C   UNK A   0      -1.557   9.940  17.722  0.00  0.00    +0.000 C 
ATOM     23  C   UNK A   0      -0.801  10.502  18.950  0.00  0.00    +0.000 C 
ATOM     24  C   UNK A   0      -0.940  12.080  19.134  0.00  0.00    +0.000 C 
ATOM     25  C   UNK A   0      -0.425  12.946  17.939  0.00  0.00    +0.000 C 
ATOM     26  C   UNK A   0      -0.194  12.635  20.411  0.00  0.00    +0.000 C 
ATOM     27  C   UNK A   0       0.852  11.739  21.112  0.00  0.00    +0.000 C 
ATOM     28  C   UNK A   0       0.655  10.232  20.861  0.00  0.00    +0.000 C 
ATOM     29  C   UNK A   0       1.523   9.370  21.778  0.00  0.00    +0.000 C 
ATOM     30  C   UNK A   0       0.617   9.943  19.303  0.00  0.00    +0.000 C 
ATOM     31  C   UNK A   0       1.738  10.719  18.533  0.00  0.00    +0.000 C 
ENDBRANCH  17  30
ENDBRANCH   1  17
TORSDOF 6
ENDMDL
MODEL 8
REMARK VINA RESULT:      -7.2      3.240      8.374
REMARK  Name = 
REMARK  11 active torsions:
REMARK  status: ('A' for Active; 'I' for Inactive)
REMARK    1  A    between atoms: C_1  and  C_2
REMARK    2  A    between atoms: C_7  and  C_8
REMARK    3  A    between atoms: C_11  and  C_12
REMARK    4  A    between atoms: C_13  and  C_14
REMARK    5  A    between atoms: C_13  and  C_15
REMARK    6  A    between atoms: C_15  and  C_16
REMARK    7  A    between atoms: C_21  and  N_22
REMARK    8  A    between atoms: N_22  and  CA_23
REMARK    9  A    between atoms: CA_23  and  CB_24
REMARK   10  A    between atoms: CA_23  and  C_25
REMARK   11  A    between atoms: C_25  and  OXT_27
REMARK                            x       y       z     vdW  Elec       q    Type
REMARK                         _______ _______ _______ _____ _____    ______ ____
ROOT
ATOM      1  C   UNK A   0       1.747   7.808  19.713  0.00  0.00    +0.000 C 
ATOM      2  C   UNK A   0       2.324   8.343  18.640  0.00  0.00    +0.000 C 
ATOM      3  C   UNK A   0       3.153   7.534  17.731  0.00  0.00    +0.000 C 
ATOM      4  O   UNK A   0       3.679   8.038  16.750  0.00  0.00    +0.000 OA
ATOM      5  C   UNK A   0       3.273   6.093  17.995  0.00  0.00    +0.000 C 
ATOM      6  C   UNK A   0       2.809   5.522  19.110  0.00  0.00    +0.000 C 
ATOM      7  C   UNK A   0       2.091   6.389  20.107  0.00  0.00    +0.000 C 
ATOM      8  O   UNK A   0       1.753   5.893  21.180  0.00  0.00    +0.000 OA
ENDROOT
BRANCH   6   9
ATOM      9  N   ALA A   1       2.992   4.178  19.461  0.00  0.00    +0.000 N 
ATOM     10  H   ALA A   1       2.821   4.061  20.467  0.00  0.00    +0.000 HD
BRANCH   9  11
ATOM     11  CA  ALA A   1       2.450   3.050  18.664  0.00  0.00    +0.000 C 
ATOM     12  CB  ALA A   1       3.366   1.837  18.764  0.00  0.00    +0.000 C 
BRANCH  11  13
ATOM     13  C   ALA A   1       1.025   2.680  19.135  0.00  0.00    +0.000 C 
ATOM     14  O   ALA A   1       0.163   2.128  18.461  0.00  0.00    +0.000 OA
BRANCH  13  15
ATOM     15  OXT ALA A   1       0.785   3.080  20.419  0.00  0.00    +0.000 OA
ATOM     16  HXT ALA A   1       0.612   4.039  20.511  0.00  0.00    +0.000 HD
ENDBRANCH  13  15
ENDBRANCH  11  13
ENDBRANCH   9  11
ENDBRANCH   6   9
BRANCH   1  17
ATOM     17  C   UNK A   0       0.658   8.451  20.529  0.00  0.00    +0.000 C 
BRANCH  17  30
ATOM     18  C   UNK A   0      -3.544  11.994  19.333  0.00  0.00    +0.000 C 
ATOM     19  C   UNK A   0      -2.244  12.145  18.564  0.00  0.00    +0.000 C 
ATOM     20  C   UNK A   0      -2.206  11.605  17.318  0.00  0.00    +0.000 C 
ATOM     21  C   UNK A   0      -1.987  10.100  17.284  0.00  0.00    +0.000 C 
ATOM     22  C   UNK A   0      -0.760   9.690  18.137  0.00  0.00    +0.000 C 
ATOM     23  C   UNK A   0      -0.774  10.418  19.502  0.00  0.00    +0.000 C 
ATOM     24  C   UNK A   0      -0.930  12.002  19.394  0.00  0.00    +0.000 C 
ATOM     25  C   UNK A   0       0.186  12.735  18.583  0.00  0.00    +0.000 C 
ATOM     26  C   UNK A   0      -0.979  12.729  20.797  0.00  0.00    +0.000 C 
ATOM     27  C   UNK A   0      -0.520  11.956  22.054  0.00  0.00    +0.000 C 
ATOM     28  C   UNK A   0      -0.607  10.425  21.914  0.00  0.00    +0.000 C 
ATOM     29  C   UNK A   0      -0.412   9.706  23.250  0.00  0.00    +0.000 C 
ATOM     30  C   UNK A   0       0.200   9.951  20.634  0.00  0.00    +0.000 C 
ATOM     31  C   UNK A   0       1.588  10.664  20.515  0.00  0.00    +0.000 C 
ENDBRANCH  17  30
ENDBRANCH   1  17
TORSDOF 6
ENDMDL
MODEL 9
REMARK VINA RESULT:      -7.0      1.428      3.318
REMARK  Name = 
REMARK  11 active torsions:
REMARK  status: ('A' for Active; 'I' for Inactive)
REMARK    1  A    between atoms: C_1  and  C_2
REMARK    2  A    between atoms: C_7  and  C_8
REMARK    3  A    between atoms: C_11  and  C_12
REMARK    4  A    between atoms: C_13  and  C_14
REMARK    5  A    between atoms: C_13  and  C_15
REMARK    6  A    between atoms: C_15  and  C_16
REMARK    7  A    between atoms: C_21  and  N_22
REMARK    8  A    between atoms: N_22  and  CA_23
REMARK    9  A    between atoms: CA_23  and  CB_24
REMARK   10  A    between atoms: CA_23  and  C_25
REMARK   11  A    between atoms: C_25  and  OXT_27
REMARK                            x       y       z     vdW  Elec       q    Type
REMARK                         _______ _______ _______ _____ _____    ______ ____
ROOT
ATOM      1  C   UNK A   0       2.025   8.146  18.981  0.00  0.00    +0.000 C 
ATOM      2  C   UNK A   0       1.732   7.927  20.260  0.00  0.00    +0.000 C 
ATOM      3  C   UNK A   0       1.006   8.925  21.064  0.00  0.00    +0.000 C 
ATOM      4  O   UNK A   0       0.745   8.712  22.238  0.00  0.00    +0.000 OA
ATOM      5  C   UNK A   0       0.543  10.151  20.398  0.00  0.00    +0.000 C 
ATOM      6  C   UNK A   0       0.899  10.475  19.152  0.00  0.00    +0.000 C 
ATOM      7  C   UNK A   0       1.768   9.514  18.388  0.00  0.00    +0.000 C 
ATOM      8  O   UNK A   0       2.183   9.850  17.281  0.00  0.00    +0.000 OA
ENDROOT
BRANCH   6   9
ATOM      9  N   ALA A   1       0.577  11.678  18.511  0.00  0.00    +0.000 N 
ATOM     10  H   ALA A   1       0.588  11.538  17.493  0.00  0.00    +0.000 HD
BRANCH   9  11
ATOM     11  CA  ALA A   1      -0.539  12.555  18.945  0.00  0.00    +0.000 C 
ATOM     12  CB  ALA A   1      -0.235  14.010  18.610  0.00  0.00    +0.000 C 
BRANCH  11  13
ATOM     13  C   ALA A   1      -1.866  12.123  18.281  0.00  0.00    +0.000 C 
ATOM     14  O   ALA A   1      -2.885  11.776  18.866  0.00  0.00    +0.000 OA
BRANCH  13  15
ATOM     15  OXT ALA A   1      -1.786  12.121  16.917  0.00  0.00    +0.000 OA
ATOM     16  HXT ALA A   1      -0.927  12.436  16.569  0.00  0.00    +0.000 HD
ENDBRANCH  13  15
ENDBRANCH  11  13
ENDBRANCH   9  11
ENDBRANCH   6   9
BRANCH   1  17
ATOM     17  C   UNK A   0       2.485   7.102  18.000  0.00  0.00    +0.000 C 
BRANCH  17  30
ATOM     18  C   UNK A   0       3.076   1.565  17.201  0.00  0.00    +0.000 C 
ATOM     19  C   UNK A   0       2.996   2.075  18.629  0.00  0.00    +0.000 C 
ATOM     20  C   UNK A   0       1.793   1.962  19.250  0.00  0.00    +0.000 C 
ATOM     21  C   UNK A   0       0.779   3.031  18.871  0.00  0.00    +0.000 C 
ATOM     22  C   UNK A   0       1.380   4.452  19.012  0.00  0.00    +0.000 C 
ATOM     23  C   UNK A   0       2.799   4.510  18.399  0.00  0.00    +0.000 C 
ATOM     24  C   UNK A   0       3.789   3.383  18.941  0.00  0.00    +0.000 C 
ATOM     25  C   UNK A   0       4.039   3.390  20.483  0.00  0.00    +0.000 C 
ATOM     26  C   UNK A   0       5.224   3.432  18.281  0.00  0.00    +0.000 C 
ATOM     27  C   UNK A   0       5.647   4.702  17.510  0.00  0.00    +0.000 C 
ATOM     28  C   UNK A   0       4.467   5.537  16.980  0.00  0.00    +0.000 C 
ATOM     29  C   UNK A   0       4.913   6.622  16.000  0.00  0.00    +0.000 C 
ATOM     30  C   UNK A   0       3.483   5.899  18.170  0.00  0.00    +0.000 C 
ATOM     31  C   UNK A   0       4.253   6.368  19.449  0.00  0.00    +0.000 C 
ENDBRANCH  17  30
ENDBRANCH   1  17
TORSDOF 6
ENDMDL
