MODEL 1
REMARK VINA RESULT:      -8.0      0.000      0.000
REMARK  Name = 
REMARK  4 active torsions:
REMARK  status: ('A' for Active; 'I' for Inactive)
REMARK    1  A    between atoms: C_1  and  N_2
REMARK    2  A    between atoms: C_5  and  C_6
REMARK    3  A    between atoms: N_22  and  O_23
REMARK    4  A    between atoms: O_23  and  C_24
REMARK                            x       y       z     vdW  Elec       q    Type
REMARK                         _______ _______ _______ _____ _____    ______ ____
ROOT
ATOM      1  C   UNL     1      -0.267  12.319  18.605  0.00  0.00    +0.000 C 
ATOM      2  N   UNL     1      -0.711  12.084  19.968  0.00  0.00    +0.000 N 
ATOM      3  C   UNL     1      -1.577  12.976  20.581  0.00  0.00    +0.000 A 
ATOM      4  O   UNL     1      -1.976  14.012  20.052  0.00  0.00    +0.000 OA
ATOM      5  C   UNL     1      -2.042  12.628  21.966  0.00  0.00    +0.000 A 
ATOM      6  C   UNL     1      -1.622  11.509  22.574  0.00  0.00    +0.000 A 
ATOM      7  C   UNL     1      -0.700  10.627  21.884  0.00  0.00    +0.000 A 
ATOM      8  C   UNL     1      -0.226   9.458  22.424  0.00  0.00    +0.000 A 
ATOM      9  N   UNL     1       0.604   8.620  21.776  0.00  0.00    +0.000 NA
ATOM     10  C   UNL     1       0.997   8.965  20.540  0.00  0.00    +0.000 A 
ATOM     11  N   UNL     1       1.766   8.094  19.822  0.00  0.00    +0.000 N 
ATOM     12  C   UNL     1       2.119   6.786  20.360  0.00  0.00    +0.000 C 
ATOM     13  C   UNL     1       2.092   5.744  19.219  0.00  0.00    +0.000 C 
ATOM     14  N   UNL     1       2.871   6.104  18.010  0.00  0.00    +0.000 NA
ATOM     15  C   UNL     1       2.483   7.464  17.564  0.00  0.00    +0.000 C 
ATOM     16  C   UNL     1       2.529   8.546  18.665  0.00  0.00    +0.000 C 
ATOM     17  N   UNL     1       0.602  10.101  19.950  0.00  0.00    +0.000 NA
ATOM     18  C   UNL     1      -0.249  10.909  20.613  0.00  0.00    +0.000 A 
ENDROOT
BRANCH   5  19
ATOM     19  C   UNL     1      -2.984  13.521  22.668  0.00  0.00    +0.000 A 
ATOM     20  C   UNL     1      -4.367  13.450  22.421  0.00  0.00    +0.000 A 
ATOM     21 CL   UNL     1      -5.038  12.321  21.290  0.00  0.00    +0.000 Cl
ATOM     22  C   UNL     1      -5.257  14.306  23.076  0.00  0.00    +0.000 A 
ATOM     23  C   UNL     1      -4.783  15.243  23.992  0.00  0.00    +0.000 A 
ATOM     24  C   UNL     1      -3.417  15.323  24.254  0.00  0.00    +0.000 A 
ATOM     25  C   UNL     1      -2.523  14.469  23.599  0.00  0.00    +0.000 A 
ATOM     26 CL   UNL     1      -0.839  14.647  23.965  0.00  0.00    +0.000 Cl
ENDBRANCH   5  19
BRANCH  14  27
ATOM     27  O   UNL     1       4.254   6.232  18.461  0.00  0.00    +0.000 OA
BRANCH  27  28
ATOM     28  C   UNL     1       5.130   5.776  17.513  0.00  0.00    +0.000 A 
ATOM     29  C   UNL     1       4.764   4.631  16.811  0.00  0.00    +0.000 A 
ATOM     30  C   UNL     1       5.590   4.151  15.797  0.00  0.00    +0.000 A 
ATOM     31  C   UNL     1       6.755   4.847  15.514  0.00  0.00    +0.000 A 
ATOM     32  N   UNL     1       7.136   5.968  16.163  0.00  0.00    +0.000 NA
ATOM     33  C   UNL     1       6.313   6.405  17.150  0.00  0.00    +0.000 A 
ENDBRANCH  27  28
ENDBRANCH  14  27
TORSDOF 3
ENDMDL
MODEL 2
REMARK VINA RESULT:      -8.0      0.074      1.594
REMARK  Name = 
REMARK  4 active torsions:
REMARK  status: ('A' for Active; 'I' for Inactive)
REMARK    1  A    between atoms: C_1  and  N_2
REMARK    2  A    between atoms: C_5  and  C_6
REMARK    3  A    between atoms: N_22  and  O_23
REMARK    4  A    between atoms: O_23  and  C_24
REMARK                            x       y       z     vdW  Elec       q    Type
REMARK                         _______ _______ _______ _____ _____    ______ ____
ROOT
ATOM      1  C   UNL     1      -0.390  12.264  18.599  0.00  0.00    +0.000 C 
ATOM      2  N   UNL     1      -0.797  12.055  19.977  0.00  0.00    +0.000 N 
ATOM      3  C   UNL     1      -1.662  12.948  20.590  0.00  0.00    +0.000 A 
ATOM      4  O   UNL     1      -2.090  13.965  20.045  0.00  0.00    +0.000 OA
ATOM      5  C   UNL     1      -2.088  12.628  21.993  0.00  0.00    +0.000 A 
ATOM      6  C   UNL     1      -1.636  11.530  22.618  0.00  0.00    +0.000 A 
ATOM      7  C   UNL     1      -0.717  10.645  21.926  0.00  0.00    +0.000 A 
ATOM      8  C   UNL     1      -0.212   9.497  22.483  0.00  0.00    +0.000 A 
ATOM      9  N   UNL     1       0.615   8.657  21.834  0.00  0.00    +0.000 NA
ATOM     10  C   UNL     1       0.973   8.977  20.582  0.00  0.00    +0.000 A 
ATOM     11  N   UNL     1       1.738   8.100  19.866  0.00  0.00    +0.000 N 
ATOM     12  C   UNL     1       2.125   6.811  20.426  0.00  0.00    +0.000 C 
ATOM     13  C   UNL     1       2.086   5.742  19.312  0.00  0.00    +0.000 C 
ATOM     14  N   UNL     1       2.830   6.084  18.076  0.00  0.00    +0.000 NA
ATOM     15  C   UNL     1       2.411   7.427  17.607  0.00  0.00    +0.000 C 
ATOM     16  C   UNL     1       2.466   8.536  18.680  0.00  0.00    +0.000 C 
ATOM     17  N   UNL     1       0.546  10.093  19.974  0.00  0.00    +0.000 NA
ATOM     18  C   UNL     1      -0.301  10.903  20.638  0.00  0.00    +0.000 A 
ENDROOT
BRANCH   5  19
ATOM     19  C   UNL     1      -3.027  13.523  22.697  0.00  0.00    +0.000 A 
ATOM     20  C   UNL     1      -2.564  14.458  23.640  0.00  0.00    +0.000 A 
ATOM     21 CL   UNL     1      -0.881  14.612  24.025  0.00  0.00    +0.000 Cl
ATOM     22  C   UNL     1      -3.455  15.296  24.316  0.00  0.00    +0.000 A 
ATOM     23  C   UNL     1      -4.822  15.218  24.059  0.00  0.00    +0.000 A 
ATOM     24  C   UNL     1      -5.299  14.302  23.124  0.00  0.00    +0.000 A 
ATOM     25  C   UNL     1      -4.409  13.460  22.446  0.00  0.00    +0.000 A 
ATOM     26 CL   UNL     1      -5.084  12.335  21.315  0.00  0.00    +0.000 Cl
ENDBRANCH   5  19
BRANCH  14  27
ATOM     27  O   UNL     1       4.221   6.244  18.490  0.00  0.00    +0.000 OA
BRANCH  27  28
ATOM     28  C   UNL     1       5.082   5.788  17.527  0.00  0.00    +0.000 A 
ATOM     29  C   UNL     1       4.704   4.644  16.830  0.00  0.00    +0.000 A 
ATOM     30  C   UNL     1       5.514   4.164  15.803  0.00  0.00    +0.000 A 
ATOM     31  C   UNL     1       6.673   4.861  15.501  0.00  0.00    +0.000 A 
ATOM     32  N   UNL     1       7.066   5.981  16.145  0.00  0.00    +0.000 NA
ATOM     33  C   UNL     1       6.259   6.418  17.145  0.00  0.00    +0.000 A 
ENDBRANCH  27  28
ENDBRANCH  14  27
TORSDOF 3
ENDMDL
MODEL 3
REMARK VINA RESULT:      -7.5      0.925      1.959
REMARK  Name = 
REMARK  4 active torsions:
REMARK  status: ('A' for Active; 'I' for Inactive)
REMARK    1  A    between atoms: C_1  and  N_2
REMARK    2  A    between atoms: C_5  and  C_6
REMARK    3  A    between atoms: N_22  and  O_23
REMARK    4  A    between atoms: O_23  and  C_24
REMARK                            x       y       z     vdW  Elec       q    Type
REMARK                         _______ _______ _______ _____ _____    ______ ____
ROOT
ATOM      1  C   UNL     1       0.368  11.860  18.600  0.00  0.00    +0.000 C 
ATOM      2  N   UNL     1      -0.251  11.764  19.910  0.00  0.00    +0.000 N 
ATOM      3  C   UNL     1      -1.062  12.788  20.373  0.00  0.00    +0.000 A 
ATOM      4  O   UNL     1      -1.267  13.830  19.751  0.00  0.00    +0.000 OA
ATOM      5  C   UNL     1      -1.720  12.585  21.708  0.00  0.00    +0.000 A 
ATOM      6  C   UNL     1      -1.514  11.463  22.414  0.00  0.00    +0.000 A 
ATOM      7  C   UNL     1      -0.637  10.437  21.881  0.00  0.00    +0.000 A 
ATOM      8  C   UNL     1      -0.377   9.256  22.529  0.00  0.00    +0.000 A 
ATOM      9  N   UNL     1       0.410   8.288  22.024  0.00  0.00    +0.000 NA
ATOM     10  C   UNL     1       0.979   8.506  20.830  0.00  0.00    +0.000 A 
ATOM     11  N   UNL     1       1.709   7.507  20.250  0.00  0.00    +0.000 N 
ATOM     12  C   UNL     1       1.833   6.202  20.888  0.00  0.00    +0.000 C 
ATOM     13  C   UNL     1       1.804   5.103  19.803  0.00  0.00    +0.000 C 
ATOM     14  N   UNL     1       2.752   5.292  18.679  0.00  0.00    +0.000 NA
ATOM     15  C   UNL     1       2.590   6.658  18.125  0.00  0.00    +0.000 C 
ATOM     16  C   UNL     1       2.647   7.793  19.171  0.00  0.00    +0.000 C 
ATOM     17  N   UNL     1       0.797   9.642  20.142  0.00  0.00    +0.000 NA
ATOM     18  C   UNL     1      -0.015  10.584  20.660  0.00  0.00    +0.000 A 
ENDROOT
BRANCH   5  19
ATOM     19  C   UNL     1      -2.615  13.624  22.250  0.00  0.00    +0.000 A 
ATOM     20  C   UNL     1      -2.107  14.685  23.021  0.00  0.00    +0.000 A 
ATOM     21 CL   UNL     1      -0.416  14.832  23.374  0.00  0.00    +0.000 Cl
ATOM     22  C   UNL     1      -2.958  15.662  23.546  0.00  0.00    +0.000 A 
ATOM     23  C   UNL     1      -4.329  15.599  23.306  0.00  0.00    +0.000 A 
ATOM     24  C   UNL     1      -4.850  14.559  22.539  0.00  0.00    +0.000 A 
ATOM     25  C   UNL     1      -4.001  13.579  22.013  0.00  0.00    +0.000 A 
ATOM     26 CL   UNL     1      -4.730  12.308  21.089  0.00  0.00    +0.000 Cl
ENDBRANCH   5  19
BRANCH  14  27
ATOM     27  O   UNL     1       4.081   5.283  19.285  0.00  0.00    +0.000 OA
BRANCH  27  28
ATOM     28  C   UNL     1       5.050   5.021  18.352  0.00  0.00    +0.000 A 
ATOM     29  C   UNL     1       6.340   5.458  18.639  0.00  0.00    +0.000 A 
ATOM     30  C   UNL     1       7.376   5.174  17.752  0.00  0.00    +0.000 A 
ATOM     31  C   UNL     1       7.082   4.446  16.610  0.00  0.00    +0.000 A 
ATOM     32  N   UNL     1       5.847   3.994  16.305  0.00  0.00    +0.000 NA
ATOM     33  C   UNL     1       4.859   4.294  17.185  0.00  0.00    +0.000 A 
ENDBRANCH  27  28
ENDBRANCH  14  27
TORSDOF 3
ENDMDL
MODEL 4
REMARK VINA RESULT:      -7.3      3.363     10.971
REMARK  Name = 
REMARK  4 active torsions:
REMARK  status: ('A' for Active; 'I' for Inactive)
REMARK    1  A    between atoms: C_1  and  N_2
REMARK    2  A    between atoms: C_5  and  C_6
REMARK    3  A    between atoms: N_22  and  O_23
REMARK    4  A    between atoms: O_23  and  C_24
REMARK                            x       y       z     vdW  Elec       q    Type
REMARK                         _______ _______ _______ _____ _____    ______ ____
ROOT
ATOM      1  C   UNL     1       1.478   7.084  21.471  0.00  0.00    +0.000 C 
ATOM      2  N   UNL     1       2.046   7.333  20.158  0.00  0.00    +0.000 N 
ATOM      3  C   UNL     1       2.809   6.358  19.535  0.00  0.00    +0.000 A 
ATOM      4  O   UNL     1       3.087   5.276  20.050  0.00  0.00    +0.000 OA
ATOM      5  C   UNL     1       3.305   6.664  18.151  0.00  0.00    +0.000 A 
ATOM      6  C   UNL     1       3.025   7.836  17.561  0.00  0.00    +0.000 A 
ATOM      7  C   UNL     1       2.237   8.822  18.277  0.00  0.00    +0.000 A 
ATOM      8  C   UNL     1       1.894  10.042  17.749  0.00  0.00    +0.000 A 
ATOM      9  N   UNL     1       1.136  10.946  18.396  0.00  0.00    +0.000 NA
ATOM     10  C   UNL     1       0.712  10.636  19.630  0.00  0.00    +0.000 A 
ATOM     11  N   UNL     1      -0.133  11.494  20.276  0.00  0.00    +0.000 N 
ATOM     12  C   UNL     1      -0.611  12.707  19.626  0.00  0.00    +0.000 C 
ATOM     13  C   UNL     1      -2.086  12.946  20.021  0.00  0.00    +0.000 C 
ATOM     14  N   UNL     1      -2.366  12.919  21.476  0.00  0.00    +0.000 NA
ATOM     15  C   UNL     1      -1.803  11.679  22.061  0.00  0.00    +0.000 C 
ATOM     16  C   UNL     1      -0.320  11.416  21.721  0.00  0.00    +0.000 C 
ATOM     17  N   UNL     1       1.023   9.478  20.229  0.00  0.00    +0.000 NA
ATOM     18  C   UNL     1       1.762   8.580  19.548  0.00  0.00    +0.000 A 
ENDROOT
BRANCH   5  19
ATOM     19  C   UNL     1       4.103   5.661  17.419  0.00  0.00    +0.000 A 
ATOM     20  C   UNL     1       5.440   5.918  17.069  0.00  0.00    +0.000 A 
ATOM     21 CL   UNL     1       6.222   7.412  17.472  0.00  0.00    +0.000 Cl
ATOM     22  C   UNL     1       6.191   4.973  16.363  0.00  0.00    +0.000 A 
ATOM     23  C   UNL     1       5.621   3.755  16.000  0.00  0.00    +0.000 A 
ATOM     24  C   UNL     1       4.299   3.480  16.345  0.00  0.00    +0.000 A 
ATOM     25  C   UNL     1       3.544   4.425  17.049  0.00  0.00    +0.000 A 
ATOM     26 CL   UNL     1       1.902   4.015  17.420  0.00  0.00    +0.000 Cl
ENDBRANCH   5  19
BRANCH  14  27
ATOM     27  O   UNL     1      -1.572  14.003  22.047  0.00  0.00    +0.000 OA
BRANCH  27  28
ATOM     28  C   UNL     1      -2.225  14.600  23.093  0.00  0.00    +0.000 A 
ATOM     29  C   UNL     1      -1.479  14.864  24.238  0.00  0.00    +0.000 A 
ATOM     30  C   UNL     1      -2.076  15.517  25.314  0.00  0.00    +0.000 A 
ATOM     31  C   UNL     1      -3.404  15.896  25.197  0.00  0.00    +0.000 A 
ATOM     32  N   UNL     1      -4.156  15.669  24.099  0.00  0.00    +0.000 NA
ATOM     33  C   UNL     1      -3.547  15.025  23.071  0.00  0.00    +0.000 A 
ENDBRANCH  27  28
ENDBRANCH  14  27
TORSDOF 3
ENDMDL
MODEL 5
REMARK VINA RESULT:      -7.3      3.360     10.887
REMARK  Name = 
REMARK  4 active torsions:
REMARK  status: ('A' for Active; 'I' for Inactive)
REMARK    1  A    between atoms: C_1  and  N_2
REMARK    2  A    between atoms: C_5  and  C_6
REMARK    3  A    between atoms: N_22  and  O_23
REMARK    4  A    between atoms: O_23  and  C_24
REMARK                            x       y       z     vdW  Elec       q    Type
REMARK                         _______ _______ _______ _____ _____    ______ ____
ROOT
ATOM      1  C   UNL     1       1.524   7.048  21.472  0.00  0.00    +0.000 C 
ATOM      2  N   UNL     1       2.077   7.304  20.154  0.00  0.00    +0.000 N 
ATOM      3  C   UNL     1       2.847   6.340  19.523  0.00  0.00    +0.000 A 
ATOM      4  O   UNL     1       3.144   5.261  20.036  0.00  0.00    +0.000 OA
ATOM      5  C   UNL     1       3.327   6.653  18.135  0.00  0.00    +0.000 A 
ATOM      6  C   UNL     1       3.026   7.821  17.548  0.00  0.00    +0.000 A 
ATOM      7  C   UNL     1       2.231   8.797  18.271  0.00  0.00    +0.000 A 
ATOM      8  C   UNL     1       1.868  10.012  17.747  0.00  0.00    +0.000 A 
ATOM      9  N   UNL     1       1.104  10.906  18.401  0.00  0.00    +0.000 NA
ATOM     10  C   UNL     1       0.695  10.590  19.639  0.00  0.00    +0.000 A 
ATOM     11  N   UNL     1      -0.155  11.437  20.292  0.00  0.00    +0.000 N 
ATOM     12  C   UNL     1      -0.656  12.644  19.646  0.00  0.00    +0.000 C 
ATOM     13  C   UNL     1      -2.129  12.863  20.055  0.00  0.00    +0.000 C 
ATOM     14  N   UNL     1      -2.397  12.832  21.513  0.00  0.00    +0.000 NA
ATOM     15  C   UNL     1      -1.812  11.599  22.092  0.00  0.00    +0.000 C 
ATOM     16  C   UNL     1      -0.328  11.356  21.738  0.00  0.00    +0.000 C 
ATOM     17  N   UNL     1       1.026   9.436  20.234  0.00  0.00    +0.000 NA
ATOM     18  C   UNL     1       1.771   8.548  19.546  0.00  0.00    +0.000 A 
ENDROOT
BRANCH   5  19
ATOM     19  C   UNL     1       4.131   5.661  17.396  0.00  0.00    +0.000 A 
ATOM     20  C   UNL     1       3.577   4.428  17.006  0.00  0.00    +0.000 A 
ATOM     21 CL   UNL     1       1.934   4.008  17.365  0.00  0.00    +0.000 Cl
ATOM     22  C   UNL     1       4.344   3.483  16.318  0.00  0.00    +0.000 A 
ATOM     23  C   UNL     1       5.674   3.754  16.005  0.00  0.00    +0.000 A 
ATOM     24  C   UNL     1       6.238   4.972  16.378  0.00  0.00    +0.000 A 
ATOM     25  C   UNL     1       5.474   5.920  17.067  0.00  0.00    +0.000 A 
ATOM     26 CL   UNL     1       6.256   7.400  17.513  0.00  0.00    +0.000 Cl
ENDBRANCH   5  19
BRANCH  14  27
ATOM     27  O   UNL     1      -1.612  13.926  22.076  0.00  0.00    +0.000 OA
BRANCH  27  28
ATOM     28  C   UNL     1      -2.296  14.564  23.078  0.00  0.00    +0.000 A 
ATOM     29  C   UNL     1      -1.583  14.878  24.231  0.00  0.00    +0.000 A 
ATOM     30  C   UNL     1      -2.213  15.574  25.262  0.00  0.00    +0.000 A 
ATOM     31  C   UNL     1      -3.538  15.942  25.091  0.00  0.00    +0.000 A 
ATOM     32  N   UNL     1      -4.257  15.668  23.982  0.00  0.00    +0.000 NA
ATOM     33  C   UNL     1      -3.617  14.983  23.000  0.00  0.00    +0.000 A 
ENDBRANCH  27  28
ENDBRANCH  14  27
TORSDOF 3
ENDMDL
MODEL 6
REMARK VINA RESULT:      -7.2      1.175      1.985
REMARK  Name = 
REMARK  4 active torsions:
REMARK  status: ('A' for Active; 'I' for Inactive)
REMARK    1  A    between atoms: C_1  and  N_2
REMARK    2  A    between atoms: C_5  and  C_6
REMARK    3  A    between atoms: N_22  and  O_23
REMARK    4  A    between atoms: O_23  and  C_24
REMARK                            x       y       z     vdW  Elec       q    Type
REMARK                         _______ _______ _______ _____ _____    ______ ____
ROOT
ATOM      1  C   UNL     1       0.772  11.640  18.294  0.00  0.00    +0.000 C 
ATOM      2  N   UNL     1       0.176  11.661  19.618  0.00  0.00    +0.000 N 
ATOM      3  C   UNL     1      -0.547  12.766  20.038  0.00  0.00    +0.000 A 
ATOM      4  O   UNL     1      -0.688  13.785  19.363  0.00  0.00    +0.000 OA
ATOM      5  C   UNL     1      -1.188  12.685  21.393  0.00  0.00    +0.000 A 
ATOM      6  C   UNL     1      -1.050  11.590  22.157  0.00  0.00    +0.000 A 
ATOM      7  C   UNL     1      -0.264  10.474  21.665  0.00  0.00    +0.000 A 
ATOM      8  C   UNL     1      -0.078   9.313  22.373  0.00  0.00    +0.000 A 
ATOM      9  N   UNL     1       0.624   8.263  21.908  0.00  0.00    +0.000 NA
ATOM     10  C   UNL     1       1.182   8.374  20.693  0.00  0.00    +0.000 A 
ATOM     11  N   UNL     1       1.823   7.293  20.156  0.00  0.00    +0.000 N 
ATOM     12  C   UNL     1       1.864   6.019  20.863  0.00  0.00    +0.000 C 
ATOM     13  C   UNL     1       1.730   4.868  19.840  0.00  0.00    +0.000 C 
ATOM     14  N   UNL     1       2.665   4.925  18.692  0.00  0.00    +0.000 NA
ATOM     15  C   UNL     1       2.592   6.268  18.067  0.00  0.00    +0.000 C 
ATOM     16  C   UNL     1       2.756   7.450  19.047  0.00  0.00    +0.000 C 
ATOM     17  N   UNL     1       1.070   9.482  19.948  0.00  0.00    +0.000 NA
ATOM     18  C   UNL     1       0.341  10.509  20.428  0.00  0.00    +0.000 A 
ENDROOT
BRANCH   5  19
ATOM     19  C   UNL     1      -1.993  13.816  21.893  0.00  0.00    +0.000 A 
ATOM     20  C   UNL     1      -1.380  14.919  22.514  0.00  0.00    +0.000 A 
ATOM     21 CL   UNL     1       0.338  15.012  22.726  0.00  0.00    +0.000 Cl
ATOM     22  C   UNL     1      -2.144  15.984  23.001  0.00  0.00    +0.000 A 
ATOM     23  C   UNL     1      -3.530  15.968  22.870  0.00  0.00    +0.000 A 
ATOM     24  C   UNL     1      -4.155  14.887  22.251  0.00  0.00    +0.000 A 
ATOM     25  C   UNL     1      -3.393  13.819  21.765  0.00  0.00    +0.000 A 
ATOM     26 CL   UNL     1      -4.247  12.504  21.028  0.00  0.00    +0.000 Cl
ENDBRANCH   5  19
BRANCH  14  27
ATOM     27  O   UNL     1       4.002   4.849  19.273  0.00  0.00    +0.000 OA
BRANCH  27  28
ATOM     28  C   UNL     1       4.956   4.680  18.305  0.00  0.00    +0.000 A 
ATOM     29  C   UNL     1       4.567   4.024  17.140  0.00  0.00    +0.000 A 
ATOM     30  C   UNL     1       5.480   3.870  16.099  0.00  0.00    +0.000 A 
ATOM     31  C   UNL     1       6.753   4.393  16.259  0.00  0.00    +0.000 A 
ATOM     32  N   UNL     1       7.163   5.047  17.367  0.00  0.00    +0.000 NA
ATOM     33  C   UNL     1       6.253   5.174  18.366  0.00  0.00    +0.000 A 
ENDBRANCH  27  28
ENDBRANCH  14  27
TORSDOF 3
ENDMDL
MODEL 7
REMARK VINA RESULT:      -7.2      2.099      3.186
REMARK  Name = 
REMARK  4 active torsions:
REMARK  status: ('A' for Active; 'I' for Inactive)
REMARK    1  A    between atoms: C_1  and  N_2
REMARK    2  A    between atoms: C_5  and  C_6
REMARK    3  A    between atoms: N_22  and  O_23
REMARK    4  A    between atoms: O_23  and  C_24
REMARK                            x       y       z     vdW  Elec       q    Type
REMARK                         _______ _______ _______ _____ _____    ______ ____
ROOT
ATOM      1  C   UNL     1       0.012   9.384  22.868  0.00  0.00    +0.000 C 
ATOM      2  N   UNL     1      -0.187  10.529  21.997  0.00  0.00    +0.000 N 
ATOM      3  C   UNL     1      -0.822  11.664  22.474  0.00  0.00    +0.000 A 
ATOM      4  O   UNL     1      -1.285  11.760  23.610  0.00  0.00    +0.000 OA
ATOM      5  C   UNL     1      -0.930  12.829  21.533  0.00  0.00    +0.000 A 
ATOM      6  C   UNL     1      -0.441  12.757  20.286  0.00  0.00    +0.000 A 
ATOM      7  C   UNL     1       0.196  11.530  19.842  0.00  0.00    +0.000 A 
ATOM      8  C   UNL     1       0.733  11.370  18.589  0.00  0.00    +0.000 A 
ATOM      9  N   UNL     1       1.353  10.247  18.184  0.00  0.00    +0.000 NA
ATOM     10  C   UNL     1       1.430   9.228  19.053  0.00  0.00    +0.000 A 
ATOM     11  N   UNL     1       2.132   8.109  18.703  0.00  0.00    +0.000 N 
ATOM     12  C   UNL     1       2.831   8.031  17.427  0.00  0.00    +0.000 C 
ATOM     13  C   UNL     1       4.167   7.281  17.626  0.00  0.00    +0.000 C 
ATOM     14  N   UNL     1       4.066   5.972  18.313  0.00  0.00    +0.000 NA
ATOM     15  C   UNL     1       3.300   6.137  19.572  0.00  0.00    +0.000 C 
ATOM     16  C   UNL     1       1.939   6.851  19.415  0.00  0.00    +0.000 C 
ATOM     17  N   UNL     1       0.909   9.293  20.286  0.00  0.00    +0.000 NA
ATOM     18  C   UNL     1       0.316  10.439  20.674  0.00  0.00    +0.000 A 
ENDROOT
BRANCH   5  19
ATOM     19  C   UNL     1      -1.573  14.079  21.984  0.00  0.00    +0.000 A 
ATOM     20  C   UNL     1      -2.974  14.195  22.028  0.00  0.00    +0.000 A 
ATOM     21 CL   UNL     1      -4.016  12.891  21.562  0.00  0.00    +0.000 Cl
ATOM     22  C   UNL     1      -3.582  15.384  22.442  0.00  0.00    +0.000 A 
ATOM     23  C   UNL     1      -2.802  16.474  22.822  0.00  0.00    +0.000 A 
ATOM     24  C   UNL     1      -1.413  16.375  22.790  0.00  0.00    +0.000 A 
ATOM     25  C   UNL     1      -0.801  15.187  22.375  0.00  0.00    +0.000 A 
ATOM     26 CL   UNL     1       0.931  15.153  22.344  0.00  0.00    +0.000 Cl
ENDBRANCH   5  19
BRANCH  14  27
ATOM     27  O   UNL     1       3.218   5.147  17.457  0.00  0.00    +0.000 OA
BRANCH  27  28
ATOM     28  C   UNL     1       2.971   3.927  18.030  0.00  0.00    +0.000 A 
ATOM     29  C   UNL     1       1.640   3.533  18.132  0.00  0.00    +0.000 A 
ATOM     30  C   UNL     1       1.331   2.280  18.656  0.00  0.00    +0.000 A 
ATOM     31  C   UNL     1       2.375   1.458  19.051  0.00  0.00    +0.000 A 
ATOM     32  N   UNL     1       3.677   1.800  18.956  0.00  0.00    +0.000 NA
ATOM     33  C   UNL     1       3.944   3.030  18.447  0.00  0.00    +0.000 A 
ENDBRANCH  27  28
ENDBRANCH  14  27
TORSDOF 3
ENDMDL
MODEL 8
REMARK VINA RESULT:      -7.1      2.114      3.551
REMARK  Name = 
REMARK  4 active torsions:
REMARK  status: ('A' for Active; 'I' for Inactive)
REMARK    1  A    between atoms: C_1  and  N_2
REMARK    2  A    between atoms: C_5  and  C_6
REMARK    3  A    between atoms: N_22  and  O_23
REMARK    4  A    between atoms: O_23  and  C_24
REMARK                            x       y       z     vdW  Elec       q    Type
REMARK                         _______ _______ _______ _____ _____    ______ ____
ROOT
ATOM      1  C   UNL     1      -0.006   9.462  22.883  0.00  0.00    +0.000 C 
ATOM      2  N   UNL     1      -0.180  10.610  22.011  0.00  0.00    +0.000 N 
ATOM      3  C   UNL     1      -0.798  11.757  22.485  0.00  0.00    +0.000 A 
ATOM      4  O   UNL     1      -1.266  11.860  23.618  0.00  0.00    +0.000 OA
ATOM      5  C   UNL     1      -0.881  12.924  21.544  0.00  0.00    +0.000 A 
ATOM      6  C   UNL     1      -0.386  12.843  20.300  0.00  0.00    +0.000 A 
ATOM      7  C   UNL     1       0.232  11.606  19.859  0.00  0.00    +0.000 A 
ATOM      8  C   UNL     1       0.774  11.437  18.609  0.00  0.00    +0.000 A 
ATOM      9  N   UNL     1       1.376  10.304  18.206  0.00  0.00    +0.000 NA
ATOM     10  C   UNL     1       1.431   9.284  19.075  0.00  0.00    +0.000 A 
ATOM     11  N   UNL     1       2.115   8.153  18.729  0.00  0.00    +0.000 N 
ATOM     12  C   UNL     1       2.820   8.063  17.456  0.00  0.00    +0.000 C 
ATOM     13  C   UNL     1       4.142   7.290  17.663  0.00  0.00    +0.000 C 
ATOM     14  N   UNL     1       4.014   5.983  18.349  0.00  0.00    +0.000 NA
ATOM     15  C   UNL     1       3.244   6.160  19.603  0.00  0.00    +0.000 C 
ATOM     16  C   UNL     1       1.897   6.898  19.439  0.00  0.00    +0.000 C 
ATOM     17  N   UNL     1       0.904   9.357  20.306  0.00  0.00    +0.000 NA
ATOM     18  C   UNL     1       0.329  10.513  20.691  0.00  0.00    +0.000 A 
ENDROOT
BRANCH   5  19
ATOM     19  C   UNL     1      -1.504  14.184  21.992  0.00  0.00    +0.000 A 
ATOM     20  C   UNL     1      -0.716  15.276  22.396  0.00  0.00    +0.000 A 
ATOM     21 CL   UNL     1       1.016  15.207  22.390  0.00  0.00    +0.000 Cl
ATOM     22  C   UNL     1      -1.307  16.465  22.833  0.00  0.00    +0.000 A 
ATOM     23  C   UNL     1      -2.695  16.584  22.870  0.00  0.00    +0.000 A 
ATOM     24  C   UNL     1      -3.492  15.515  22.468  0.00  0.00    +0.000 A 
ATOM     25  C   UNL     1      -2.903  14.323  22.031  0.00  0.00    +0.000 A 
ATOM     26 CL   UNL     1      -3.965  13.035  21.568  0.00  0.00    +0.000 Cl
ENDBRANCH   5  19
BRANCH  14  27
ATOM     27  O   UNL     1       3.157   5.173  17.488  0.00  0.00    +0.000 OA
BRANCH  27  28
ATOM     28  C   UNL     1       2.927   3.938  18.035  0.00  0.00    +0.000 A 
ATOM     29  C   UNL     1       1.600   3.550  18.188  0.00  0.00    +0.000 A 
ATOM     30  C   UNL     1       1.306   2.284  18.689  0.00  0.00    +0.000 A 
ATOM     31  C   UNL     1       2.360   1.443  19.009  0.00  0.00    +0.000 A 
ATOM     32  N   UNL     1       3.660   1.779  18.862  0.00  0.00    +0.000 NA
ATOM     33  C   UNL     1       3.912   3.021  18.378  0.00  0.00    +0.000 A 
ENDBRANCH  27  28
ENDBRANCH  14  27
TORSDOF 3
ENDMDL
MODEL 9
REMARK VINA RESULT:      -7.1      1.377      1.439
REMARK  Name = 
REMARK  4 active torsions:
REMARK  status: ('A' for Active; 'I' for Inactive)
REMARK    1  A    between atoms: C_1  and  N_2
REMARK    2  A    between atoms: C_5  and  C_6
REMARK    3  A    between atoms: N_22  and  O_23
REMARK    4  A    between atoms: O_23  and  C_24
REMARK                            x       y       z     vdW  Elec       q    Type
REMARK                         _______ _______ _______ _____ _____    ______ ____
ROOT
ATOM      1  C   UNL     1       1.145  11.556  18.047  0.00  0.00    +0.000 C 
ATOM      2  N   UNL     1       0.444  11.565  19.320  0.00  0.00    +0.000 N 
ATOM      3  C   UNL     1      -0.298  12.673  19.697  0.00  0.00    +0.000 A 
ATOM      4  O   UNL     1      -0.373  13.703  19.029  0.00  0.00    +0.000 OA
ATOM      5  C   UNL     1      -1.047  12.579  20.995  0.00  0.00    +0.000 A 
ATOM      6  C   UNL     1      -0.983  11.472  21.751  0.00  0.00    +0.000 A 
ATOM      7  C   UNL     1      -0.172  10.354  21.307  0.00  0.00    +0.000 A 
ATOM      8  C   UNL     1      -0.056   9.180  22.008  0.00  0.00    +0.000 A 
ATOM      9  N   UNL     1       0.669   8.129  21.585  0.00  0.00    +0.000 NA
ATOM     10  C   UNL     1       1.324   8.251  20.421  0.00  0.00    +0.000 A 
ATOM     11  N   UNL     1       1.994   7.170  19.921  0.00  0.00    +0.000 N 
ATOM     12  C   UNL     1       1.965   5.885  20.608  0.00  0.00    +0.000 C 
ATOM     13  C   UNL     1       1.901   4.751  19.561  0.00  0.00    +0.000 C 
ATOM     14  N   UNL     1       2.926   4.814  18.492  0.00  0.00    +0.000 NA
ATOM     15  C   UNL     1       2.918   6.166  17.884  0.00  0.00    +0.000 C 
ATOM     16  C   UNL     1       3.016   7.332  18.892  0.00  0.00    +0.000 C 
ATOM     17  N   UNL     1       1.285   9.371  19.686  0.00  0.00    +0.000 NA
ATOM     18  C   UNL     1       0.531  10.399  20.122  0.00  0.00    +0.000 A 
ENDROOT
BRANCH   5  19
ATOM     19  C   UNL     1      -1.876  13.713  21.446  0.00  0.00    +0.000 A 
ATOM     20  C   UNL     1      -3.252  13.761  21.158  0.00  0.00    +0.000 A 
ATOM     21 CL   UNL     1      -4.045  12.505  20.265  0.00  0.00    +0.000 Cl
ATOM     22  C   UNL     1      -4.034  14.843  21.573  0.00  0.00    +0.000 A 
ATOM     23  C   UNL     1      -3.458  15.891  22.287  0.00  0.00    +0.000 A 
ATOM     24  C   UNL     1      -2.098  15.857  22.588  0.00  0.00    +0.000 A 
ATOM     25  C   UNL     1      -1.312  14.777  22.172  0.00  0.00    +0.000 A 
ATOM     26 CL   UNL     1       0.374  14.822  22.568  0.00  0.00    +0.000 Cl
ENDBRANCH   5  19
BRANCH  14  27
ATOM     27  O   UNL     1       4.211   4.713  19.178  0.00  0.00    +0.000 OA
BRANCH  27  28
ATOM     28  C   UNL     1       5.245   4.617  18.284  0.00  0.00    +0.000 A 
ATOM     29  C   UNL     1       4.974   4.001  17.065  0.00  0.00    +0.000 A 
ATOM     30  C   UNL     1       5.972   3.922  16.096  0.00  0.00    +0.000 A 
ATOM     31  C   UNL     1       7.209   4.479  16.381  0.00  0.00    +0.000 A 
ATOM     32  N   UNL     1       7.505   5.096  17.545  0.00  0.00    +0.000 NA
ATOM     33  C   UNL     1       6.514   5.149  18.470  0.00  0.00    +0.000 A 
ENDBRANCH  27  28
ENDBRANCH  14  27
TORSDOF 3
ENDMDL
