MODEL 1
REMARK VINA RESULT:     -10.5      0.000      0.000
REMARK  Name = 
REMARK  7 active torsions:
REMARK  status: ('A' for Active; 'I' for Inactive)
REMARK    1  A    between atoms: C_2  and  C_5
REMARK    2  A    between atoms: N_3  and  O_4
REMARK    3  A    between atoms: C_9  and  C_10
REMARK    4  A    between atoms: C_13  and  O_14
REMARK    5  A    between atoms: O_14  and  C_15
REMARK    6  A    between atoms: C_15  and  C_16
REMARK    7  A    between atoms: C_18  and  C_19
REMARK                            x       y       z     vdW  Elec       q    Type
REMARK                         _______ _______ _______ _____ _____    ______ ____
ROOT
ATOM      1  C   UNL     1       8.518   8.839  18.466  0.00  0.00    +0.000 A 
ATOM      2  C   UNL     1       8.594   7.534  18.986  0.00  0.00    +0.000 A 
ATOM      3  C   UNL     1       7.713   6.472  18.571  0.00  0.00    +0.000 A 
ATOM      4  C   UNL     1       6.703   6.648  17.625  0.00  0.00    +0.000 A 
ATOM      5  C   UNL     1       6.624   7.931  17.086  0.00  0.00    +0.000 A 
ATOM      6  C   UNL     1       7.503   9.001  17.510  0.00  0.00    +0.000 A 
ENDROOT
BRANCH   1  11
ATOM      7  C   UNL     1      10.170  13.767  18.928  0.00  0.00    +0.000 C 
ATOM      8  C   UNL     1       8.674  13.648  19.075  0.00  0.00    +0.000 C 
ATOM      9  C   UNL     1       9.534  12.399  19.214  0.00  0.00    +0.000 C 
ATOM     10  C   UNL     1       9.436  11.302  18.155  0.00  0.00    +0.000 C 
ATOM     11  C   UNL     1       9.442   9.974  18.973  0.00  0.00    +0.000 C 
ATOM     12  N   UNL     1       9.267  10.406  20.360  0.00  0.00    +0.000 N 
ATOM     13  C   UNL     1       9.568  11.739  20.543  0.00  0.00    +0.000 C 
ATOM     14  O   UNL     1       9.830  12.307  21.594  0.00  0.00    +0.000 OA
ATOM     15  H   UNL     1       9.449   9.792  21.145  0.00  0.00    +0.000 HD
BRANCH   7  17
ATOM     16  O   UNL     1      11.564  13.415  17.028  0.00  0.00    +0.000 OA
ATOM     17  C   UNL     1      10.725  14.116  17.589  0.00  0.00    +0.000 C 
ATOM     18  N   UNL     1      10.256  15.278  17.032  0.00  0.00    +0.000 N 
ATOM     19  H   UNL     1       9.578  15.906  17.446  0.00  0.00    +0.000 HD
BRANCH  18  20
ATOM     20  O   UNL     1      10.816  15.659  15.791  0.00  0.00    +0.000 OA
ATOM     21  H   UNL     1      10.572  14.907  15.208  0.00  0.00    +0.000 HD
ENDBRANCH  18  20
ENDBRANCH   7  17
ENDBRANCH   1  11
BRANCH   4  22
ATOM     22  O   UNL     1       5.868   5.562  17.332  0.00  0.00    +0.000 OA
BRANCH  22  23
ATOM     23  C   UNL     1       5.807   4.183  18.038  0.00  0.00    +0.000 C 
BRANCH  23  24
ATOM     24  C   UNL     1       4.366   3.662  18.293  0.00  0.00    +0.000 A 
ATOM     25  C   UNL     1       3.665   4.072  17.187  0.00  0.00    +0.000 A 
ATOM     26  C   UNL     1       2.680   4.902  17.560  0.00  0.00    +0.000 A 
ATOM     27  N   UNL     1       1.700   4.174  18.018  0.00  0.00    +0.000 NA
ATOM     28  C   UNL     1       2.052   3.486  19.091  0.00  0.00    +0.000 A 
ATOM     29  C   UNL     1       0.977   3.396  19.948  0.00  0.00    +0.000 A 
ATOM     30  C   UNL     1       1.108   2.955  21.243  0.00  0.00    +0.000 A 
ATOM     31  C   UNL     1       2.363   2.494  21.633  0.00  0.00    +0.000 A 
ATOM     32  C   UNL     1       3.505   2.601  20.753  0.00  0.00    +0.000 A 
ATOM     33  C   UNL     1       3.433   3.180  19.401  0.00  0.00    +0.000 A 
BRANCH  26  34
ATOM     34  C   UNL     1       2.809   6.165  18.384  0.00  0.00    +0.000 A 
ATOM     35  C   UNL     1       2.925   7.321  17.634  0.00  0.00    +0.000 A 
ATOM     36  C   UNL     1       2.416   8.502  18.151  0.00  0.00    +0.000 A 
ATOM     37  N   UNL     1       1.867   8.630  19.373  0.00  0.00    +0.000 NA
ATOM     38  C   UNL     1       1.877   7.533  20.153  0.00  0.00    +0.000 A 
ATOM     39  C   UNL     1       2.386   6.314  19.734  0.00  0.00    +0.000 A 
ENDBRANCH  26  34
ENDBRANCH  23  24
ENDBRANCH  22  23
ENDBRANCH   4  22
TORSDOF 7
ENDMDL
MODEL 2
REMARK VINA RESULT:      -9.7      5.609      9.419
REMARK  Name = 
REMARK  7 active torsions:
REMARK  status: ('A' for Active; 'I' for Inactive)
REMARK    1  A    between atoms: C_2  and  C_5
REMARK    2  A    between atoms: N_3  and  O_4
REMARK    3  A    between atoms: C_9  and  C_10
REMARK    4  A    between atoms: C_13  and  O_14
REMARK    5  A    between atoms: O_14  and  C_15
REMARK    6  A    between atoms: C_15  and  C_16
REMARK    7  A    between atoms: C_18  and  C_19
REMARK                            x       y       z     vdW  Elec       q    Type
REMARK                         _______ _______ _______ _____ _____    ______ ____
ROOT
ATOM      1  C   UNL     1       2.603   7.229  18.533  0.00  0.00    +0.000 A 
ATOM      2  C   UNL     1       2.084   7.480  19.817  0.00  0.00    +0.000 A 
ATOM      3  C   UNL     1       1.431   8.715  20.171  0.00  0.00    +0.000 A 
ATOM      4  C   UNL     1       1.267   9.771  19.274  0.00  0.00    +0.000 A 
ATOM      5  C   UNL     1       1.760   9.534  17.993  0.00  0.00    +0.000 A 
ATOM      6  C   UNL     1       2.424   8.296  17.640  0.00  0.00    +0.000 A 
ENDROOT
BRANCH   1  11
ATOM      7  C   UNL     1       6.683   4.325  17.067  0.00  0.00    +0.000 C 
ATOM      8  C   UNL     1       7.064   5.384  18.072  0.00  0.00    +0.000 C 
ATOM      9  C   UNL     1       5.597   5.013  17.907  0.00  0.00    +0.000 C 
ATOM     10  C   UNL     1       4.628   6.037  17.317  0.00  0.00    +0.000 C 
ATOM     11  C   UNL     1       3.349   5.913  18.200  0.00  0.00    +0.000 C 
ATOM     12  N   UNL     1       3.771   5.081  19.328  0.00  0.00    +0.000 N 
ATOM     13  C   UNL     1       4.921   4.370  19.062  0.00  0.00    +0.000 C 
ATOM     14  O   UNL     1       5.337   3.378  19.645  0.00  0.00    +0.000 OA
ATOM     15  H   UNL     1       3.107   4.645  19.957  0.00  0.00    +0.000 HD
BRANCH   7  17
ATOM     16  O   UNL     1       7.511   5.597  15.231  0.00  0.00    +0.000 OA
ATOM     17  C   UNL     1       6.869   4.623  15.618  0.00  0.00    +0.000 C 
ATOM     18  N   UNL     1       6.263   3.756  14.747  0.00  0.00    +0.000 N 
ATOM     19  H   UNL     1       5.711   2.946  15.000  0.00  0.00    +0.000 HD
BRANCH  18  20
ATOM     20  O   UNL     1       6.375   4.057  13.369  0.00  0.00    +0.000 OA
ATOM     21  H   UNL     1       7.029   3.391  13.059  0.00  0.00    +0.000 HD
ENDBRANCH  18  20
ENDBRANCH   7  17
ENDBRANCH   1  11
BRANCH   4  22
ATOM     22  O   UNL     1       0.665  10.950  19.736  0.00  0.00    +0.000 OA
BRANCH  22  23
ATOM     23  C   UNL     1       0.157  11.268  21.167  0.00  0.00    +0.000 C 
BRANCH  23  24
ATOM     24  C   UNL     1      -1.360  11.591  21.245  0.00  0.00    +0.000 A 
ATOM     25  C   UNL     1      -1.721  11.808  19.939  0.00  0.00    +0.000 A 
ATOM     26  C   UNL     1      -2.175  13.063  19.799  0.00  0.00    +0.000 A 
ATOM     27  N   UNL     1      -3.403  13.091  20.234  0.00  0.00    +0.000 NA
ATOM     28  C   UNL     1      -3.483  12.792  21.519  0.00  0.00    +0.000 A 
ATOM     29  C   UNL     1      -4.491  13.532  22.098  0.00  0.00    +0.000 A 
ATOM     30  C   UNL     1      -4.647  13.617  23.461  0.00  0.00    +0.000 A 
ATOM     31  C   UNL     1      -3.804  12.835  24.247  0.00  0.00    +0.000 A 
ATOM     32  C   UNL     1      -2.728  12.070  23.657  0.00  0.00    +0.000 A 
ATOM     33  C   UNL     1      -2.451  12.048  22.211  0.00  0.00    +0.000 A 
BRANCH  26  34
ATOM     34  C   UNL     1      -1.464  14.342  20.187  0.00  0.00    +0.000 A 
ATOM     35  C   UNL     1      -0.218  14.494  19.608  0.00  0.00    +0.000 A 
ATOM     36  C   UNL     1       0.234  15.775  19.332  0.00  0.00    +0.000 A 
ATOM     37  N   UNL     1      -0.427  16.905  19.646  0.00  0.00    +0.000 NA
ATOM     38  C   UNL     1      -1.577  16.758  20.329  0.00  0.00    +0.000 A 
ATOM     39  C   UNL     1      -2.096  15.520  20.673  0.00  0.00    +0.000 A 
ENDBRANCH  26  34
ENDBRANCH  23  24
ENDBRANCH  22  23
ENDBRANCH   4  22
TORSDOF 7
ENDMDL
MODEL 3
REMARK VINA RESULT:      -9.7      6.312      9.895
REMARK  Name = 
REMARK  7 active torsions:
REMARK  status: ('A' for Active; 'I' for Inactive)
REMARK    1  A    between atoms: C_2  and  C_5
REMARK    2  A    between atoms: N_3  and  O_4
REMARK    3  A    between atoms: C_9  and  C_10
REMARK    4  A    between atoms: C_13  and  O_14
REMARK    5  A    between atoms: O_14  and  C_15
REMARK    6  A    between atoms: C_15  and  C_16
REMARK    7  A    between atoms: C_18  and  C_19
REMARK                            x       y       z     vdW  Elec       q    Type
REMARK                         _______ _______ _______ _____ _____    ______ ____
ROOT
ATOM      1  C   UNL     1      -0.665  11.939  20.626  0.00  0.00    +0.000 A 
ATOM      2  C   UNL     1      -0.328  10.689  21.175  0.00  0.00    +0.000 A 
ATOM      3  C   UNL     1       0.377   9.672  20.436  0.00  0.00    +0.000 A 
ATOM      4  C   UNL     1       0.777   9.837  19.110  0.00  0.00    +0.000 A 
ATOM      5  C   UNL     1       0.466  11.077  18.554  0.00  0.00    +0.000 A 
ATOM      6  C   UNL     1      -0.250  12.095  19.295  0.00  0.00    +0.000 A 
ENDROOT
BRANCH   1  11
ATOM      7  C   UNL     1      -4.469  13.601  23.787  0.00  0.00    +0.000 C 
ATOM      8  C   UNL     1      -3.807  12.345  24.298  0.00  0.00    +0.000 C 
ATOM      9  C   UNL     1      -3.102  13.175  23.234  0.00  0.00    +0.000 C 
ATOM     10  C   UNL     1      -2.928  12.599  21.830  0.00  0.00    +0.000 C 
ATOM     11  C   UNL     1      -1.472  12.990  21.429  0.00  0.00    +0.000 C 
ATOM     12  N   UNL     1      -0.877  13.479  22.673  0.00  0.00    +0.000 N 
ATOM     13  C   UNL     1      -1.823  13.827  23.614  0.00  0.00    +0.000 C 
ATOM     14  O   UNL     1      -1.674  14.546  24.592  0.00  0.00    +0.000 OA
ATOM     15  H   UNL     1      -0.012  14.007  22.688  0.00  0.00    +0.000 HD
BRANCH   7  17
ATOM     16  O   UNL     1      -6.037  14.287  22.130  0.00  0.00    +0.000 OA
ATOM     17  C   UNL     1      -5.722  13.467  22.989  0.00  0.00    +0.000 C 
ATOM     18  N   UNL     1      -6.509  12.385  23.288  0.00  0.00    +0.000 N 
ATOM     19  H   UNL     1      -6.314  11.683  23.991  0.00  0.00    +0.000 HD
BRANCH  18  20
ATOM     20  O   UNL     1      -7.731  12.275  22.586  0.00  0.00    +0.000 OA
ATOM     21  H   UNL     1      -7.683  11.365  22.218  0.00  0.00    +0.000 HD
ENDBRANCH  18  20
ENDBRANCH   7  17
ENDBRANCH   1  11
BRANCH   4  22
ATOM     22  O   UNL     1       1.409   8.765  18.466  0.00  0.00    +0.000 OA
BRANCH  22  23
ATOM     23  C   UNL     1       2.319   7.675  19.091  0.00  0.00    +0.000 C 
BRANCH  23  24
ATOM     24  C   UNL     1       2.949   6.703  18.056  0.00  0.00    +0.000 A 
ATOM     25  C   UNL     1       1.952   5.795  17.805  0.00  0.00    +0.000 A 
ATOM     26  C   UNL     1       2.361   4.567  18.160  0.00  0.00    +0.000 A 
ATOM     27  N   UNL     1       3.131   4.115  17.211  0.00  0.00    +0.000 NA
ATOM     28  C   UNL     1       4.217   4.854  17.058  0.00  0.00    +0.000 A 
ATOM     29  C   UNL     1       5.275   4.043  16.711  0.00  0.00    +0.000 A 
ATOM     30  C   UNL     1       6.575   4.489  16.725  0.00  0.00    +0.000 A 
ATOM     31  C   UNL     1       6.780   5.838  17.003  0.00  0.00    +0.000 A 
ATOM     32  C   UNL     1       5.683   6.698  17.388  0.00  0.00    +0.000 A 
ATOM     33  C   UNL     1       4.291   6.229  17.504  0.00  0.00    +0.000 A 
BRANCH  26  34
ATOM     34  C   UNL     1       2.900   4.136  19.508  0.00  0.00    +0.000 A 
ATOM     35  C   UNL     1       2.042   4.380  20.564  0.00  0.00    +0.000 A 
ATOM     36  C   UNL     1       2.070   3.523  21.654  0.00  0.00    +0.000 A 
ATOM     37  N   UNL     1       2.925   2.494  21.797  0.00  0.00    +0.000 NA
ATOM     38  C   UNL     1       3.847   2.340  20.829  0.00  0.00    +0.000 A 
ATOM     39  C   UNL     1       3.914   3.161  19.714  0.00  0.00    +0.000 A 
ENDBRANCH  26  34
ENDBRANCH  23  24
ENDBRANCH  22  23
ENDBRANCH   4  22
TORSDOF 7
ENDMDL
MODEL 4
REMARK VINA RESULT:      -9.6      6.461      9.939
REMARK  Name = 
REMARK  7 active torsions:
REMARK  status: ('A' for Active; 'I' for Inactive)
REMARK    1  A    between atoms: C_2  and  C_5
REMARK    2  A    between atoms: N_3  and  O_4
REMARK    3  A    between atoms: C_9  and  C_10
REMARK    4  A    between atoms: C_13  and  O_14
REMARK    5  A    between atoms: O_14  and  C_15
REMARK    6  A    between atoms: C_15  and  C_16
REMARK    7  A    between atoms: C_18  and  C_19
REMARK                            x       y       z     vdW  Elec       q    Type
REMARK                         _______ _______ _______ _____ _____    ______ ____
ROOT
ATOM      1  C   UNL     1      -1.295  11.445  19.683  0.00  0.00    +0.000 A 
ATOM      2  C   UNL     1      -0.540  10.952  20.762  0.00  0.00    +0.000 A 
ATOM      3  C   UNL     1       0.532  10.002  20.602  0.00  0.00    +0.000 A 
ATOM      4  C   UNL     1       0.907   9.482  19.363  0.00  0.00    +0.000 A 
ATOM      5  C   UNL     1       0.181   9.972  18.279  0.00  0.00    +0.000 A 
ATOM      6  C   UNL     1      -0.902  10.920  18.442  0.00  0.00    +0.000 A 
ENDROOT
BRANCH   1  11
ATOM      7  C   UNL     1      -6.274  12.989  19.470  0.00  0.00    +0.000 C 
ATOM      8  C   UNL     1      -6.133  11.574  19.973  0.00  0.00    +0.000 C 
ATOM      9  C   UNL     1      -4.914  12.485  19.973  0.00  0.00    +0.000 C 
ATOM     10  C   UNL     1      -3.752  12.179  19.030  0.00  0.00    +0.000 C 
ATOM     11  C   UNL     1      -2.477  12.423  19.894  0.00  0.00    +0.000 C 
ATOM     12  N   UNL     1      -2.990  12.563  21.258  0.00  0.00    +0.000 N 
ATOM     13  C   UNL     1      -4.337  12.853  21.291  0.00  0.00    +0.000 C 
ATOM     14  O   UNL     1      -4.974  13.334  22.218  0.00  0.00    +0.000 OA
ATOM     15  H   UNL     1      -2.428  12.945  22.010  0.00  0.00    +0.000 HD
BRANCH   7  17
ATOM     16  O   UNL     1      -6.826  12.271  17.267  0.00  0.00    +0.000 OA
ATOM     17  C   UNL     1      -6.552  13.202  18.021  0.00  0.00    +0.000 C 
ATOM     18  N   UNL     1      -6.462  14.496  17.579  0.00  0.00    +0.000 N 
ATOM     19  H   UNL     1      -6.228  15.304  18.144  0.00  0.00    +0.000 HD
BRANCH  18  20
ATOM     20  O   UNL     1      -6.660  14.711  16.195  0.00  0.00    +0.000 OA
ATOM     21  H   UNL     1      -7.061  13.862  15.904  0.00  0.00    +0.000 HD
ENDBRANCH  18  20
ENDBRANCH   7  17
ENDBRANCH   1  11
BRANCH   4  22
ATOM     22  O   UNL     1       1.928   8.523  19.324  0.00  0.00    +0.000 OA
BRANCH  22  23
ATOM     23  C   UNL     1       2.120   7.370  18.305  0.00  0.00    +0.000 C 
BRANCH  23  24
ATOM     24  C   UNL     1       2.551   6.022  18.945  0.00  0.00    +0.000 A 
ATOM     25  C   UNL     1       3.847   6.240  19.336  0.00  0.00    +0.000 A 
ATOM     26  C   UNL     1       4.662   5.391  18.692  0.00  0.00    +0.000 A 
ATOM     27  N   UNL     1       4.584   4.236  19.290  0.00  0.00    +0.000 NA
ATOM     28  C   UNL     1       3.366   3.724  19.227  0.00  0.00    +0.000 A 
ATOM     29  C   UNL     1       3.452   2.354  19.116  0.00  0.00    +0.000 A 
ATOM     30  C   UNL     1       2.367   1.576  18.787  0.00  0.00    +0.000 A 
ATOM     31  C   UNL     1       1.137   2.218  18.672  0.00  0.00    +0.000 A 
ATOM     32  C   UNL     1       1.033   3.658  18.765  0.00  0.00    +0.000 A 
ATOM     33  C   UNL     1       2.192   4.538  18.996  0.00  0.00    +0.000 A 
BRANCH  26  34
ATOM     34  C   UNL     1       4.774   5.188  17.196  0.00  0.00    +0.000 A 
ATOM     35  C   UNL     1       4.859   6.363  16.471  0.00  0.00    +0.000 A 
ATOM     36  C   UNL     1       5.580   6.362  15.287  0.00  0.00    +0.000 A 
ATOM     37  N   UNL     1       6.160   5.275  14.744  0.00  0.00    +0.000 NA
ATOM     38  C   UNL     1       5.963   4.107  15.383  0.00  0.00    +0.000 A 
ATOM     39  C   UNL     1       5.236   4.004  16.559  0.00  0.00    +0.000 A 
ENDBRANCH  26  34
ENDBRANCH  23  24
ENDBRANCH  22  23
ENDBRANCH   4  22
TORSDOF 7
ENDMDL
MODEL 5
REMARK VINA RESULT:      -9.6      5.024      9.805
REMARK  Name = 
REMARK  7 active torsions:
REMARK  status: ('A' for Active; 'I' for Inactive)
REMARK    1  A    between atoms: C_2  and  C_5
REMARK    2  A    between atoms: N_3  and  O_4
REMARK    3  A    between atoms: C_9  and  C_10
REMARK    4  A    between atoms: C_13  and  O_14
REMARK    5  A    between atoms: O_14  and  C_15
REMARK    6  A    between atoms: C_15  and  C_16
REMARK    7  A    between atoms: C_18  and  C_19
REMARK                            x       y       z     vdW  Elec       q    Type
REMARK                         _______ _______ _______ _____ _____    ______ ____
ROOT
ATOM      1  C   UNL     1       2.485   7.404  18.613  0.00  0.00    +0.000 A 
ATOM      2  C   UNL     1       1.944   7.638  19.890  0.00  0.00    +0.000 A 
ATOM      3  C   UNL     1       1.294   8.872  20.252  0.00  0.00    +0.000 A 
ATOM      4  C   UNL     1       1.152   9.943  19.370  0.00  0.00    +0.000 A 
ATOM      5  C   UNL     1       1.668   9.723  18.094  0.00  0.00    +0.000 A 
ATOM      6  C   UNL     1       2.329   8.486  17.734  0.00  0.00    +0.000 A 
ENDROOT
BRANCH   1  11
ATOM      7  C   UNL     1       6.494   4.513  16.942  0.00  0.00    +0.000 C 
ATOM      8  C   UNL     1       6.932   5.615  17.873  0.00  0.00    +0.000 C 
ATOM      9  C   UNL     1       5.463   5.214  17.838  0.00  0.00    +0.000 C 
ATOM     10  C   UNL     1       4.433   6.199  17.287  0.00  0.00    +0.000 C 
ATOM     11  C   UNL     1       3.228   6.088  18.271  0.00  0.00    +0.000 C 
ATOM     12  N   UNL     1       3.752   5.308  19.394  0.00  0.00    +0.000 N 
ATOM     13  C   UNL     1       4.892   4.606  19.065  0.00  0.00    +0.000 C 
ATOM     14  O   UNL     1       5.370   3.644  19.651  0.00  0.00    +0.000 OA
ATOM     15  H   UNL     1       3.147   4.886  20.088  0.00  0.00    +0.000 HD
BRANCH   7  17
ATOM     16  O   UNL     1       5.696   4.349  14.703  0.00  0.00    +0.000 OA
ATOM     17  C   UNL     1       6.562   4.757  15.473  0.00  0.00    +0.000 C 
ATOM     18  N   UNL     1       7.661   5.448  15.032  0.00  0.00    +0.000 N 
ATOM     19  H   UNL     1       8.415   5.800  15.610  0.00  0.00    +0.000 HD
BRANCH  18  20
ATOM     20  O   UNL     1       7.776   5.636  13.635  0.00  0.00    +0.000 OA
ATOM     21  H   UNL     1       8.599   6.167  13.559  0.00  0.00    +0.000 HD
ENDBRANCH  18  20
ENDBRANCH   7  17
ENDBRANCH   1  11
BRANCH   4  22
ATOM     22  O   UNL     1       0.550  11.118  19.841  0.00  0.00    +0.000 OA
BRANCH  22  23
ATOM     23  C   UNL     1       1.240  12.388  20.405  0.00  0.00    +0.000 C 
BRANCH  23  24
ATOM     24  C   UNL     1       1.478  13.504  19.351  0.00  0.00    +0.000 A 
ATOM     25  C   UNL     1       2.775  13.309  18.950  0.00  0.00    +0.000 A 
ATOM     26  C   UNL     1       3.504  14.398  19.239  0.00  0.00    +0.000 A 
ATOM     27  N   UNL     1       3.263  15.292  18.322  0.00  0.00    +0.000 NA
ATOM     28  C   UNL     1       1.995  15.667  18.314  0.00  0.00    +0.000 A 
ATOM     29  C   UNL     1       1.917  17.004  17.991  0.00  0.00    +0.000 A 
ATOM     30  C   UNL     1       0.758  17.728  18.145  0.00  0.00    +0.000 A 
ATOM     31  C   UNL     1      -0.379  17.030  18.543  0.00  0.00    +0.000 A 
ATOM     32  C   UNL     1      -0.309  15.632  18.906  0.00  0.00    +0.000 A 
ATOM     33  C   UNL     1       0.938  14.850  18.872  0.00  0.00    +0.000 A 
BRANCH  26  34
ATOM     34  C   UNL     1       3.648  15.071  20.587  0.00  0.00    +0.000 A 
ATOM     35  C   UNL     1       4.017  14.217  21.609  0.00  0.00    +0.000 A 
ATOM     36  C   UNL     1       4.782  14.719  22.651  0.00  0.00    +0.000 A 
ATOM     37  N   UNL     1       5.146  16.008  22.782  0.00  0.00    +0.000 NA
ATOM     38  C   UNL     1       4.673  16.862  21.856  0.00  0.00    +0.000 A 
ATOM     39  C   UNL     1       3.881  16.459  20.792  0.00  0.00    +0.000 A 
ENDBRANCH  26  34
ENDBRANCH  23  24
ENDBRANCH  22  23
ENDBRANCH   4  22
TORSDOF 7
ENDMDL
MODEL 6
REMARK VINA RESULT:      -9.6      5.262      8.755
REMARK  Name = 
REMARK  7 active torsions:
REMARK  status: ('A' for Active; 'I' for Inactive)
REMARK    1  A    between atoms: C_2  and  C_5
REMARK    2  A    between atoms: N_3  and  O_4
REMARK    3  A    between atoms: C_9  and  C_10
REMARK    4  A    between atoms: C_13  and  O_14
REMARK    5  A    between atoms: O_14  and  C_15
REMARK    6  A    between atoms: C_15  and  C_16
REMARK    7  A    between atoms: C_18  and  C_19
REMARK                            x       y       z     vdW  Elec       q    Type
REMARK                         _______ _______ _______ _____ _____    ______ ____
ROOT
ATOM      1  C   UNL     1       5.231   5.325  16.253  0.00  0.00    +0.000 A 
ATOM      2  C   UNL     1       5.153   6.728  16.327  0.00  0.00    +0.000 A 
ATOM      3  C   UNL     1       4.167   7.418  17.119  0.00  0.00    +0.000 A 
ATOM      4  C   UNL     1       3.199   6.755  17.873  0.00  0.00    +0.000 A 
ATOM      5  C   UNL     1       3.271   5.364  17.826  0.00  0.00    +0.000 A 
ATOM      6  C   UNL     1       4.258   4.671  17.023  0.00  0.00    +0.000 A 
ENDROOT
BRANCH   1  11
ATOM      7  C   UNL     1       7.076   3.358  11.787  0.00  0.00    +0.000 C 
ATOM      8  C   UNL     1       6.456   4.720  11.600  0.00  0.00    +0.000 C 
ATOM      9  C   UNL     1       6.835   4.264  13.002  0.00  0.00    +0.000 C 
ATOM     10  C   UNL     1       5.731   3.991  14.023  0.00  0.00    +0.000 C 
ATOM     11  C   UNL     1       6.268   4.613  15.349  0.00  0.00    +0.000 C 
ATOM     12  N   UNL     1       7.435   5.392  14.932  0.00  0.00    +0.000 N 
ATOM     13  C   UNL     1       7.913   5.013  13.696  0.00  0.00    +0.000 C 
ATOM     14  O   UNL     1       9.021   5.229  13.226  0.00  0.00    +0.000 OA
ATOM     15  H   UNL     1       8.122   5.734  15.595  0.00  0.00    +0.000 HD
BRANCH   7  17
ATOM     16  O   UNL     1       5.012   2.218  11.446  0.00  0.00    +0.000 OA
ATOM     17  C   UNL     1       6.237   2.155  11.518  0.00  0.00    +0.000 C 
ATOM     18  N   UNL     1       6.916   0.972  11.377  0.00  0.00    +0.000 N 
ATOM     19  H   UNL     1       7.920   0.850  11.438  0.00  0.00    +0.000 HD
BRANCH  18  20
ATOM     20  O   UNL     1       6.135  -0.190  11.184  0.00  0.00    +0.000 OA
ATOM     21  H   UNL     1       6.013  -0.519  12.102  0.00  0.00    +0.000 HD
ENDBRANCH  18  20
ENDBRANCH   7  17
ENDBRANCH   1  11
BRANCH   4  22
ATOM     22  O   UNL     1       2.253   7.522  18.566  0.00  0.00    +0.000 OA
BRANCH  22  23
ATOM     23  C   UNL     1       1.746   8.949  18.230  0.00  0.00    +0.000 C 
BRANCH  23  24
ATOM     24  C   UNL     1       0.589   9.444  19.141  0.00  0.00    +0.000 A 
ATOM     25  C   UNL     1      -0.078  10.356  18.363  0.00  0.00    +0.000 A 
ATOM     26  C   UNL     1      -0.038  11.562  18.948  0.00  0.00    +0.000 A 
ATOM     27  N   UNL     1      -0.938  11.577  19.890  0.00  0.00    +0.000 NA
ATOM     28  C   UNL     1      -0.687  10.683  20.832  0.00  0.00    +0.000 A 
ATOM     29  C   UNL     1      -1.078  11.185  22.053  0.00  0.00    +0.000 A 
ATOM     30  C   UNL     1      -0.720  10.588  23.239  0.00  0.00    +0.000 A 
ATOM     31  C   UNL     1      -0.028   9.382  23.160  0.00  0.00    +0.000 A 
ATOM     32  C   UNL     1       0.408   8.853  21.887  0.00  0.00    +0.000 A 
ATOM     33  C   UNL     1       0.150   9.524  20.601  0.00  0.00    +0.000 A 
BRANCH  26  34
ATOM     34  C   UNL     1       1.192  12.319  19.402  0.00  0.00    +0.000 A 
ATOM     35  C   UNL     1       2.154  12.476  18.421  0.00  0.00    +0.000 A 
ATOM     36  C   UNL     1       2.952  13.609  18.450  0.00  0.00    +0.000 A 
ATOM     37  N   UNL     1       2.911  14.552  19.409  0.00  0.00    +0.000 NA
ATOM     38  C   UNL     1       2.067  14.329  20.434  0.00  0.00    +0.000 A 
ATOM     39  C   UNL     1       1.247  13.214  20.507  0.00  0.00    +0.000 A 
ENDBRANCH  26  34
ENDBRANCH  23  24
ENDBRANCH  22  23
ENDBRANCH   4  22
TORSDOF 7
ENDMDL
MODEL 7
REMARK VINA RESULT:      -9.6      5.556      9.846
REMARK  Name = 
REMARK  7 active torsions:
REMARK  status: ('A' for Active; 'I' for Inactive)
REMARK    1  A    between atoms: C_2  and  C_5
REMARK    2  A    between atoms: N_3  and  O_4
REMARK    3  A    between atoms: C_9  and  C_10
REMARK    4  A    between atoms: C_13  and  O_14
REMARK    5  A    between atoms: O_14  and  C_15
REMARK    6  A    between atoms: C_15  and  C_16
REMARK    7  A    between atoms: C_18  and  C_19
REMARK                            x       y       z     vdW  Elec       q    Type
REMARK                         _______ _______ _______ _____ _____    ______ ____
ROOT
ATOM      1  C   UNL     1       2.634   7.187  18.522  0.00  0.00    +0.000 A 
ATOM      2  C   UNL     1       2.080   7.408  19.796  0.00  0.00    +0.000 A 
ATOM      3  C   UNL     1       1.404   8.629  20.157  0.00  0.00    +0.000 A 
ATOM      4  C   UNL     1       1.249   9.700  19.276  0.00  0.00    +0.000 A 
ATOM      5  C   UNL     1       1.777   9.492  18.003  0.00  0.00    +0.000 A 
ATOM      6  C   UNL     1       2.464   8.268  17.645  0.00  0.00    +0.000 A 
ENDROOT
BRANCH   1  11
ATOM      7  C   UNL     1       6.749   4.368  16.991  0.00  0.00    +0.000 C 
ATOM      8  C   UNL     1       7.126   5.443  17.979  0.00  0.00    +0.000 C 
ATOM      9  C   UNL     1       5.665   5.037  17.849  0.00  0.00    +0.000 C 
ATOM     10  C   UNL     1       4.660   6.032  17.271  0.00  0.00    +0.000 C 
ATOM     11  C   UNL     1       3.403   5.886  18.183  0.00  0.00    +0.000 C 
ATOM     12  N   UNL     1       3.868   5.074  19.308  0.00  0.00    +0.000 N 
ATOM     13  C   UNL     1       5.029   4.388  19.023  0.00  0.00    +0.000 C 
ATOM     14  O   UNL     1       5.481   3.411  19.605  0.00  0.00    +0.000 OA
ATOM     15  H   UNL     1       3.228   4.628  19.955  0.00  0.00    +0.000 HD
BRANCH   7  17
ATOM     16  O   UNL     1       7.452   5.676  15.129  0.00  0.00    +0.000 OA
ATOM     17  C   UNL     1       6.897   4.658  15.536  0.00  0.00    +0.000 C 
ATOM     18  N   UNL     1       6.358   3.730  14.683  0.00  0.00    +0.000 N 
ATOM     19  H   UNL     1       5.878   2.881  14.954  0.00  0.00    +0.000 HD
BRANCH  18  20
ATOM     20  O   UNL     1       6.433   4.018  13.301  0.00  0.00    +0.000 OA
ATOM     21  H   UNL     1       7.085   4.753  13.273  0.00  0.00    +0.000 HD
ENDBRANCH  18  20
ENDBRANCH   7  17
ENDBRANCH   1  11
BRANCH   4  22
ATOM     22  O   UNL     1       0.622  10.862  19.745  0.00  0.00    +0.000 OA
BRANCH  22  23
ATOM     23  C   UNL     1       0.136  12.085  18.925  0.00  0.00    +0.000 C 
BRANCH  23  24
ATOM     24  C   UNL     1       0.546  13.457  19.525  0.00  0.00    +0.000 A 
ATOM     25  C   UNL     1       1.168  13.131  20.703  0.00  0.00    +0.000 A 
ATOM     26  C   UNL     1       0.497  13.670  21.732  0.00  0.00    +0.000 A 
ATOM     27  N   UNL     1       0.828  14.928  21.806  0.00  0.00    +0.000 NA
ATOM     28  C   UNL     1       0.477  15.599  20.722  0.00  0.00    +0.000 A 
ATOM     29  C   UNL     1       0.104  16.877  21.077  0.00  0.00    +0.000 A 
ATOM     30  C   UNL     1      -0.539  17.722  20.203  0.00  0.00    +0.000 A 
ATOM     31  C   UNL     1      -0.708  17.274  18.895  0.00  0.00    +0.000 A 
ATOM     32  C   UNL     1      -0.341  15.929  18.512  0.00  0.00    +0.000 A 
ATOM     33  C   UNL     1       0.239  14.951  19.449  0.00  0.00    +0.000 A 
BRANCH  26  34
ATOM     34  C   UNL     1      -0.974  13.507  22.052  0.00  0.00    +0.000 A 
ATOM     35  C   UNL     1      -1.367  12.196  22.251  0.00  0.00    +0.000 A 
ATOM     36  C   UNL     1      -2.406  11.941  23.131  0.00  0.00    +0.000 A 
ATOM     37  N   UNL     1      -3.119  12.887  23.771  0.00  0.00    +0.000 NA
ATOM     38  C   UNL     1      -2.821  14.166  23.474  0.00  0.00    +0.000 A 
ATOM     39  C   UNL     1      -1.817  14.520  22.587  0.00  0.00    +0.000 A 
ENDBRANCH  26  34
ENDBRANCH  23  24
ENDBRANCH  22  23
ENDBRANCH   4  22
TORSDOF 7
ENDMDL
MODEL 8
REMARK VINA RESULT:      -9.5      5.675      9.483
REMARK  Name = 
REMARK  7 active torsions:
REMARK  status: ('A' for Active; 'I' for Inactive)
REMARK    1  A    between atoms: C_2  and  C_5
REMARK    2  A    between atoms: N_3  and  O_4
REMARK    3  A    between atoms: C_9  and  C_10
REMARK    4  A    between atoms: C_13  and  O_14
REMARK    5  A    between atoms: O_14  and  C_15
REMARK    6  A    between atoms: C_15  and  C_16
REMARK    7  A    between atoms: C_18  and  C_19
REMARK                            x       y       z     vdW  Elec       q    Type
REMARK                         _______ _______ _______ _____ _____    ______ ____
ROOT
ATOM      1  C   UNL     1       2.578   7.041  18.714  0.00  0.00    +0.000 A 
ATOM      2  C   UNL     1       2.348   8.128  17.852  0.00  0.00    +0.000 A 
ATOM      3  C   UNL     1       1.684   9.336  18.273  0.00  0.00    +0.000 A 
ATOM      4  C   UNL     1       1.204   9.527  19.569  0.00  0.00    +0.000 A 
ATOM      5  C   UNL     1       1.438   8.467  20.442  0.00  0.00    +0.000 A 
ATOM      6  C   UNL     1       2.097   7.249  20.015  0.00  0.00    +0.000 A 
ENDROOT
BRANCH   1  11
ATOM      7  C   UNL     1       6.435   4.132  16.742  0.00  0.00    +0.000 C 
ATOM      8  C   UNL     1       6.919   5.077  17.813  0.00  0.00    +0.000 C 
ATOM      9  C   UNL     1       5.430   4.780  17.706  0.00  0.00    +0.000 C 
ATOM     10  C   UNL     1       4.475   5.890  17.272  0.00  0.00    +0.000 C 
ATOM     11  C   UNL     1       3.244   5.734  18.217  0.00  0.00    +0.000 C 
ATOM     12  N   UNL     1       3.694   4.786  19.237  0.00  0.00    +0.000 N 
ATOM     13  C   UNL     1       4.795   4.058  18.838  0.00  0.00    +0.000 C 
ATOM     14  O   UNL     1       5.199   3.001  19.302  0.00  0.00    +0.000 OA
ATOM     15  H   UNL     1       3.049   4.319  19.864  0.00  0.00    +0.000 HD
BRANCH   7  17
ATOM     16  O   UNL     1       5.696   4.271  14.482  0.00  0.00    +0.000 OA
ATOM     17  C   UNL     1       6.550   4.557  15.318  0.00  0.00    +0.000 C 
ATOM     18  N   UNL     1       7.677   5.267  14.995  0.00  0.00    +0.000 N 
ATOM     19  H   UNL     1       8.423   5.523  15.631  0.00  0.00    +0.000 HD
BRANCH  18  20
ATOM     20  O   UNL     1       7.836   5.625  13.636  0.00  0.00    +0.000 OA
ATOM     21  H   UNL     1       7.047   5.216  13.216  0.00  0.00    +0.000 HD
ENDBRANCH  18  20
ENDBRANCH   7  17
ENDBRANCH   1  11
BRANCH   4  22
ATOM     22  O   UNL     1       0.526  10.719  19.859  0.00  0.00    +0.000 OA
BRANCH  22  23
ATOM     23  C   UNL     1       0.061  11.243  21.242  0.00  0.00    +0.000 C 
BRANCH  23  24
ATOM     24  C   UNL     1      -1.451  11.595  21.313  0.00  0.00    +0.000 A 
ATOM     25  C   UNL     1      -1.810  11.777  20.003  0.00  0.00    +0.000 A 
ATOM     26  C   UNL     1      -2.243  13.034  19.824  0.00  0.00    +0.000 A 
ATOM     27  N   UNL     1      -3.470  13.097  20.261  0.00  0.00    +0.000 NA
ATOM     28  C   UNL     1      -3.551  12.841  21.555  0.00  0.00    +0.000 A 
ATOM     29  C   UNL     1      -4.545  13.615  22.112  0.00  0.00    +0.000 A 
ATOM     30  C   UNL     1      -4.695  13.747  23.473  0.00  0.00    +0.000 A 
ATOM     31  C   UNL     1      -3.864  12.975  24.281  0.00  0.00    +0.000 A 
ATOM     32  C   UNL     1      -2.803  12.173  23.713  0.00  0.00    +0.000 A 
ATOM     33  C   UNL     1      -2.531  12.101  22.267  0.00  0.00    +0.000 A 
BRANCH  26  34
ATOM     34  C   UNL     1      -1.510  14.313  20.170  0.00  0.00    +0.000 A 
ATOM     35  C   UNL     1      -0.285  14.449  19.543  0.00  0.00    +0.000 A 
ATOM     36  C   UNL     1       0.166  15.723  19.235  0.00  0.00    +0.000 A 
ATOM     37  N   UNL     1      -0.475  16.861  19.560  0.00  0.00    +0.000 NA
ATOM     38  C   UNL     1      -1.600  16.731  20.287  0.00  0.00    +0.000 A 
ATOM     39  C   UNL     1      -2.115  15.501  20.665  0.00  0.00    +0.000 A 
ENDBRANCH  26  34
ENDBRANCH  23  24
ENDBRANCH  22  23
ENDBRANCH   4  22
TORSDOF 7
ENDMDL
MODEL 9
REMARK VINA RESULT:      -9.5      5.719      9.531
REMARK  Name = 
REMARK  7 active torsions:
REMARK  status: ('A' for Active; 'I' for Inactive)
REMARK    1  A    between atoms: C_2  and  C_5
REMARK    2  A    between atoms: N_3  and  O_4
REMARK    3  A    between atoms: C_9  and  C_10
REMARK    4  A    between atoms: C_13  and  O_14
REMARK    5  A    between atoms: O_14  and  C_15
REMARK    6  A    between atoms: C_15  and  C_16
REMARK    7  A    between atoms: C_18  and  C_19
REMARK                            x       y       z     vdW  Elec       q    Type
REMARK                         _______ _______ _______ _____ _____    ______ ____
ROOT
ATOM      1  C   UNL     1       2.497   7.039  18.750  0.00  0.00    +0.000 A 
ATOM      2  C   UNL     1       2.066   7.257  20.072  0.00  0.00    +0.000 A 
ATOM      3  C   UNL     1       1.405   8.466  20.492  0.00  0.00    +0.000 A 
ATOM      4  C   UNL     1       1.143   9.529  19.627  0.00  0.00    +0.000 A 
ATOM      5  C   UNL     1       1.547   9.324  18.309  0.00  0.00    +0.000 A 
ATOM      6  C   UNL     1       2.220   8.112  17.889  0.00  0.00    +0.000 A 
ENDROOT
BRANCH   1  11
ATOM      7  C   UNL     1       6.535   4.286  16.923  0.00  0.00    +0.000 C 
ATOM      8  C   UNL     1       6.962   5.348  17.904  0.00  0.00    +0.000 C 
ATOM      9  C   UNL     1       5.499   4.930  17.856  0.00  0.00    +0.000 C 
ATOM     10  C   UNL     1       4.453   5.926  17.358  0.00  0.00    +0.000 C 
ATOM     11  C   UNL     1       3.255   5.752  18.342  0.00  0.00    +0.000 C 
ATOM     12  N   UNL     1       3.795   4.926  19.423  0.00  0.00    +0.000 N 
ATOM     13  C   UNL     1       4.942   4.255  19.055  0.00  0.00    +0.000 C 
ATOM     14  O   UNL     1       5.436   3.273  19.592  0.00  0.00    +0.000 OA
ATOM     15  H   UNL     1       3.200   4.462  20.099  0.00  0.00    +0.000 HD
BRANCH   7  17
ATOM     16  O   UNL     1       5.747   4.188  14.676  0.00  0.00    +0.000 OA
ATOM     17  C   UNL     1       6.592   4.603  15.467  0.00  0.00    +0.000 C 
ATOM     18  N   UNL     1       7.655   5.367  15.062  0.00  0.00    +0.000 N 
ATOM     19  H   UNL     1       8.390   5.728  15.658  0.00  0.00    +0.000 HD
BRANCH  18  20
ATOM     20  O   UNL     1       7.762   5.626  13.676  0.00  0.00    +0.000 OA
ATOM     21  H   UNL     1       7.220   6.439  13.570  0.00  0.00    +0.000 HD
ENDBRANCH  18  20
ENDBRANCH   7  17
ENDBRANCH   1  11
BRANCH   4  22
ATOM     22  O   UNL     1       0.542  10.682  20.150  0.00  0.00    +0.000 OA
BRANCH  22  23
ATOM     23  C   UNL     1      -0.214  10.841  21.495  0.00  0.00    +0.000 C 
BRANCH  23  24
ATOM     24  C   UNL     1      -1.385  11.859  21.449  0.00  0.00    +0.000 A 
ATOM     25  C   UNL     1      -1.110  12.632  20.351  0.00  0.00    +0.000 A 
ATOM     26  C   UNL     1      -0.940  13.908  20.728  0.00  0.00    +0.000 A 
ATOM     27  N   UNL     1      -2.121  14.430  20.906  0.00  0.00    +0.000 NA
ATOM     28  C   UNL     1      -2.790  13.827  21.875  0.00  0.00    +0.000 A 
ATOM     29  C   UNL     1      -3.558  14.754  22.544  0.00  0.00    +0.000 A 
ATOM     30  C   UNL     1      -4.167  14.470  23.744  0.00  0.00    +0.000 A 
ATOM     31  C   UNL     1      -4.068  13.163  24.214  0.00  0.00    +0.000 A 
ATOM     32  C   UNL     1      -3.248  12.185  23.534  0.00  0.00    +0.000 A 
ATOM     33  C   UNL     1      -2.481  12.482  22.312  0.00  0.00    +0.000 A 
BRANCH  26  34
ATOM     34  C   UNL     1       0.017  14.433  21.777  0.00  0.00    +0.000 A 
ATOM     35  C   UNL     1       1.349  14.194  21.497  0.00  0.00    +0.000 A 
ATOM     36  C   UNL     1       2.295  15.103  21.946  0.00  0.00    +0.000 A 
ATOM     37  N   UNL     1       2.023  16.183  22.700  0.00  0.00    +0.000 NA
ATOM     38  C   UNL     1       0.742  16.340  23.083  0.00  0.00    +0.000 A 
ATOM     39  C   UNL     1      -0.270  15.471  22.706  0.00  0.00    +0.000 A 
ENDBRANCH  26  34
ENDBRANCH  23  24
ENDBRANCH  22  23
ENDBRANCH   4  22
TORSDOF 7
ENDMDL
