MODEL 1
REMARK VINA RESULT:      -9.0      0.000      0.000
REMARK  Name = 
REMARK  6 active torsions:
REMARK  status: ('A' for Active; 'I' for Inactive)
REMARK    1  A    between atoms: C_2  and  C_3
REMARK    2  A    between atoms: C_2  and  C_4
REMARK    3  A    between atoms: C_7  and  C_8
REMARK    4  A    between atoms: N_10  and  N_11
REMARK    5  A    between atoms: C_18  and  C_19
REMARK    6  A    between atoms: C_22  and  C_23
REMARK                            x       y       z     vdW  Elec       q    Type
REMARK                         _______ _______ _______ _____ _____    ______ ____
ROOT
ATOM      1  N   UNL     1       9.167   9.657  19.198  0.00  0.00    +0.000 N 
ATOM      2  C   UNL     1       8.488   8.683  18.459  0.00  0.00    +0.000 C 
ATOM      3  O   UNL     1       7.921   8.914  17.392  0.00  0.00    +0.000 OA
ATOM      4  N   UNL     1       8.508   7.454  19.090  0.00  0.00    +0.000 N 
ATOM      5  C   UNL     1       7.903   6.347  18.550  0.00  0.00    +0.000 A 
ATOM      6  N   UNL     1       7.597   5.241  19.192  0.00  0.00    +0.000 NA
ATOM      7  N   UNL     1       7.001   4.403  18.269  0.00  0.00    +0.000 NA
ATOM      8  C   UNL     1       7.022   5.040  17.115  0.00  0.00    +0.000 A 
ATOM      9  O   UNL     1       7.593   6.285  17.223  0.00  0.00    +0.000 OA
ATOM     10  H   UNL     1       9.764   9.381  19.967  0.00  0.00    +0.000 HD
ATOM     11  H   UNL     1       8.693   7.395  20.074  0.00  0.00    +0.000 HD
ENDROOT
BRANCH   1  18
ATOM     12  C   UNL     1       9.631  12.900  22.061  0.00  0.00    +0.000 C 
ATOM     13  C   UNL     1       9.985  14.239  21.401  0.00  0.00    +0.000 C 
ATOM     14  C   UNL     1       9.648  14.359  19.954  0.00  0.00    +0.000 C 
ATOM     15  C   UNL     1       9.353  13.351  19.121  0.00  0.00    +0.000 C 
ATOM     16  C   UNL     1       9.055  13.594  17.668  0.00  0.00    +0.000 C 
ATOM     17  C   UNL     1       9.349  11.939  19.629  0.00  0.00    +0.000 C 
ATOM     18  N   UNL     1       9.162  10.965  18.777  0.00  0.00    +0.000 NA
ATOM     19  C   UNL     1       9.592  11.693  21.112  0.00  0.00    +0.000 C 
BRANCH  12  21
ATOM     20  C   UNL     1       7.518  11.932  22.996  0.00  0.00    +0.000 C 
ATOM     21  C   UNL     1       8.400  12.950  22.973  0.00  0.00    +0.000 C 
ATOM     22  C   UNL     1       8.167  14.165  23.826  0.00  0.00    +0.000 C 
ENDBRANCH  12  21
ENDBRANCH   1  18
BRANCH   8  23
ATOM     23  C   UNL     1       6.553   4.620  15.795  0.00  0.00    +0.000 A 
ATOM     24  C   UNL     1       7.380   4.785  14.672  0.00  0.00    +0.000 A 
ATOM     25  C   UNL     1       6.954   4.387  13.396  0.00  0.00    +0.000 A 
ATOM     26  C   UNL     1       5.690   3.819  13.217  0.00  0.00    +0.000 A 
ATOM     27  C   UNL     1       5.217   3.392  11.857  0.00  0.00    +0.000 C 
ATOM     28  C   UNL     1       4.859   3.655  14.330  0.00  0.00    +0.000 A 
ATOM     29  C   UNL     1       5.288   4.048  15.604  0.00  0.00    +0.000 A 
ENDBRANCH   8  23
TORSDOF 3
ENDMDL
MODEL 2
REMARK VINA RESULT:      -8.4      8.214     12.130
REMARK  Name = 
REMARK  6 active torsions:
REMARK  status: ('A' for Active; 'I' for Inactive)
REMARK    1  A    between atoms: C_2  and  C_3
REMARK    2  A    between atoms: C_2  and  C_4
REMARK    3  A    between atoms: C_7  and  C_8
REMARK    4  A    between atoms: N_10  and  N_11
REMARK    5  A    between atoms: C_18  and  C_19
REMARK    6  A    between atoms: C_22  and  C_23
REMARK                            x       y       z     vdW  Elec       q    Type
REMARK                         _______ _______ _______ _____ _____    ______ ____
ROOT
ATOM      1  N   UNL     1       1.929   7.508  20.956  0.00  0.00    +0.000 N 
ATOM      2  C   UNL     1       0.924   8.462  21.150  0.00  0.00    +0.000 C 
ATOM      3  O   UNL     1      -0.274   8.185  21.196  0.00  0.00    +0.000 OA
ATOM      4  N   UNL     1       1.441   9.739  21.250  0.00  0.00    +0.000 N 
ATOM      5  C   UNL     1       0.642  10.837  21.441  0.00  0.00    +0.000 A 
ATOM      6  N   UNL     1       0.986  12.090  21.240  0.00  0.00    +0.000 NA
ATOM      7  N   UNL     1      -0.122  12.856  21.550  0.00  0.00    +0.000 NA
ATOM      8  C   UNL     1      -1.054  12.019  21.960  0.00  0.00    +0.000 A 
ATOM      9  O   UNL     1      -0.629  10.714  21.924  0.00  0.00    +0.000 OA
ATOM     10  H   UNL     1       2.897   7.758  21.106  0.00  0.00    +0.000 HD
ATOM     11  H   UNL     1       2.357   9.942  20.892  0.00  0.00    +0.000 HD
ENDROOT
BRANCH   1  18
ATOM     12  C   UNL     1       4.613   4.891  18.748  0.00  0.00    +0.000 C 
ATOM     13  C   UNL     1       4.278   3.403  18.919  0.00  0.00    +0.000 C 
ATOM     14  C   UNL     1       2.888   3.098  19.362  0.00  0.00    +0.000 C 
ATOM     15  C   UNL     1       2.018   3.963  19.900  0.00  0.00    +0.000 C 
ATOM     16  C   UNL     1       0.646   3.530  20.337  0.00  0.00    +0.000 C 
ATOM     17  C   UNL     1       2.419   5.394  20.109  0.00  0.00    +0.000 C 
ATOM     18  N   UNL     1       1.593   6.195  20.730  0.00  0.00    +0.000 NA
ATOM     19  C   UNL     1       3.785   5.851  19.615  0.00  0.00    +0.000 C 
BRANCH  12  21
ATOM     20  C   UNL     1       4.514   6.657  16.974  0.00  0.00    +0.000 C 
ATOM     21  C   UNL     1       4.691   5.359  17.291  0.00  0.00    +0.000 C 
ATOM     22  C   UNL     1       4.940   4.348  16.207  0.00  0.00    +0.000 C 
ENDBRANCH  12  21
ENDBRANCH   1  18
BRANCH   8  23
ATOM     23  C   UNL     1      -2.412  12.277  22.439  0.00  0.00    +0.000 A 
ATOM     24  C   UNL     1      -3.413  12.666  21.533  0.00  0.00    +0.000 A 
ATOM     25  C   UNL     1      -4.723  12.916  21.968  0.00  0.00    +0.000 A 
ATOM     26  C   UNL     1      -5.058  12.786  23.318  0.00  0.00    +0.000 A 
ATOM     27  C   UNL     1      -6.455  13.054  23.800  0.00  0.00    +0.000 C 
ATOM     28  C   UNL     1      -4.066  12.402  24.226  0.00  0.00    +0.000 A 
ATOM     29  C   UNL     1      -2.760  12.148  23.791  0.00  0.00    +0.000 A 
ENDBRANCH   8  23
TORSDOF 3
ENDMDL
MODEL 3
REMARK VINA RESULT:      -8.4      8.190     12.108
REMARK  Name = 
REMARK  6 active torsions:
REMARK  status: ('A' for Active; 'I' for Inactive)
REMARK    1  A    between atoms: C_2  and  C_3
REMARK    2  A    between atoms: C_2  and  C_4
REMARK    3  A    between atoms: C_7  and  C_8
REMARK    4  A    between atoms: N_10  and  N_11
REMARK    5  A    between atoms: C_18  and  C_19
REMARK    6  A    between atoms: C_22  and  C_23
REMARK                            x       y       z     vdW  Elec       q    Type
REMARK                         _______ _______ _______ _____ _____    ______ ____
ROOT
ATOM      1  N   UNL     1       1.932   7.458  20.963  0.00  0.00    +0.000 N 
ATOM      2  C   UNL     1       0.934   8.422  21.142  0.00  0.00    +0.000 C 
ATOM      3  O   UNL     1      -0.266   8.157  21.175  0.00  0.00    +0.000 OA
ATOM      4  N   UNL     1       1.463   9.694  21.241  0.00  0.00    +0.000 N 
ATOM      5  C   UNL     1       0.673  10.801  21.417  0.00  0.00    +0.000 A 
ATOM      6  N   UNL     1       1.031  12.050  21.214  0.00  0.00    +0.000 NA
ATOM      7  N   UNL     1      -0.073  12.828  21.507  0.00  0.00    +0.000 NA
ATOM      8  C   UNL     1      -1.017  12.002  21.911  0.00  0.00    +0.000 A 
ATOM      9  O   UNL     1      -0.604  10.693  21.887  0.00  0.00    +0.000 OA
ATOM     10  H   UNL     1       2.901   7.699  21.124  0.00  0.00    +0.000 HD
ATOM     11  H   UNL     1       2.385   9.886  20.893  0.00  0.00    +0.000 HD
ENDROOT
BRANCH   1  18
ATOM     12  C   UNL     1       4.592   4.816  18.756  0.00  0.00    +0.000 C 
ATOM     13  C   UNL     1       4.247   3.332  18.929  0.00  0.00    +0.000 C 
ATOM     14  C   UNL     1       2.856   3.037  19.376  0.00  0.00    +0.000 C 
ATOM     15  C   UNL     1       1.993   3.910  19.914  0.00  0.00    +0.000 C 
ATOM     16  C   UNL     1       0.619   3.488  20.354  0.00  0.00    +0.000 C 
ATOM     17  C   UNL     1       2.405   5.338  20.119  0.00  0.00    +0.000 C 
ATOM     18  N   UNL     1       1.586   6.146  20.741  0.00  0.00    +0.000 NA
ATOM     19  C   UNL     1       3.773   5.784  19.622  0.00  0.00    +0.000 C 
BRANCH  12  21
ATOM     20  C   UNL     1       4.914   4.401  16.307  0.00  0.00    +0.000 C 
ATOM     21  C   UNL     1       4.672   5.281  17.298  0.00  0.00    +0.000 C 
ATOM     22  C   UNL     1       4.506   6.742  16.982  0.00  0.00    +0.000 C 
ENDBRANCH  12  21
ENDBRANCH   1  18
BRANCH   8  23
ATOM     23  C   UNL     1      -2.378  12.276  22.372  0.00  0.00    +0.000 A 
ATOM     24  C   UNL     1      -2.700  12.137  23.732  0.00  0.00    +0.000 A 
ATOM     25  C   UNL     1      -3.997  12.397  24.198  0.00  0.00    +0.000 A 
ATOM     26  C   UNL     1      -5.001  12.797  23.313  0.00  0.00    +0.000 A 
ATOM     27  C   UNL     1      -6.395  13.075  23.795  0.00  0.00    +0.000 C 
ATOM     28  C   UNL     1      -4.689  12.935  21.956  0.00  0.00    +0.000 A 
ATOM     29  C   UNL     1      -3.392  12.680  21.493  0.00  0.00    +0.000 A 
ENDBRANCH   8  23
TORSDOF 3
ENDMDL
MODEL 4
REMARK VINA RESULT:      -8.3      7.404      8.153
REMARK  Name = 
REMARK  6 active torsions:
REMARK  status: ('A' for Active; 'I' for Inactive)
REMARK    1  A    between atoms: C_2  and  C_3
REMARK    2  A    between atoms: C_2  and  C_4
REMARK    3  A    between atoms: C_7  and  C_8
REMARK    4  A    between atoms: N_10  and  N_11
REMARK    5  A    between atoms: C_18  and  C_19
REMARK    6  A    between atoms: C_22  and  C_23
REMARK                            x       y       z     vdW  Elec       q    Type
REMARK                         _______ _______ _______ _____ _____    ______ ____
ROOT
ATOM      1  N   UNL     1       0.500  10.465  20.916  0.00  0.00    +0.000 N 
ATOM      2  C   UNL     1       1.091   9.459  20.144  0.00  0.00    +0.000 C 
ATOM      3  O   UNL     1       1.429   9.614  18.971  0.00  0.00    +0.000 OA
ATOM      4  N   UNL     1       1.213   8.277  20.849  0.00  0.00    +0.000 N 
ATOM      5  C   UNL     1       1.763   7.150  20.293  0.00  0.00    +0.000 A 
ATOM      6  N   UNL     1       1.644   5.923  20.751  0.00  0.00    +0.000 NA
ATOM      7  N   UNL     1       2.348   5.109  19.883  0.00  0.00    +0.000 NA
ATOM      8  C   UNL     1       2.885   5.903  18.977  0.00  0.00    +0.000 A 
ATOM      9  O   UNL     1       2.558   7.221  19.186  0.00  0.00    +0.000 OA
ATOM     10  H   UNL     1       0.409  10.345  21.916  0.00  0.00    +0.000 HD
ATOM     11  H   UNL     1       0.647   8.113  21.661  0.00  0.00    +0.000 HD
ENDROOT
BRANCH   1  18
ATOM     12  C   UNL     1      -1.999  13.336  23.021  0.00  0.00    +0.000 C 
ATOM     13  C   UNL     1      -1.914  14.752  22.437  0.00  0.00    +0.000 C 
ATOM     14  C   UNL     1      -1.427  14.845  21.030  0.00  0.00    +0.000 C 
ATOM     15  C   UNL     1      -0.793  13.884  20.344  0.00  0.00    +0.000 C 
ATOM     16  C   UNL     1      -0.323  14.105  18.934  0.00  0.00    +0.000 C 
ATOM     17  C   UNL     1      -0.508  12.563  20.998  0.00  0.00    +0.000 C 
ATOM     18  N   UNL     1       0.203  11.680  20.346  0.00  0.00    +0.000 NA
ATOM     19  C   UNL     1      -1.033  12.314  22.405  0.00  0.00    +0.000 C 
BRANCH  12  21
ATOM     20  C   UNL     1      -3.902  12.341  24.312  0.00  0.00    +0.000 C 
ATOM     21  C   UNL     1      -3.424  12.782  23.131  0.00  0.00    +0.000 C 
ATOM     22  C   UNL     1      -4.280  12.706  21.899  0.00  0.00    +0.000 C 
ENDBRANCH  12  21
ENDBRANCH   1  18
BRANCH   8  23
ATOM     23  C   UNL     1       3.750   5.590  17.840  0.00  0.00    +0.000 A 
ATOM     24  C   UNL     1       4.376   6.626  17.129  0.00  0.00    +0.000 A 
ATOM     25  C   UNL     1       5.213   6.350  16.037  0.00  0.00    +0.000 A 
ATOM     26  C   UNL     1       5.437   5.032  15.632  0.00  0.00    +0.000 A 
ATOM     27  C   UNL     1       6.325   4.720  14.463  0.00  0.00    +0.000 C 
ATOM     28  C   UNL     1       4.814   3.994  16.334  0.00  0.00    +0.000 A 
ATOM     29  C   UNL     1       3.983   4.271  17.427  0.00  0.00    +0.000 A 
ENDBRANCH   8  23
TORSDOF 3
ENDMDL
MODEL 5
REMARK VINA RESULT:      -8.1      7.999     12.042
REMARK  Name = 
REMARK  6 active torsions:
REMARK  status: ('A' for Active; 'I' for Inactive)
REMARK    1  A    between atoms: C_2  and  C_3
REMARK    2  A    between atoms: C_2  and  C_4
REMARK    3  A    between atoms: C_7  and  C_8
REMARK    4  A    between atoms: N_10  and  N_11
REMARK    5  A    between atoms: C_18  and  C_19
REMARK    6  A    between atoms: C_22  and  C_23
REMARK                            x       y       z     vdW  Elec       q    Type
REMARK                         _______ _______ _______ _____ _____    ______ ____
ROOT
ATOM      1  N   UNL     1       2.152   7.200  20.481  0.00  0.00    +0.000 N 
ATOM      2  C   UNL     1       1.137   8.144  20.669  0.00  0.00    +0.000 C 
ATOM      3  O   UNL     1       0.059   7.882  21.200  0.00  0.00    +0.000 OA
ATOM      4  N   UNL     1       1.485   9.379  20.158  0.00  0.00    +0.000 N 
ATOM      5  C   UNL     1       0.643  10.460  20.226  0.00  0.00    +0.000 A 
ATOM      6  N   UNL     1       0.738  11.563  19.516  0.00  0.00    +0.000 NA
ATOM      7  N   UNL     1      -0.314  12.371  19.902  0.00  0.00    +0.000 NA
ATOM      8  C   UNL     1      -0.956  11.722  20.854  0.00  0.00    +0.000 A 
ATOM      9  O   UNL     1      -0.392  10.498  21.116  0.00  0.00    +0.000 OA
ATOM     10  H   UNL     1       3.077   7.503  20.208  0.00  0.00    +0.000 HD
ATOM     11  H   UNL     1       2.212   9.455  19.470  0.00  0.00    +0.000 HD
ENDROOT
BRANCH   1  18
ATOM     12  C   UNL     1       4.648   4.044  18.825  0.00  0.00    +0.000 C 
ATOM     13  C   UNL     1       4.539   2.723  19.597  0.00  0.00    +0.000 C 
ATOM     14  C   UNL     1       3.312   2.556  20.427  0.00  0.00    +0.000 C 
ATOM     15  C   UNL     1       2.465   3.527  20.797  0.00  0.00    +0.000 C 
ATOM     16  C   UNL     1       1.271   3.240  21.663  0.00  0.00    +0.000 C 
ATOM     17  C   UNL     1       2.721   4.943  20.373  0.00  0.00    +0.000 C 
ATOM     18  N   UNL     1       1.942   5.888  20.832  0.00  0.00    +0.000 NA
ATOM     19  C   UNL     1       3.896   5.230  19.448  0.00  0.00    +0.000 C 
BRANCH  12  21
ATOM     20  C   UNL     1       5.335   4.234  16.424  0.00  0.00    +0.000 C 
ATOM     21  C   UNL     1       4.379   3.923  17.321  0.00  0.00    +0.000 C 
ATOM     22  C   UNL     1       3.022   3.480  16.850  0.00  0.00    +0.000 C 
ENDBRANCH  12  21
ENDBRANCH   1  18
BRANCH   8  23
ATOM     23  C   UNL     1      -2.125  12.113  21.641  0.00  0.00    +0.000 A 
ATOM     24  C   UNL     1      -3.236  12.693  21.008  0.00  0.00    +0.000 A 
ATOM     25  C   UNL     1      -4.370  13.073  21.741  0.00  0.00    +0.000 A 
ATOM     26  C   UNL     1      -4.414  12.885  23.125  0.00  0.00    +0.000 A 
ATOM     27  C   UNL     1      -5.618  13.290  23.925  0.00  0.00    +0.000 C 
ATOM     28  C   UNL     1      -3.310  12.311  23.764  0.00  0.00    +0.000 A 
ATOM     29  C   UNL     1      -2.180  11.927  23.030  0.00  0.00    +0.000 A 
ENDBRANCH   8  23
TORSDOF 3
ENDMDL
MODEL 6
REMARK VINA RESULT:      -8.0      2.477      4.200
REMARK  Name = 
REMARK  6 active torsions:
REMARK  status: ('A' for Active; 'I' for Inactive)
REMARK    1  A    between atoms: C_2  and  C_3
REMARK    2  A    between atoms: C_2  and  C_4
REMARK    3  A    between atoms: C_7  and  C_8
REMARK    4  A    between atoms: N_10  and  N_11
REMARK    5  A    between atoms: C_18  and  C_19
REMARK    6  A    between atoms: C_22  and  C_23
REMARK                            x       y       z     vdW  Elec       q    Type
REMARK                         _______ _______ _______ _____ _____    ______ ____
ROOT
ATOM      1  N   UNL     1       8.733   9.059  17.955  0.00  0.00    +0.000 N 
ATOM      2  C   UNL     1       7.850   7.975  17.924  0.00  0.00    +0.000 C 
ATOM      3  O   UNL     1       7.152   7.643  18.881  0.00  0.00    +0.000 OA
ATOM      4  N   UNL     1       7.887   7.318  16.710  0.00  0.00    +0.000 N 
ATOM      5  C   UNL     1       7.105   6.221  16.451  0.00  0.00    +0.000 A 
ATOM      6  N   UNL     1       7.284   5.355  15.477  0.00  0.00    +0.000 NA
ATOM      7  N   UNL     1       6.276   4.417  15.595  0.00  0.00    +0.000 NA
ATOM      8  C   UNL     1       5.525   4.800  16.609  0.00  0.00    +0.000 A 
ATOM      9  O   UNL     1       5.994   5.950  17.195  0.00  0.00    +0.000 OA
ATOM     10  H   UNL     1       9.144   9.399  17.095  0.00  0.00    +0.000 HD
ATOM     11  H   UNL     1       8.679   7.424  16.102  0.00  0.00    +0.000 HD
ENDROOT
BRANCH   1  18
ATOM     12  C   UNL     1       9.503  13.340  17.837  0.00  0.00    +0.000 C 
ATOM     13  C   UNL     1       9.291  14.028  19.191  0.00  0.00    +0.000 C 
ATOM     14  C   UNL     1       9.344  13.137  20.386  0.00  0.00    +0.000 C 
ATOM     15  C   UNL     1       9.261  11.800  20.384  0.00  0.00    +0.000 C 
ATOM     16  C   UNL     1       9.299  11.008  21.661  0.00  0.00    +0.000 C 
ATOM     17  C   UNL     1       9.092  11.063  19.087  0.00  0.00    +0.000 C 
ATOM     18  N   UNL     1       8.908   9.769  19.119  0.00  0.00    +0.000 NA
ATOM     19  C   UNL     1       9.112  11.855  17.787  0.00  0.00    +0.000 C 
BRANCH  12  21
ATOM     20  C   UNL     1      11.728  12.568  16.982  0.00  0.00    +0.000 C 
ATOM     21  C   UNL     1      10.879  13.590  17.209  0.00  0.00    +0.000 C 
ATOM     22  C   UNL     1      11.289  14.996  16.873  0.00  0.00    +0.000 C 
ENDBRANCH  12  21
ENDBRANCH   1  18
BRANCH   8  23
ATOM     23  C   UNL     1       4.310   4.202  17.164  0.00  0.00    +0.000 A 
ATOM     24  C   UNL     1       3.259   5.025  17.598  0.00  0.00    +0.000 A 
ATOM     25  C   UNL     1       2.083   4.476  18.131  0.00  0.00    +0.000 A 
ATOM     26  C   UNL     1       1.937   3.091  18.243  0.00  0.00    +0.000 A 
ATOM     27  C   UNL     1       0.687   2.486  18.815  0.00  0.00    +0.000 C 
ATOM     28  C   UNL     1       2.981   2.264  17.815  0.00  0.00    +0.000 A 
ATOM     29  C   UNL     1       4.152   2.814  17.279  0.00  0.00    +0.000 A 
ENDBRANCH   8  23
TORSDOF 3
ENDMDL
MODEL 7
REMARK VINA RESULT:      -8.0      7.646     11.696
REMARK  Name = 
REMARK  6 active torsions:
REMARK  status: ('A' for Active; 'I' for Inactive)
REMARK    1  A    between atoms: C_2  and  C_3
REMARK    2  A    between atoms: C_2  and  C_4
REMARK    3  A    between atoms: C_7  and  C_8
REMARK    4  A    between atoms: N_10  and  N_11
REMARK    5  A    between atoms: C_18  and  C_19
REMARK    6  A    between atoms: C_22  and  C_23
REMARK                            x       y       z     vdW  Elec       q    Type
REMARK                         _______ _______ _______ _____ _____    ______ ____
ROOT
ATOM      1  N   UNL     1       1.672   7.592  20.347  0.00  0.00    +0.000 N 
ATOM      2  C   UNL     1       1.267   8.920  20.513  0.00  0.00    +0.000 C 
ATOM      3  O   UNL     1       1.569   9.823  19.736  0.00  0.00    +0.000 OA
ATOM      4  N   UNL     1       0.523   9.088  21.665  0.00  0.00    +0.000 N 
ATOM      5  C   UNL     1       0.019  10.308  22.036  0.00  0.00    +0.000 A 
ATOM      6  N   UNL     1      -0.419  10.635  23.233  0.00  0.00    +0.000 NA
ATOM      7  N   UNL     1      -0.824  11.954  23.156  0.00  0.00    +0.000 NA
ATOM      8  C   UNL     1      -0.645  12.330  21.905  0.00  0.00    +0.000 A 
ATOM      9  O   UNL     1      -0.118  11.324  21.134  0.00  0.00    +0.000 OA
ATOM     10  H   UNL     1       1.252   6.862  20.907  0.00  0.00    +0.000 HD
ATOM     11  H   UNL     1       0.579   8.412  22.405  0.00  0.00    +0.000 HD
ENDROOT
BRANCH   1  18
ATOM     12  C   UNL     1       2.235   3.426  19.226  0.00  0.00    +0.000 C 
ATOM     13  C   UNL     1       2.876   3.256  17.842  0.00  0.00    +0.000 C 
ATOM     14  C   UNL     1       3.629   4.435  17.326  0.00  0.00    +0.000 C 
ATOM     15  C   UNL     1       3.556   5.689  17.793  0.00  0.00    +0.000 C 
ATOM     16  C   UNL     1       4.346   6.806  17.170  0.00  0.00    +0.000 C 
ATOM     17  C   UNL     1       2.644   6.008  18.941  0.00  0.00    +0.000 C 
ATOM     18  N   UNL     1       2.510   7.255  19.310  0.00  0.00    +0.000 NA
ATOM     19  C   UNL     1       1.886   4.870  19.612  0.00  0.00    +0.000 C 
BRANCH  12  21
ATOM     20  C   UNL     1       2.395   2.556  21.569  0.00  0.00    +0.000 C 
ATOM     21  C   UNL     1       2.965   2.692  20.356  0.00  0.00    +0.000 C 
ATOM     22  C   UNL     1       4.344   2.146  20.108  0.00  0.00    +0.000 C 
ENDBRANCH  12  21
ENDBRANCH   1  18
BRANCH   8  23
ATOM     23  C   UNL     1      -0.928  13.608  21.253  0.00  0.00    +0.000 A 
ATOM     24  C   UNL     1      -1.900  14.469  21.788  0.00  0.00    +0.000 A 
ATOM     25  C   UNL     1      -2.187  15.701  21.181  0.00  0.00    +0.000 A 
ATOM     26  C   UNL     1      -1.510  16.095  20.024  0.00  0.00    +0.000 A 
ATOM     27  C   UNL     1      -1.808  17.408  19.361  0.00  0.00    +0.000 C 
ATOM     28  C   UNL     1      -0.542  15.242  19.484  0.00  0.00    +0.000 A 
ATOM     29  C   UNL     1      -0.253  14.014  20.093  0.00  0.00    +0.000 A 
ENDBRANCH   8  23
TORSDOF 3
ENDMDL
MODEL 8
REMARK VINA RESULT:      -7.9      6.866      7.950
REMARK  Name = 
REMARK  6 active torsions:
REMARK  status: ('A' for Active; 'I' for Inactive)
REMARK    1  A    between atoms: C_2  and  C_3
REMARK    2  A    between atoms: C_2  and  C_4
REMARK    3  A    between atoms: C_7  and  C_8
REMARK    4  A    between atoms: N_10  and  N_11
REMARK    5  A    between atoms: C_18  and  C_19
REMARK    6  A    between atoms: C_22  and  C_23
REMARK                            x       y       z     vdW  Elec       q    Type
REMARK                         _______ _______ _______ _____ _____    ______ ____
ROOT
ATOM      1  N   UNL     1       1.044   9.339  21.770  0.00  0.00    +0.000 N 
ATOM      2  C   UNL     1       1.573   8.508  20.777  0.00  0.00    +0.000 C 
ATOM      3  O   UNL     1       2.064   8.930  19.731  0.00  0.00    +0.000 OA
ATOM      4  N   UNL     1       1.445   7.172  21.104  0.00  0.00    +0.000 N 
ATOM      5  C   UNL     1       1.893   6.173  20.278  0.00  0.00    +0.000 A 
ATOM      6  N   UNL     1       1.550   4.905  20.340  0.00  0.00    +0.000 NA
ATOM      7  N   UNL     1       2.229   4.264  19.321  0.00  0.00    +0.000 NA
ATOM      8  C   UNL     1       2.974   5.179  18.733  0.00  0.00    +0.000 A 
ATOM      9  O   UNL     1       2.814   6.419  19.301  0.00  0.00    +0.000 OA
ATOM     10  H   UNL     1       0.820   8.958  22.679  0.00  0.00    +0.000 HD
ATOM     11  H   UNL     1       0.770   6.883  21.789  0.00  0.00    +0.000 HD
ENDROOT
BRANCH   1  18
ATOM     12  C   UNL     1      -2.013  11.070  19.202  0.00  0.00    +0.000 C 
ATOM     13  C   UNL     1      -2.172  12.584  19.392  0.00  0.00    +0.000 C 
ATOM     14  C   UNL     1      -1.007  13.287  20.003  0.00  0.00    +0.000 C 
ATOM     15  C   UNL     1       0.011  12.714  20.659  0.00  0.00    +0.000 C 
ATOM     16  C   UNL     1       1.119  13.533  21.259  0.00  0.00    +0.000 C 
ATOM     17  C   UNL     1       0.042  11.224  20.836  0.00  0.00    +0.000 C 
ATOM     18  N   UNL     1       0.989  10.698  21.569  0.00  0.00    +0.000 NA
ATOM     19  C   UNL     1      -1.046  10.386  20.180  0.00  0.00    +0.000 C 
BRANCH  12  21
ATOM     20  C   UNL     1      -0.751   9.799  17.451  0.00  0.00    +0.000 C 
ATOM     21  C   UNL     1      -1.762  10.636  17.754  0.00  0.00    +0.000 C 
ATOM     22  C   UNL     1      -2.641  11.179  16.662  0.00  0.00    +0.000 C 
ENDBRANCH  12  21
ENDBRANCH   1  18
BRANCH   8  23
ATOM     23  C   UNL     1       3.914   5.059  17.619  0.00  0.00    +0.000 A 
ATOM     24  C   UNL     1       4.429   6.214  17.008  0.00  0.00    +0.000 A 
ATOM     25  C   UNL     1       5.333   6.125  15.940  0.00  0.00    +0.000 A 
ATOM     26  C   UNL     1       5.738   4.878  15.457  0.00  0.00    +0.000 A 
ATOM     27  C   UNL     1       6.702   4.765  14.312  0.00  0.00    +0.000 C 
ATOM     28  C   UNL     1       5.227   3.722  16.058  0.00  0.00    +0.000 A 
ATOM     29  C   UNL     1       4.328   3.813  17.128  0.00  0.00    +0.000 A 
ENDBRANCH   8  23
TORSDOF 3
ENDMDL
MODEL 9
REMARK VINA RESULT:      -7.9      2.477      4.223
REMARK  Name = 
REMARK  6 active torsions:
REMARK  status: ('A' for Active; 'I' for Inactive)
REMARK    1  A    between atoms: C_2  and  C_3
REMARK    2  A    between atoms: C_2  and  C_4
REMARK    3  A    between atoms: C_7  and  C_8
REMARK    4  A    between atoms: N_10  and  N_11
REMARK    5  A    between atoms: C_18  and  C_19
REMARK    6  A    between atoms: C_22  and  C_23
REMARK                            x       y       z     vdW  Elec       q    Type
REMARK                         _______ _______ _______ _____ _____    ______ ____
ROOT
ATOM      1  N   UNL     1       8.729   9.053  17.978  0.00  0.00    +0.000 N 
ATOM      2  C   UNL     1       7.841   7.973  17.944  0.00  0.00    +0.000 C 
ATOM      3  O   UNL     1       7.139   7.643  18.898  0.00  0.00    +0.000 OA
ATOM      4  N   UNL     1       7.881   7.316  16.730  0.00  0.00    +0.000 N 
ATOM      5  C   UNL     1       7.095   6.223  16.466  0.00  0.00    +0.000 A 
ATOM      6  N   UNL     1       7.274   5.356  15.493  0.00  0.00    +0.000 NA
ATOM      7  N   UNL     1       6.261   4.423  15.607  0.00  0.00    +0.000 NA
ATOM      8  C   UNL     1       5.508   4.808  16.618  0.00  0.00    +0.000 A 
ATOM      9  O   UNL     1       5.980   5.956  17.206  0.00  0.00    +0.000 OA
ATOM     10  H   UNL     1       9.145   9.392  17.121  0.00  0.00    +0.000 HD
ATOM     11  H   UNL     1       8.675   7.419  16.125  0.00  0.00    +0.000 HD
ENDROOT
BRANCH   1  18
ATOM     12  C   UNL     1       9.487  13.336  17.866  0.00  0.00    +0.000 C 
ATOM     13  C   UNL     1       9.273  14.021  19.222  0.00  0.00    +0.000 C 
ATOM     14  C   UNL     1       9.330  13.129  20.416  0.00  0.00    +0.000 C 
ATOM     15  C   UNL     1       9.251  11.792  20.412  0.00  0.00    +0.000 C 
ATOM     16  C   UNL     1       9.292  10.998  21.688  0.00  0.00    +0.000 C 
ATOM     17  C   UNL     1       9.083  11.057  19.114  0.00  0.00    +0.000 C 
ATOM     18  N   UNL     1       8.903   9.762  19.143  0.00  0.00    +0.000 NA
ATOM     19  C   UNL     1       9.100  11.851  17.815  0.00  0.00    +0.000 C 
BRANCH  12  21
ATOM     20  C   UNL     1      11.189  14.811  16.769  0.00  0.00    +0.000 C 
ATOM     21  C   UNL     1      10.862  13.591  17.238  0.00  0.00    +0.000 C 
ATOM     22  C   UNL     1      11.838  12.454  17.122  0.00  0.00    +0.000 C 
ENDBRANCH  12  21
ENDBRANCH   1  18
BRANCH   8  23
ATOM     23  C   UNL     1       4.289   4.216  17.168  0.00  0.00    +0.000 A 
ATOM     24  C   UNL     1       4.185   2.822  17.304  0.00  0.00    +0.000 A 
ATOM     25  C   UNL     1       3.027   2.231  17.831  0.00  0.00    +0.000 A 
ATOM     26  C   UNL     1       1.947   3.023  18.229  0.00  0.00    +0.000 A 
ATOM     27  C   UNL     1       0.699   2.406  18.791  0.00  0.00    +0.000 C 
ATOM     28  C   UNL     1       2.041   4.412  18.094  0.00  0.00    +0.000 A 
ATOM     29  C   UNL     1       3.200   5.001  17.572  0.00  0.00    +0.000 A 
ENDBRANCH   8  23
TORSDOF 3
ENDMDL
