MODEL 1
REMARK VINA RESULT:      -6.7      0.000      0.000
REMARK  Name = 
REMARK  8 active torsions:
REMARK  status: ('A' for Active; 'I' for Inactive)
REMARK    1  A    between atoms: C_1  and  S_2
REMARK    2  A    between atoms: S_2  and  C_5
REMARK    3  A    between atoms: C_8  and  O_9
REMARK    4  A    between atoms: O_9  and  C_10
REMARK    5  A    between atoms: C_10  and  C_11
REMARK    6  A    between atoms: C_11  and  N_12
REMARK    7  A    between atoms: N_12  and  C_13
REMARK    8  A    between atoms: C_13  and  C_14
REMARK                            x       y       z     vdW  Elec       q    Type
REMARK                         _______ _______ _______ _____ _____    ______ ____
ROOT
ATOM      1  C   UNL     1       1.585   2.330  18.866  0.00  0.00    +0.000 C 
ENDROOT
BRANCH   1   2
ATOM      2  O   UNL     1       2.918   1.818  18.744  0.00  0.00    +0.000 OA
BRANCH   2   6
ATOM      3  C   UNL     1       5.738   4.689  17.712  0.00  0.00    +0.000 A 
ATOM      4  C   UNL     1       4.923   4.097  16.746  0.00  0.00    +0.000 A 
ATOM      5  C   UNL     1       3.992   3.131  17.136  0.00  0.00    +0.000 A 
ATOM      6  C   UNL     1       3.895   2.734  18.473  0.00  0.00    +0.000 A 
ATOM      7  C   UNL     1       4.720   3.328  19.430  0.00  0.00    +0.000 A 
ATOM      8  C   UNL     1       5.650   4.301  19.051  0.00  0.00    +0.000 A 
BRANCH   3  10
ATOM      9  C   UNL     1       5.878   7.387  17.059  0.00  0.00    +0.000 C 
ATOM     10  S   UNL     1       6.898   5.948  17.238  0.00  0.00    +0.000 S 
ATOM     11  O   UNL     1       7.420   5.604  15.931  0.00  0.00    +0.000 OA
ATOM     12  O   UNL     1       7.795   6.164  18.363  0.00  0.00    +0.000 OA
ENDBRANCH   3  10
ENDBRANCH   2   6
ENDBRANCH   1   2
BRANCH   1  13
ATOM     13  C   UNL     1       1.276   2.601  20.352  0.00  0.00    +0.000 C 
BRANCH  13  14
ATOM     14  N   UNL     1       0.865   3.991  20.553  0.00  0.00    +0.000 NA
ATOM     15  H   UNL     1       0.108   4.042  21.234  0.00  0.00    +0.000 HD
BRANCH  14  16
ATOM     16  C   UNL     1       1.959   4.860  20.968  0.00  0.00    +0.000 C 
BRANCH  16  17
ATOM     17  C   UNL     1       1.941   6.144  20.168  0.00  0.00    +0.000 A 
ATOM     18  C   UNL     1       2.403   6.172  18.844  0.00  0.00    +0.000 A 
ATOM     19  C   UNL     1       2.412   7.366  18.117  0.00  0.00    +0.000 A 
ATOM     20  C   UNL     1       1.961   8.548  18.705  0.00  0.00    +0.000 A 
ATOM     21  C   UNL     1       1.490   8.529  20.015  0.00  0.00    +0.000 A 
ATOM     22 CL   UNL     1       0.937   9.987  20.744  0.00  0.00    +0.000 Cl
ATOM     23  C   UNL     1       1.469   7.338  20.742  0.00  0.00    +0.000 A 
ENDBRANCH  16  17
ENDBRANCH  14  16
ENDBRANCH  13  14
ENDBRANCH   1  13
TORSDOF 7
ENDMDL
MODEL 2
REMARK VINA RESULT:      -6.4      5.128      7.561
REMARK  Name = 
REMARK  8 active torsions:
REMARK  status: ('A' for Active; 'I' for Inactive)
REMARK    1  A    between atoms: C_1  and  S_2
REMARK    2  A    between atoms: S_2  and  C_5
REMARK    3  A    between atoms: C_8  and  O_9
REMARK    4  A    between atoms: O_9  and  C_10
REMARK    5  A    between atoms: C_10  and  C_11
REMARK    6  A    between atoms: C_11  and  N_12
REMARK    7  A    between atoms: N_12  and  C_13
REMARK    8  A    between atoms: C_13  and  C_14
REMARK                            x       y       z     vdW  Elec       q    Type
REMARK                         _______ _______ _______ _____ _____    ______ ____
ROOT
ATOM      1  C   UNL     1       7.990   7.033  18.391  0.00  0.00    +0.000 C 
ENDROOT
BRANCH   1   2
ATOM      2  O   UNL     1       7.905   5.767  17.726  0.00  0.00    +0.000 OA
BRANCH   2   6
ATOM      3  C   UNL     1       4.200   3.950  18.210  0.00  0.00    +0.000 A 
ATOM      4  C   UNL     1       4.878   4.509  19.295  0.00  0.00    +0.000 A 
ATOM      5  C   UNL     1       6.124   5.105  19.088  0.00  0.00    +0.000 A 
ATOM      6  C   UNL     1       6.707   5.116  17.817  0.00  0.00    +0.000 A 
ATOM      7  C   UNL     1       6.024   4.547  16.741  0.00  0.00    +0.000 A 
ATOM      8  C   UNL     1       4.772   3.956  16.936  0.00  0.00    +0.000 A 
BRANCH   3  10
ATOM      9  C   UNL     1       1.508   4.401  17.688  0.00  0.00    +0.000 C 
ATOM     10  S   UNL     1       2.596   3.225  18.449  0.00  0.00    +0.000 S 
ATOM     11  O   UNL     1       2.319   3.215  19.871  0.00  0.00    +0.000 OA
ATOM     12  O   UNL     1       2.550   1.996  17.673  0.00  0.00    +0.000 OA
ENDBRANCH   3  10
ENDBRANCH   2   6
ENDBRANCH   1   2
BRANCH   1  13
ATOM     13  C   UNL     1       7.562   8.150  17.419  0.00  0.00    +0.000 C 
BRANCH  13  14
ATOM     14  N   UNL     1       7.946   9.465  17.934  0.00  0.00    +0.000 NA
ATOM     15  H   UNL     1       7.123   9.975  18.250  0.00  0.00    +0.000 HD
BRANCH  14  16
ATOM     16  C   UNL     1       8.927   9.397  19.010  0.00  0.00    +0.000 C 
BRANCH  16  17
ATOM     17  C   UNL     1       9.690  10.699  19.106  0.00  0.00    +0.000 A 
ATOM     18  C   UNL     1       9.962  11.283  20.353  0.00  0.00    +0.000 A 
ATOM     19  C   UNL     1      10.642  12.501  20.436  0.00  0.00    +0.000 A 
ATOM     20  C   UNL     1      11.058  13.153  19.275  0.00  0.00    +0.000 A 
ATOM     21  C   UNL     1      10.804  12.576  18.033  0.00  0.00    +0.000 A 
ATOM     22 CL   UNL     1      11.313  13.381  16.599  0.00  0.00    +0.000 Cl
ATOM     23  C   UNL     1      10.134  11.356  17.944  0.00  0.00    +0.000 A 
ENDBRANCH  16  17
ENDBRANCH  14  16
ENDBRANCH  13  14
ENDBRANCH   1  13
TORSDOF 7
ENDMDL
MODEL 3
REMARK VINA RESULT:      -6.3      5.313      7.691
REMARK  Name = 
REMARK  8 active torsions:
REMARK  status: ('A' for Active; 'I' for Inactive)
REMARK    1  A    between atoms: C_1  and  S_2
REMARK    2  A    between atoms: S_2  and  C_5
REMARK    3  A    between atoms: C_8  and  O_9
REMARK    4  A    between atoms: O_9  and  C_10
REMARK    5  A    between atoms: C_10  and  C_11
REMARK    6  A    between atoms: C_11  and  N_12
REMARK    7  A    between atoms: N_12  and  C_13
REMARK    8  A    between atoms: C_13  and  C_14
REMARK                            x       y       z     vdW  Elec       q    Type
REMARK                         _______ _______ _______ _____ _____    ______ ____
ROOT
ATOM      1  C   UNL     1       8.119   7.319  18.331  0.00  0.00    +0.000 C 
ENDROOT
BRANCH   1   2
ATOM      2  O   UNL     1       7.885   6.075  17.662  0.00  0.00    +0.000 OA
BRANCH   2   6
ATOM      3  C   UNL     1       4.230   4.148  18.104  0.00  0.00    +0.000 A 
ATOM      4  C   UNL     1       4.830   4.281  16.850  0.00  0.00    +0.000 A 
ATOM      5  C   UNL     1       6.056   4.941  16.746  0.00  0.00    +0.000 A 
ATOM      6  C   UNL     1       6.666   5.494  17.877  0.00  0.00    +0.000 A 
ATOM      7  C   UNL     1       6.054   5.361  19.124  0.00  0.00    +0.000 A 
ATOM      8  C   UNL     1       4.830   4.694  19.240  0.00  0.00    +0.000 A 
BRANCH   3  10
ATOM      9  C   UNL     1       3.206   1.599  18.528  0.00  0.00    +0.000 C 
ATOM     10  S   UNL     1       2.691   3.275  18.259  0.00  0.00    +0.000 S 
ATOM     11  O   UNL     1       2.014   3.334  16.979  0.00  0.00    +0.000 OA
ATOM     12  O   UNL     1       2.037   3.749  19.468  0.00  0.00    +0.000 OA
ENDBRANCH   3  10
ENDBRANCH   2   6
ENDBRANCH   1   2
BRANCH   1  13
ATOM     13  C   UNL     1       7.585   8.476  17.462  0.00  0.00    +0.000 C 
BRANCH  13  14
ATOM     14  N   UNL     1       8.072   9.765  17.954  0.00  0.00    +0.000 NA
ATOM     15  H   UNL     1       7.295  10.332  18.290  0.00  0.00    +0.000 HD
BRANCH  14  16
ATOM     16  C   UNL     1       9.079   9.639  19.000  0.00  0.00    +0.000 C 
BRANCH  16  17
ATOM     17  C   UNL     1       9.910  10.900  19.083  0.00  0.00    +0.000 A 
ATOM     18  C   UNL     1      10.229  11.470  20.325  0.00  0.00    +0.000 A 
ATOM     19  C   UNL     1      10.972  12.652  20.397  0.00  0.00    +0.000 A 
ATOM     20  C   UNL     1      11.404  13.280  19.229  0.00  0.00    +0.000 A 
ATOM     21  C   UNL     1      11.102  12.717  17.991  0.00  0.00    +0.000 A 
ATOM     22 CL   UNL     1      11.631  13.493  16.549  0.00  0.00    +0.000 Cl
ATOM     23  C   UNL     1      10.370  11.532  17.914  0.00  0.00    +0.000 A 
ENDBRANCH  16  17
ENDBRANCH  14  16
ENDBRANCH  13  14
ENDBRANCH   1  13
TORSDOF 7
ENDMDL
MODEL 4
REMARK VINA RESULT:      -6.3      1.348      1.743
REMARK  Name = 
REMARK  8 active torsions:
REMARK  status: ('A' for Active; 'I' for Inactive)
REMARK    1  A    between atoms: C_1  and  S_2
REMARK    2  A    between atoms: S_2  and  C_5
REMARK    3  A    between atoms: C_8  and  O_9
REMARK    4  A    between atoms: O_9  and  C_10
REMARK    5  A    between atoms: C_10  and  C_11
REMARK    6  A    between atoms: C_11  and  N_12
REMARK    7  A    between atoms: N_12  and  C_13
REMARK    8  A    between atoms: C_13  and  C_14
REMARK                            x       y       z     vdW  Elec       q    Type
REMARK                         _______ _______ _______ _____ _____    ______ ____
ROOT
ATOM      1  C   UNL     1       3.314   2.821  21.011  0.00  0.00    +0.000 C 
ENDROOT
BRANCH   1   2
ATOM      2  O   UNL     1       3.828   2.197  19.829  0.00  0.00    +0.000 OA
BRANCH   2   6
ATOM      3  C   UNL     1       5.551   4.660  16.960  0.00  0.00    +0.000 A 
ATOM      4  C   UNL     1       4.710   3.607  16.597  0.00  0.00    +0.000 A 
ATOM      5  C   UNL     1       4.157   2.800  17.594  0.00  0.00    +0.000 A 
ATOM      6  C   UNL     1       4.464   3.018  18.940  0.00  0.00    +0.000 A 
ATOM      7  C   UNL     1       5.312   4.070  19.291  0.00  0.00    +0.000 A 
ATOM      8  C   UNL     1       5.864   4.889  18.302  0.00  0.00    +0.000 A 
BRANCH   3  10
ATOM      9  C   UNL     1       6.510   4.614  14.352  0.00  0.00    +0.000 C 
ATOM     10  S   UNL     1       6.230   5.721  15.708  0.00  0.00    +0.000 S 
ATOM     11  O   UNL     1       7.518   6.193  16.174  0.00  0.00    +0.000 OA
ATOM     12  O   UNL     1       5.190   6.661  15.319  0.00  0.00    +0.000 OA
ENDBRANCH   3  10
ENDBRANCH   2   6
ENDBRANCH   1   2
BRANCH   1  13
ATOM     13  C   UNL     1       1.895   2.289  21.294  0.00  0.00    +0.000 C 
BRANCH  13  14
ATOM     14  N   UNL     1       0.884   3.275  20.909  0.00  0.00    +0.000 NA
ATOM     15  H   UNL     1       0.954   4.103  21.499  0.00  0.00    +0.000 HD
BRANCH  14  16
ATOM     16  C   UNL     1       0.961   3.662  19.506  0.00  0.00    +0.000 C 
BRANCH  16  17
ATOM     17  C   UNL     1       1.433   5.094  19.384  0.00  0.00    +0.000 A 
ATOM     18  C   UNL     1       2.061   5.546  18.213  0.00  0.00    +0.000 A 
ATOM     19  C   UNL     1       2.522   6.862  18.114  0.00  0.00    +0.000 A 
ATOM     20  C   UNL     1       2.363   7.743  19.183  0.00  0.00    +0.000 A 
ATOM     21  C   UNL     1       1.731   7.308  20.346  0.00  0.00    +0.000 A 
ATOM     22 CL   UNL     1       1.537   8.392  21.668  0.00  0.00    +0.000 Cl
ATOM     23  C   UNL     1       1.259   5.998  20.446  0.00  0.00    +0.000 A 
ENDBRANCH  16  17
ENDBRANCH  14  16
ENDBRANCH  13  14
ENDBRANCH   1  13
TORSDOF 7
ENDMDL
MODEL 5
REMARK VINA RESULT:      -6.3      1.684      2.711
REMARK  Name = 
REMARK  8 active torsions:
REMARK  status: ('A' for Active; 'I' for Inactive)
REMARK    1  A    between atoms: C_1  and  S_2
REMARK    2  A    between atoms: S_2  and  C_5
REMARK    3  A    between atoms: C_8  and  O_9
REMARK    4  A    between atoms: O_9  and  C_10
REMARK    5  A    between atoms: C_10  and  C_11
REMARK    6  A    between atoms: C_11  and  N_12
REMARK    7  A    between atoms: N_12  and  C_13
REMARK    8  A    between atoms: C_13  and  C_14
REMARK                            x       y       z     vdW  Elec       q    Type
REMARK                         _______ _______ _______ _____ _____    ______ ____
ROOT
ATOM      1  C   UNL     1       2.022   3.621  20.820  0.00  0.00    +0.000 C 
ENDROOT
BRANCH   1   2
ATOM      2  O   UNL     1       2.385   2.843  19.673  0.00  0.00    +0.000 OA
BRANCH   2   6
ATOM      3  C   UNL     1       5.478   4.391  17.371  0.00  0.00    +0.000 A 
ATOM      4  C   UNL     1       5.585   4.305  18.761  0.00  0.00    +0.000 A 
ATOM      5  C   UNL     1       4.518   3.784  19.496  0.00  0.00    +0.000 A 
ATOM      6  C   UNL     1       3.341   3.380  18.858  0.00  0.00    +0.000 A 
ATOM      7  C   UNL     1       3.243   3.477  17.469  0.00  0.00    +0.000 A 
ATOM      8  C   UNL     1       4.309   3.990  16.722  0.00  0.00    +0.000 A 
BRANCH   3  10
ATOM      9  C   UNL     1       6.461   4.471  14.773  0.00  0.00    +0.000 C 
ATOM     10  S   UNL     1       6.841   5.014  16.418  0.00  0.00    +0.000 S 
ATOM     11  O   UNL     1       8.040   4.324  16.851  0.00  0.00    +0.000 OA
ATOM     12  O   UNL     1       6.769   6.466  16.445  0.00  0.00    +0.000 OA
ENDBRANCH   3  10
ENDBRANCH   2   6
ENDBRANCH   1   2
BRANCH   1  13
ATOM     13  C   UNL     1       1.352   4.930  20.358  0.00  0.00    +0.000 C 
BRANCH  13  14
ATOM     14  N   UNL     1       2.060   6.094  20.893  0.00  0.00    +0.000 NA
ATOM     15  H   UNL     1       3.018   5.845  21.136  0.00  0.00    +0.000 HD
BRANCH  14  16
ATOM     16  C   UNL     1       2.063   7.234  19.985  0.00  0.00    +0.000 C 
BRANCH  16  17
ATOM     17  C   UNL     1       1.311   8.395  20.597  0.00  0.00    +0.000 A 
ATOM     18  C   UNL     1       1.135   8.483  21.987  0.00  0.00    +0.000 A 
ATOM     19  C   UNL     1       0.414   9.541  22.547  0.00  0.00    +0.000 A 
ATOM     20  C   UNL     1      -0.140  10.524  21.728  0.00  0.00    +0.000 A 
ATOM     21  C   UNL     1       0.039  10.451  20.348  0.00  0.00    +0.000 A 
ATOM     22 CL   UNL     1      -0.648  11.661  19.334  0.00  0.00    +0.000 Cl
ATOM     23  C   UNL     1       0.766   9.403  19.784  0.00  0.00    +0.000 A 
ENDBRANCH  16  17
ENDBRANCH  14  16
ENDBRANCH  13  14
ENDBRANCH   1  13
TORSDOF 7
ENDMDL
MODEL 6
REMARK VINA RESULT:      -6.2      1.476      1.912
REMARK  Name = 
REMARK  8 active torsions:
REMARK  status: ('A' for Active; 'I' for Inactive)
REMARK    1  A    between atoms: C_1  and  S_2
REMARK    2  A    between atoms: S_2  and  C_5
REMARK    3  A    between atoms: C_8  and  O_9
REMARK    4  A    between atoms: O_9  and  C_10
REMARK    5  A    between atoms: C_10  and  C_11
REMARK    6  A    between atoms: C_11  and  N_12
REMARK    7  A    between atoms: N_12  and  C_13
REMARK    8  A    between atoms: C_13  and  C_14
REMARK                            x       y       z     vdW  Elec       q    Type
REMARK                         _______ _______ _______ _____ _____    ______ ____
ROOT
ATOM      1  C   UNL     1       2.575   2.037  19.282  0.00  0.00    +0.000 C 
ENDROOT
BRANCH   1   2
ATOM      2  O   UNL     1       3.189   2.219  18.000  0.00  0.00    +0.000 OA
BRANCH   2   6
ATOM      3  C   UNL     1       5.907   5.328  17.543  0.00  0.00    +0.000 A 
ATOM      4  C   UNL     1       5.169   4.848  16.459  0.00  0.00    +0.000 A 
ATOM      5  C   UNL     1       4.271   3.797  16.657  0.00  0.00    +0.000 A 
ATOM      6  C   UNL     1       4.130   3.206  17.916  0.00  0.00    +0.000 A 
ATOM      7  C   UNL     1       4.878   3.689  18.991  0.00  0.00    +0.000 A 
ATOM      8  C   UNL     1       5.774   4.747  18.806  0.00  0.00    +0.000 A 
BRANCH   3  10
ATOM      9  C   UNL     1       8.102   6.562  18.719  0.00  0.00    +0.000 C 
ATOM     10  S   UNL     1       7.023   6.691  17.318  0.00  0.00    +0.000 S 
ATOM     11  O   UNL     1       6.261   7.917  17.451  0.00  0.00    +0.000 OA
ATOM     12  O   UNL     1       7.802   6.427  16.118  0.00  0.00    +0.000 OA
ENDBRANCH   3  10
ENDBRANCH   2   6
ENDBRANCH   1   2
BRANCH   1  13
ATOM     13  C   UNL     1       1.045   2.164  19.138  0.00  0.00    +0.000 C 
BRANCH  13  14
ATOM     14  N   UNL     1       0.576   3.445  19.668  0.00  0.00    +0.000 NA
ATOM     15  H   UNL     1      -0.334   3.333  20.112  0.00  0.00    +0.000 HD
BRANCH  14  16
ATOM     16  C   UNL     1       1.510   4.057  20.605  0.00  0.00    +0.000 C 
BRANCH  16  17
ATOM     17  C   UNL     1       1.687   5.525  20.286  0.00  0.00    +0.000 A 
ATOM     18  C   UNL     1       1.261   6.512  21.187  0.00  0.00    +0.000 A 
ATOM     19  C   UNL     1       1.400   7.868  20.876  0.00  0.00    +0.000 A 
ATOM     20  C   UNL     1       1.963   8.255  19.661  0.00  0.00    +0.000 A 
ATOM     21  C   UNL     1       2.399   7.282  18.764  0.00  0.00    +0.000 A 
ATOM     22 CL   UNL     1       3.092   7.758  17.261  0.00  0.00    +0.000 Cl
ATOM     23  C   UNL     1       2.273   5.928  19.073  0.00  0.00    +0.000 A 
ENDBRANCH  16  17
ENDBRANCH  14  16
ENDBRANCH  13  14
ENDBRANCH   1  13
TORSDOF 7
ENDMDL
MODEL 7
REMARK VINA RESULT:      -6.2      1.615      2.357
REMARK  Name = 
REMARK  8 active torsions:
REMARK  status: ('A' for Active; 'I' for Inactive)
REMARK    1  A    between atoms: C_1  and  S_2
REMARK    2  A    between atoms: S_2  and  C_5
REMARK    3  A    between atoms: C_8  and  O_9
REMARK    4  A    between atoms: O_9  and  C_10
REMARK    5  A    between atoms: C_10  and  C_11
REMARK    6  A    between atoms: C_11  and  N_12
REMARK    7  A    between atoms: N_12  and  C_13
REMARK    8  A    between atoms: C_13  and  C_14
REMARK                            x       y       z     vdW  Elec       q    Type
REMARK                         _______ _______ _______ _____ _____    ______ ____
ROOT
ATOM      1  C   UNL     1       2.098   3.306  20.098  0.00  0.00    +0.000 C 
ENDROOT
BRANCH   1   2
ATOM      2  O   UNL     1       3.492   3.551  20.324  0.00  0.00    +0.000 OA
BRANCH   2   6
ATOM      3  C   UNL     1       5.512   4.579  16.842  0.00  0.00    +0.000 A 
ATOM      4  C   UNL     1       4.333   3.834  16.800  0.00  0.00    +0.000 A 
ATOM      5  C   UNL     1       3.689   3.505  17.995  0.00  0.00    +0.000 A 
ATOM      6  C   UNL     1       4.232   3.887  19.226  0.00  0.00    +0.000 A 
ATOM      7  C   UNL     1       5.415   4.627  19.257  0.00  0.00    +0.000 A 
ATOM      8  C   UNL     1       6.063   4.968  18.065  0.00  0.00    +0.000 A 
BRANCH   3  10
ATOM      9  C   UNL     1       5.761   3.809  14.183  0.00  0.00    +0.000 C 
ATOM     10  S   UNL     1       6.320   5.041  15.329  0.00  0.00    +0.000 S 
ATOM     11  O   UNL     1       7.747   4.865  15.515  0.00  0.00    +0.000 OA
ATOM     12  O   UNL     1       5.778   6.326  14.917  0.00  0.00    +0.000 OA
ENDBRANCH   3  10
ENDBRANCH   2   6
ENDBRANCH   1   2
BRANCH   1  13
ATOM     13  C   UNL     1       1.289   4.558  20.490  0.00  0.00    +0.000 C 
BRANCH  13  14
ATOM     14  N   UNL     1       2.179   5.666  20.839  0.00  0.00    +0.000 NA
ATOM     15  H   UNL     1       3.098   5.312  21.103  0.00  0.00    +0.000 HD
BRANCH  14  16
ATOM     16  C   UNL     1       2.318   6.651  19.774  0.00  0.00    +0.000 C 
BRANCH  16  17
ATOM     17  C   UNL     1       1.627   7.940  20.160  0.00  0.00    +0.000 A 
ATOM     18  C   UNL     1       1.486   8.984  19.232  0.00  0.00    +0.000 A 
ATOM     19  C   UNL     1       0.874  10.186  19.600  0.00  0.00    +0.000 A 
ATOM     20  C   UNL     1       0.396  10.360  20.899  0.00  0.00    +0.000 A 
ATOM     21  C   UNL     1       0.521   9.326  21.823  0.00  0.00    +0.000 A 
ATOM     22 CL   UNL     1      -0.065   9.541  23.428  0.00  0.00    +0.000 Cl
ATOM     23  C   UNL     1       1.122   8.121  21.459  0.00  0.00    +0.000 A 
ENDBRANCH  16  17
ENDBRANCH  14  16
ENDBRANCH  13  14
ENDBRANCH   1  13
TORSDOF 7
ENDMDL
MODEL 8
REMARK VINA RESULT:      -6.1      4.081      6.251
REMARK  Name = 
REMARK  8 active torsions:
REMARK  status: ('A' for Active; 'I' for Inactive)
REMARK    1  A    between atoms: C_1  and  S_2
REMARK    2  A    between atoms: S_2  and  C_5
REMARK    3  A    between atoms: C_8  and  O_9
REMARK    4  A    between atoms: O_9  and  C_10
REMARK    5  A    between atoms: C_10  and  C_11
REMARK    6  A    between atoms: C_11  and  N_12
REMARK    7  A    between atoms: N_12  and  C_13
REMARK    8  A    between atoms: C_13  and  C_14
REMARK                            x       y       z     vdW  Elec       q    Type
REMARK                         _______ _______ _______ _____ _____    ______ ____
ROOT
ATOM      1  C   UNL     1       5.209   7.028  17.592  0.00  0.00    +0.000 C 
ENDROOT
BRANCH   1   2
ATOM      2  O   UNL     1       3.834   6.640  17.484  0.00  0.00    +0.000 OA
BRANCH   2   6
ATOM      3  C   UNL     1       1.191   9.009  19.644  0.00  0.00    +0.000 A 
ATOM      4  C   UNL     1       1.718   7.836  20.187  0.00  0.00    +0.000 A 
ATOM      5  C   UNL     1       2.598   7.066  19.423  0.00  0.00    +0.000 A 
ATOM      6  C   UNL     1       2.928   7.443  18.117  0.00  0.00    +0.000 A 
ATOM      7  C   UNL     1       2.390   8.615  17.583  0.00  0.00    +0.000 A 
ATOM      8  C   UNL     1       1.514   9.398  18.342  0.00  0.00    +0.000 A 
BRANCH   3  10
ATOM      9  C   UNL     1       1.040  11.508  20.851  0.00  0.00    +0.000 C 
ATOM     10  S   UNL     1       0.103  10.021  20.617  0.00  0.00    +0.000 S 
ATOM     11  O   UNL     1      -0.058   9.386  21.910  0.00  0.00    +0.000 OA
ATOM     12  O   UNL     1      -1.054  10.337  19.795  0.00  0.00    +0.000 OA
ENDBRANCH   3  10
ENDBRANCH   2   6
ENDBRANCH   1   2
BRANCH   1  13
ATOM     13  C   UNL     1       6.072   5.779  17.860  0.00  0.00    +0.000 C 
BRANCH  13  14
ATOM     14  N   UNL     1       5.537   5.006  18.981  0.00  0.00    +0.000 NA
ATOM     15  H   UNL     1       4.747   5.493  19.402  0.00  0.00    +0.000 HD
BRANCH  14  16
ATOM     16  C   UNL     1       5.141   3.653  18.610  0.00  0.00    +0.000 C 
BRANCH  16  17
ATOM     17  C   UNL     1       3.665   3.449  18.874  0.00  0.00    +0.000 A 
ATOM     18  C   UNL     1       2.721   3.628  17.851  0.00  0.00    +0.000 A 
ATOM     19  C   UNL     1       1.356   3.468  18.105  0.00  0.00    +0.000 A 
ATOM     20  C   UNL     1       0.916   3.128  19.384  0.00  0.00    +0.000 A 
ATOM     21  C   UNL     1       1.846   2.937  20.404  0.00  0.00    +0.000 A 
ATOM     22 CL   UNL     1       1.305   2.522  21.984  0.00  0.00    +0.000 Cl
ATOM     23  C   UNL     1       3.210   3.086  20.153  0.00  0.00    +0.000 A 
ENDBRANCH  16  17
ENDBRANCH  14  16
ENDBRANCH  13  14
ENDBRANCH   1  13
TORSDOF 7
ENDMDL
MODEL 9
REMARK VINA RESULT:      -6.0      5.474      7.966
REMARK  Name = 
REMARK  8 active torsions:
REMARK  status: ('A' for Active; 'I' for Inactive)
REMARK    1  A    between atoms: C_1  and  S_2
REMARK    2  A    between atoms: S_2  and  C_5
REMARK    3  A    between atoms: C_8  and  O_9
REMARK    4  A    between atoms: O_9  and  C_10
REMARK    5  A    between atoms: C_10  and  C_11
REMARK    6  A    between atoms: C_11  and  N_12
REMARK    7  A    between atoms: N_12  and  C_13
REMARK    8  A    between atoms: C_13  and  C_14
REMARK                            x       y       z     vdW  Elec       q    Type
REMARK                         _______ _______ _______ _____ _____    ______ ____
ROOT
ATOM      1  C   UNL     1       8.146   8.025  17.784  0.00  0.00    +0.000 C 
ENDROOT
BRANCH   1   2
ATOM      2  O   UNL     1       6.972   7.783  16.998  0.00  0.00    +0.000 OA
BRANCH   2   6
ATOM      3  C   UNL     1       4.810   4.496  18.335  0.00  0.00    +0.000 A 
ATOM      4  C   UNL     1       6.149   4.671  18.686  0.00  0.00    +0.000 A 
ATOM      5  C   UNL     1       6.841   5.787  18.209  0.00  0.00    +0.000 A 
ATOM      6  C   UNL     1       6.213   6.707  17.363  0.00  0.00    +0.000 A 
ATOM      7  C   UNL     1       4.874   6.519  17.013  0.00  0.00    +0.000 A 
ATOM      8  C   UNL     1       4.171   5.408  17.492  0.00  0.00    +0.000 A 
BRANCH   3  10
ATOM      9  C   UNL     1       2.573   3.862  19.857  0.00  0.00    +0.000 C 
ATOM     10  S   UNL     1       3.905   3.104  18.966  0.00  0.00    +0.000 S 
ATOM     11  O   UNL     1       4.752   2.419  19.923  0.00  0.00    +0.000 OA
ATOM     12  O   UNL     1       3.344   2.393  17.828  0.00  0.00    +0.000 OA
ENDBRANCH   3  10
ENDBRANCH   2   6
ENDBRANCH   1   2
BRANCH   1  13
ATOM     13  C   UNL     1       8.205   9.517  18.167  0.00  0.00    +0.000 C 
BRANCH  13  14
ATOM     14  N   UNL     1       9.332   9.780  19.063  0.00  0.00    +0.000 NA
ATOM     15  H   UNL     1      10.214   9.656  18.567  0.00  0.00    +0.000 HD
BRANCH  14  16
ATOM     16  C   UNL     1       9.290  11.105  19.667  0.00  0.00    +0.000 C 
BRANCH  16  17
ATOM     17  C   UNL     1       9.939  12.120  18.751  0.00  0.00    +0.000 A 
ATOM     18  C   UNL     1      11.083  11.789  18.009  0.00  0.00    +0.000 A 
ATOM     19  C   UNL     1      11.698  12.737  17.187  0.00  0.00    +0.000 A 
ATOM     20  C   UNL     1      11.179  14.029  17.097  0.00  0.00    +0.000 A 
ATOM     21  C   UNL     1      10.037  14.364  17.821  0.00  0.00    +0.000 A 
ATOM     22 CL   UNL     1       9.397  15.958  17.713  0.00  0.00    +0.000 Cl
ATOM     23  C   UNL     1       9.413  13.419  18.635  0.00  0.00    +0.000 A 
ENDBRANCH  16  17
ENDBRANCH  14  16
ENDBRANCH  13  14
ENDBRANCH   1  13
TORSDOF 7
ENDMDL
