MODEL 1
REMARK VINA RESULT:      -7.1      0.000      0.000
REMARK  Name = 
REMARK  5 active torsions:
REMARK  status: ('A' for Active; 'I' for Inactive)
REMARK    1  A    between atoms: C_1  and  C_2
REMARK    2  A    between atoms: C_2  and  C_3
REMARK    3  A    between atoms: C_2  and  C_4
REMARK    4  A    between atoms: C_4  and  N_5
REMARK    5  A    between atoms: C_4  and  C_6
REMARK                            x       y       z     vdW  Elec       q    Type
REMARK                         _______ _______ _______ _____ _____    ______ ____
ROOT
ATOM      1  C   UNL     1       3.626   3.038  19.004  0.00  0.00    +0.000 C 
ATOM      2  O   UNL     1       4.290   2.005  18.861  0.00  0.00    +0.000 OA
ATOM      3  N   UNL     1       4.237   4.283  18.993  0.00  0.00    +0.000 N 
ATOM      4  C   UNL     1       3.604   5.591  19.152  0.00  0.00    +0.000 C 
ATOM      5  C   UNL     1       3.572   6.319  17.806  0.00  0.00    +0.000 C 
ATOM      6  O   UNL     1       4.880   6.406  17.216  0.00  0.00    +0.000 OA
ATOM      7  C   UNL     1       5.564   5.134  17.089  0.00  0.00    +0.000 C 
ATOM      8  C   UNL     1       6.998   5.453  16.599  0.00  0.00    +0.000 C 
ATOM      9  C   UNL     1       7.172   4.713  15.276  0.00  0.00    +0.000 C 
ATOM     10  C   UNL     1       5.764   4.625  14.723  0.00  0.00    +0.000 C 
ATOM     11  C   UNL     1       4.941   4.286  15.958  0.00  0.00    +0.000 C 
ATOM     12  C   UNL     1       5.595   4.395  18.454  0.00  0.00    +0.000 C 
ENDROOT
BRANCH   1  13
ATOM     13  C   UNL     1       2.073   2.953  19.011  0.00  0.00    +0.000 C 
BRANCH  13  15
ATOM     14  C   UNL     1       0.814   4.479  20.609  0.00  0.00    +0.000 C 
ATOM     15  C   UNL     1       1.419   3.088  20.408  0.00  0.00    +0.000 C 
ATOM     16  C   UNL     1       2.319   2.741  21.599  0.00  0.00    +0.000 C 
ENDBRANCH  13  15
BRANCH  13  17
ATOM     17  N   UNL     1       1.707   1.656  18.385  0.00  0.00    +0.000 NA
ATOM     18  H   UNL     1       2.408   0.971  18.686  0.00  0.00    +0.000 HD
ATOM     19  H   UNL     1       1.855   1.731  17.379  0.00  0.00    +0.000 HD
ENDBRANCH  13  17
ENDBRANCH   1  13
TORSDOF 3
ENDMDL
MODEL 2
REMARK VINA RESULT:      -6.9      1.829      2.969
REMARK  Name = 
REMARK  5 active torsions:
REMARK  status: ('A' for Active; 'I' for Inactive)
REMARK    1  A    between atoms: C_1  and  C_2
REMARK    2  A    between atoms: C_2  and  C_3
REMARK    3  A    between atoms: C_2  and  C_4
REMARK    4  A    between atoms: C_4  and  N_5
REMARK    5  A    between atoms: C_4  and  C_6
REMARK                            x       y       z     vdW  Elec       q    Type
REMARK                         _______ _______ _______ _____ _____    ______ ____
ROOT
ATOM      1  C   UNL     1       3.294   5.054  18.495  0.00  0.00    +0.000 C 
ATOM      2  O   UNL     1       3.072   5.975  19.289  0.00  0.00    +0.000 OA
ATOM      3  N   UNL     1       4.081   5.257  17.371  0.00  0.00    +0.000 N 
ATOM      4  C   UNL     1       4.435   4.284  16.339  0.00  0.00    +0.000 C 
ATOM      5  C   UNL     1       5.903   3.877  16.490  0.00  0.00    +0.000 C 
ATOM      6  O   UNL     1       6.775   5.020  16.496  0.00  0.00    +0.000 OA
ATOM      7  C   UNL     1       6.426   6.034  17.471  0.00  0.00    +0.000 C 
ATOM      8  C   UNL     1       7.364   7.237  17.209  0.00  0.00    +0.000 C 
ATOM      9  C   UNL     1       8.136   7.468  18.504  0.00  0.00    +0.000 C 
ATOM     10  C   UNL     1       8.184   6.096  19.146  0.00  0.00    +0.000 C 
ATOM     11  C   UNL     1       6.779   5.564  18.900  0.00  0.00    +0.000 C 
ATOM     12  C   UNL     1       4.937   6.446  17.318  0.00  0.00    +0.000 C 
ENDROOT
BRANCH   1  13
ATOM     13  C   UNL     1       2.842   3.609  18.854  0.00  0.00    +0.000 C 
BRANCH  13  15
ATOM     14  C   UNL     1       1.419   3.384  20.951  0.00  0.00    +0.000 C 
ATOM     15  C   UNL     1       1.406   3.499  19.424  0.00  0.00    +0.000 C 
ATOM     16  C   UNL     1       0.541   2.381  18.832  0.00  0.00    +0.000 C 
ENDBRANCH  13  15
BRANCH  13  17
ATOM     17  N   UNL     1       3.832   3.074  19.825  0.00  0.00    +0.000 NA
ATOM     18  H   UNL     1       4.094   2.138  19.499  0.00  0.00    +0.000 HD
ATOM     19  H   UNL     1       3.354   2.900  20.709  0.00  0.00    +0.000 HD
ENDBRANCH  13  17
ENDBRANCH   1  13
TORSDOF 3
ENDMDL
MODEL 3
REMARK VINA RESULT:      -6.8      1.893      5.553
REMARK  Name = 
REMARK  5 active torsions:
REMARK  status: ('A' for Active; 'I' for Inactive)
REMARK    1  A    between atoms: C_1  and  C_2
REMARK    2  A    between atoms: C_2  and  C_3
REMARK    3  A    between atoms: C_2  and  C_4
REMARK    4  A    between atoms: C_4  and  N_5
REMARK    5  A    between atoms: C_4  and  C_6
REMARK                            x       y       z     vdW  Elec       q    Type
REMARK                         _______ _______ _______ _____ _____    ______ ____
ROOT
ATOM      1  C   UNL     1       5.555   4.736  18.344  0.00  0.00    +0.000 C 
ATOM      2  O   UNL     1       5.919   3.560  18.455  0.00  0.00    +0.000 OA
ATOM      3  N   UNL     1       4.242   5.048  18.026  0.00  0.00    +0.000 N 
ATOM      4  C   UNL     1       3.653   6.375  17.854  0.00  0.00    +0.000 C 
ATOM      5  C   UNL     1       2.755   6.703  19.049  0.00  0.00    +0.000 C 
ATOM      6  O   UNL     1       1.765   5.684  19.267  0.00  0.00    +0.000 OA
ATOM      7  C   UNL     1       2.304   4.344  19.389  0.00  0.00    +0.000 C 
ATOM      8  C   UNL     1       1.089   3.385  19.448  0.00  0.00    +0.000 C 
ATOM      9  C   UNL     1       1.199   2.636  20.772  0.00  0.00    +0.000 C 
ATOM     10  C   UNL     1       1.943   3.600  21.673  0.00  0.00    +0.000 C 
ATOM     11  C   UNL     1       3.014   4.161  20.749  0.00  0.00    +0.000 C 
ATOM     12  C   UNL     1       3.216   4.012  18.178  0.00  0.00    +0.000 C 
ENDROOT
BRANCH   1  13
ATOM     13  C   UNL     1       6.531   5.878  18.747  0.00  0.00    +0.000 C 
BRANCH  13  15
ATOM     14  C   UNL     1       7.675   7.864  17.643  0.00  0.00    +0.000 C 
ATOM     15  C   UNL     1       7.488   6.345  17.622  0.00  0.00    +0.000 C 
ATOM     16  C   UNL     1       7.119   5.892  16.205  0.00  0.00    +0.000 C 
ENDBRANCH  13  15
BRANCH  13  17
ATOM     17  N   UNL     1       7.302   5.396  19.922  0.00  0.00    +0.000 NA
ATOM     18  H   UNL     1       8.108   4.878  19.558  0.00  0.00    +0.000 HD
ATOM     19  H   UNL     1       6.749   4.684  20.399  0.00  0.00    +0.000 HD
ENDBRANCH  13  17
ENDBRANCH   1  13
TORSDOF 3
ENDMDL
MODEL 4
REMARK VINA RESULT:      -6.8      1.717      5.486
REMARK  Name = 
REMARK  5 active torsions:
REMARK  status: ('A' for Active; 'I' for Inactive)
REMARK    1  A    between atoms: C_1  and  C_2
REMARK    2  A    between atoms: C_2  and  C_3
REMARK    3  A    between atoms: C_2  and  C_4
REMARK    4  A    between atoms: C_4  and  N_5
REMARK    5  A    between atoms: C_4  and  C_6
REMARK                            x       y       z     vdW  Elec       q    Type
REMARK                         _______ _______ _______ _____ _____    ______ ____
ROOT
ATOM      1  C   UNL     1       4.469   4.389  17.336  0.00  0.00    +0.000 C 
ATOM      2  O   UNL     1       4.476   3.180  17.080  0.00  0.00    +0.000 OA
ATOM      3  N   UNL     1       3.299   5.028  17.721  0.00  0.00    +0.000 N 
ATOM      4  C   UNL     1       3.118   6.440  18.053  0.00  0.00    +0.000 C 
ATOM      5  C   UNL     1       2.931   6.599  19.564  0.00  0.00    +0.000 C 
ATOM      6  O   UNL     1       1.863   5.774  20.058  0.00  0.00    +0.000 OA
ATOM      7  C   UNL     1       1.977   4.372  19.704  0.00  0.00    +0.000 C 
ATOM      8  C   UNL     1       0.668   3.692  20.174  0.00  0.00    +0.000 C 
ATOM      9  C   UNL     1       1.081   2.602  21.158  0.00  0.00    +0.000 C 
ATOM     10  C   UNL     1       2.379   3.117  21.745  0.00  0.00    +0.000 C 
ATOM     11  C   UNL     1       3.092   3.689  20.527  0.00  0.00    +0.000 C 
ATOM     12  C   UNL     1       2.169   4.212  18.172  0.00  0.00    +0.000 C 
ENDROOT
BRANCH   1  13
ATOM     13  C   UNL     1       5.816   5.163  17.408  0.00  0.00    +0.000 C 
BRANCH  13  15
ATOM     14  C   UNL     1       5.311   6.427  15.259  0.00  0.00    +0.000 C 
ATOM     15  C   UNL     1       6.366   5.642  16.041  0.00  0.00    +0.000 C 
ATOM     16  C   UNL     1       6.964   4.551  15.147  0.00  0.00    +0.000 C 
ENDBRANCH  13  15
BRANCH  13  17
ATOM     17  N   UNL     1       6.794   4.270  18.081  0.00  0.00    +0.000 NA
ATOM     18  H   UNL     1       7.119   4.761  18.920  0.00  0.00    +0.000 HD
ATOM     19  H   UNL     1       7.627   4.206  17.496  0.00  0.00    +0.000 HD
ENDBRANCH  13  17
ENDBRANCH   1  13
TORSDOF 3
ENDMDL
MODEL 5
REMARK VINA RESULT:      -6.7      1.774      2.685
REMARK  Name = 
REMARK  5 active torsions:
REMARK  status: ('A' for Active; 'I' for Inactive)
REMARK    1  A    between atoms: C_1  and  C_2
REMARK    2  A    between atoms: C_2  and  C_3
REMARK    3  A    between atoms: C_2  and  C_4
REMARK    4  A    between atoms: C_4  and  N_5
REMARK    5  A    between atoms: C_4  and  C_6
REMARK                            x       y       z     vdW  Elec       q    Type
REMARK                         _______ _______ _______ _____ _____    ______ ____
ROOT
ATOM      1  C   UNL     1       3.478   4.392  19.116  0.00  0.00    +0.000 C 
ATOM      2  O   UNL     1       3.344   5.201  20.042  0.00  0.00    +0.000 OA
ATOM      3  N   UNL     1       3.921   4.805  17.869  0.00  0.00    +0.000 N 
ATOM      4  C   UNL     1       4.128   3.985  16.676  0.00  0.00    +0.000 C 
ATOM      5  C   UNL     1       5.627   3.804  16.425  0.00  0.00    +0.000 C 
ATOM      6  O   UNL     1       6.312   5.066  16.354  0.00  0.00    +0.000 OA
ATOM      7  C   UNL     1       6.089   5.932  17.495  0.00  0.00    +0.000 C 
ATOM      8  C   UNL     1       6.761   7.286  17.158  0.00  0.00    +0.000 C 
ATOM      9  C   UNL     1       7.798   7.532  18.248  0.00  0.00    +0.000 C 
ATOM     10  C   UNL     1       8.189   6.139  18.698  0.00  0.00    +0.000 C 
ATOM     11  C   UNL     1       6.852   5.413  18.734  0.00  0.00    +0.000 C 
ATOM     12  C   UNL     1       4.569   6.114  17.751  0.00  0.00    +0.000 C 
ENDROOT
BRANCH   1  13
ATOM     13  C   UNL     1       3.328   2.871  19.404  0.00  0.00    +0.000 C 
BRANCH  13  15
ATOM     14  C   UNL     1       0.799   3.093  19.554  0.00  0.00    +0.000 C 
ATOM     15  C   UNL     1       2.050   2.477  20.185  0.00  0.00    +0.000 C 
ATOM     16  C   UNL     1       2.070   2.780  21.687  0.00  0.00    +0.000 C 
ENDBRANCH  13  15
BRANCH  13  17
ATOM     17  N   UNL     1       4.545   2.448  20.146  0.00  0.00    +0.000 NA
ATOM     18  H   UNL     1       4.700   1.459  19.927  0.00  0.00    +0.000 HD
ATOM     19  H   UNL     1       4.329   2.447  21.143  0.00  0.00    +0.000 HD
ENDBRANCH  13  17
ENDBRANCH   1  13
TORSDOF 3
ENDMDL
MODEL 6
REMARK VINA RESULT:      -6.7      0.908      1.025
REMARK  Name = 
REMARK  5 active torsions:
REMARK  status: ('A' for Active; 'I' for Inactive)
REMARK    1  A    between atoms: C_1  and  C_2
REMARK    2  A    between atoms: C_2  and  C_3
REMARK    3  A    between atoms: C_2  and  C_4
REMARK    4  A    between atoms: C_4  and  N_5
REMARK    5  A    between atoms: C_4  and  C_6
REMARK                            x       y       z     vdW  Elec       q    Type
REMARK                         _______ _______ _______ _____ _____    ______ ____
ROOT
ATOM      1  C   UNL     1       4.001   3.311  19.477  0.00  0.00    +0.000 C 
ATOM      2  O   UNL     1       5.002   2.595  19.591  0.00  0.00    +0.000 OA
ATOM      3  N   UNL     1       4.115   4.693  19.443  0.00  0.00    +0.000 N 
ATOM      4  C   UNL     1       3.040   5.676  19.318  0.00  0.00    +0.000 C 
ATOM      5  C   UNL     1       3.060   6.292  17.917  0.00  0.00    +0.000 C 
ATOM      6  O   UNL     1       4.350   6.839  17.593  0.00  0.00    +0.000 OA
ATOM      7  C   UNL     1       5.451   5.909  17.755  0.00  0.00    +0.000 C 
ATOM      8  C   UNL     1       6.749   6.721  17.526  0.00  0.00    +0.000 C 
ATOM      9  C   UNL     1       7.471   6.053  16.361  0.00  0.00    +0.000 C 
ATOM     10  C   UNL     1       6.353   5.428  15.552  0.00  0.00    +0.000 C 
ATOM     11  C   UNL     1       5.445   4.851  16.629  0.00  0.00    +0.000 C 
ATOM     12  C   UNL     1       5.429   5.284  19.176  0.00  0.00    +0.000 C 
ENDROOT
BRANCH   1  13
ATOM     13  C   UNL     1       2.622   2.655  19.184  0.00  0.00    +0.000 C 
BRANCH  13  15
ATOM     14  C   UNL     1       0.474   3.428  20.308  0.00  0.00    +0.000 C 
ATOM     15  C   UNL     1       1.694   2.509  20.416  0.00  0.00    +0.000 C 
ATOM     16  C   UNL     1       2.365   2.705  21.780  0.00  0.00    +0.000 C 
ENDBRANCH  13  15
BRANCH  13  17
ATOM     17  N   UNL     1       2.894   1.327  18.576  0.00  0.00    +0.000 NA
ATOM     18  H   UNL     1       2.072   0.742  18.755  0.00  0.00    +0.000 HD
ATOM     19  H   UNL     1       3.637   0.875  19.109  0.00  0.00    +0.000 HD
ENDBRANCH  13  17
ENDBRANCH   1  13
TORSDOF 3
ENDMDL
MODEL 7
REMARK VINA RESULT:      -6.6      1.923      3.190
REMARK  Name = 
REMARK  5 active torsions:
REMARK  status: ('A' for Active; 'I' for Inactive)
REMARK    1  A    between atoms: C_1  and  C_2
REMARK    2  A    between atoms: C_2  and  C_3
REMARK    3  A    between atoms: C_2  and  C_4
REMARK    4  A    between atoms: C_4  and  N_5
REMARK    5  A    between atoms: C_4  and  C_6
REMARK                            x       y       z     vdW  Elec       q    Type
REMARK                         _______ _______ _______ _____ _____    ______ ____
ROOT
ATOM      1  C   UNL     1       3.968   4.714  18.173  0.00  0.00    +0.000 C 
ATOM      2  O   UNL     1       3.559   5.480  19.053  0.00  0.00    +0.000 OA
ATOM      3  N   UNL     1       4.662   5.198  17.074  0.00  0.00    +0.000 N 
ATOM      4  C   UNL     1       5.205   4.435  15.951  0.00  0.00    +0.000 C 
ATOM      5  C   UNL     1       6.731   4.363  16.063  0.00  0.00    +0.000 C 
ATOM      6  O   UNL     1       7.319   5.670  16.179  0.00  0.00    +0.000 OA
ATOM      7  C   UNL     1       6.769   6.479  17.250  0.00  0.00    +0.000 C 
ATOM      8  C   UNL     1       7.402   7.885  17.106  0.00  0.00    +0.000 C 
ATOM      9  C   UNL     1       8.130   8.162  18.417  0.00  0.00    +0.000 C 
ATOM     10  C   UNL     1       8.504   6.784  18.922  0.00  0.00    +0.000 C 
ATOM     11  C   UNL     1       7.252   5.970  18.626  0.00  0.00    +0.000 C 
ATOM     12  C   UNL     1       5.223   6.551  17.137  0.00  0.00    +0.000 C 
ENDROOT
BRANCH   1  13
ATOM     13  C   UNL     1       3.866   3.177  18.389  0.00  0.00    +0.000 C 
BRANCH  13  15
ATOM     14  C   UNL     1       1.359   3.457  18.062  0.00  0.00    +0.000 C 
ATOM     15  C   UNL     1       2.456   2.665  18.777  0.00  0.00    +0.000 C 
ATOM     16  C   UNL     1       2.157   2.615  20.279  0.00  0.00    +0.000 C 
ENDBRANCH  13  15
BRANCH  13  17
ATOM     17  N   UNL     1       4.857   2.820  19.437  0.00  0.00    +0.000 NA
ATOM     18  H   UNL     1       4.459   2.042  19.973  0.00  0.00    +0.000 HD
ATOM     19  H   UNL     1       4.902   3.584  20.112  0.00  0.00    +0.000 HD
ENDBRANCH  13  17
ENDBRANCH   1  13
TORSDOF 3
ENDMDL
MODEL 8
REMARK VINA RESULT:      -6.6      1.093      1.300
REMARK  Name = 
REMARK  5 active torsions:
REMARK  status: ('A' for Active; 'I' for Inactive)
REMARK    1  A    between atoms: C_1  and  C_2
REMARK    2  A    between atoms: C_2  and  C_3
REMARK    3  A    between atoms: C_2  and  C_4
REMARK    4  A    between atoms: C_4  and  N_5
REMARK    5  A    between atoms: C_4  and  C_6
REMARK                            x       y       z     vdW  Elec       q    Type
REMARK                         _______ _______ _______ _____ _____    ______ ____
ROOT
ATOM      1  C   UNL     1       3.218   4.078  19.050  0.00  0.00    +0.000 C 
ATOM      2  O   UNL     1       3.712   2.944  19.059  0.00  0.00    +0.000 OA
ATOM      3  N   UNL     1       4.023   5.204  18.969  0.00  0.00    +0.000 N 
ATOM      4  C   UNL     1       3.604   6.605  18.951  0.00  0.00    +0.000 C 
ATOM      5  C   UNL     1       3.776   7.181  17.543  0.00  0.00    +0.000 C 
ATOM      6  O   UNL     1       5.115   6.998  17.053  0.00  0.00    +0.000 OA
ATOM      7  C   UNL     1       5.589   5.629  17.103  0.00  0.00    +0.000 C 
ATOM      8  C   UNL     1       7.083   5.666  16.699  0.00  0.00    +0.000 C 
ATOM      9  C   UNL     1       7.217   4.771  15.471  0.00  0.00    +0.000 C 
ATOM     10  C   UNL     1       5.851   4.845  14.819  0.00  0.00    +0.000 C 
ATOM     11  C   UNL     1       4.908   4.773  16.012  0.00  0.00    +0.000 C 
ATOM     12  C   UNL     1       5.413   5.045  18.530  0.00  0.00    +0.000 C 
ENDROOT
BRANCH   1  13
ATOM     13  C   UNL     1       1.675   4.238  18.942  0.00  0.00    +0.000 C 
BRANCH  13  15
ATOM     14  C   UNL     1       1.438   3.069  21.189  0.00  0.00    +0.000 C 
ATOM     15  C   UNL     1       0.854   3.229  19.783  0.00  0.00    +0.000 C 
ATOM     16  C   UNL     1       0.649   1.848  19.151  0.00  0.00    +0.000 C 
ENDBRANCH  13  15
BRANCH  13  17
ATOM     17  N   UNL     1       1.327   4.122  17.502  0.00  0.00    +0.000 NA
ATOM     18  H   UNL     1       1.665   3.207  17.185  0.00  0.00    +0.000 HD
ATOM     19  H   UNL     1       1.896   4.787  16.978  0.00  0.00    +0.000 HD
ENDBRANCH  13  17
ENDBRANCH   1  13
TORSDOF 3
ENDMDL
MODEL 9
REMARK VINA RESULT:      -6.5      1.307      1.623
REMARK  Name = 
REMARK  5 active torsions:
REMARK  status: ('A' for Active; 'I' for Inactive)
REMARK    1  A    between atoms: C_1  and  C_2
REMARK    2  A    between atoms: C_2  and  C_3
REMARK    3  A    between atoms: C_2  and  C_4
REMARK    4  A    between atoms: C_4  and  N_5
REMARK    5  A    between atoms: C_4  and  C_6
REMARK                            x       y       z     vdW  Elec       q    Type
REMARK                         _______ _______ _______ _____ _____    ______ ____
ROOT
ATOM      1  C   UNL     1       4.299   3.453  19.837  0.00  0.00    +0.000 C 
ATOM      2  O   UNL     1       5.179   2.585  19.870  0.00  0.00    +0.000 OA
ATOM      3  N   UNL     1       4.590   4.747  19.432  0.00  0.00    +0.000 N 
ATOM      4  C   UNL     1       3.674   5.883  19.341  0.00  0.00    +0.000 C 
ATOM      5  C   UNL     1       3.371   6.189  17.872  0.00  0.00    +0.000 C 
ATOM      6  O   UNL     1       4.573   6.385  17.109  0.00  0.00    +0.000 OA
ATOM      7  C   UNL     1       5.532   5.303  17.215  0.00  0.00    +0.000 C 
ATOM      8  C   UNL     1       6.807   5.771  16.472  0.00  0.00    +0.000 C 
ATOM      9  C   UNL     1       7.057   4.750  15.367  0.00  0.00    +0.000 C 
ATOM     10  C   UNL     1       5.676   4.217  15.048  0.00  0.00    +0.000 C 
ATOM     11  C   UNL     1       5.050   4.064  16.427  0.00  0.00    +0.000 C 
ATOM     12  C   UNL     1       5.839   4.992  18.705  0.00  0.00    +0.000 C 
ENDROOT
BRANCH   1  13
ATOM     13  C   UNL     1       2.817   3.046  20.073  0.00  0.00    +0.000 C 
BRANCH  13  15
ATOM     14  C   UNL     1       0.490   2.643  19.128  0.00  0.00    +0.000 C 
ATOM     15  C   UNL     1       1.933   3.034  18.801  0.00  0.00    +0.000 C 
ATOM     16  C   UNL     1       2.449   2.175  17.642  0.00  0.00    +0.000 C 
ENDBRANCH  13  15
BRANCH  13  17
ATOM     17  N   UNL     1       2.265   3.985  21.084  0.00  0.00    +0.000 NA
ATOM     18  H   UNL     1       3.017   4.178  21.754  0.00  0.00    +0.000 HD
ATOM     19  H   UNL     1       1.566   3.489  21.637  0.00  0.00    +0.000 HD
ENDBRANCH  13  17
ENDBRANCH   1  13
TORSDOF 3
ENDMDL
