MODEL 1
REMARK VINA RESULT:      -9.1      0.000      0.000
REMARK  Name = 
REMARK  7 active torsions:
REMARK  status: ('A' for Active; 'I' for Inactive)
REMARK    1  A    between atoms: S_2  and  N_4
REMARK    2  A    between atoms: S_2  and  C_22
REMARK    3  A    between atoms: N_4  and  C_5
REMARK    4  A    between atoms: C_7  and  S_8
REMARK    5  A    between atoms: S_8  and  C_9
REMARK    6  A    between atoms: C_14  and  O_15
REMARK    7  A    between atoms: C_25  and  C_26
REMARK                            x       y       z     vdW  Elec       q    Type
REMARK                         _______ _______ _______ _____ _____    ______ ____
ROOT
ATOM      1  C   UNL     1      -0.852  10.645  19.803  0.00  0.00    +0.000 A 
ATOM      2  C   UNL     1      -1.170  11.407  20.936  0.00  0.00    +0.000 A 
ATOM      3  C   UNL     1      -2.258  12.291  20.944  0.00  0.00    +0.000 A 
ATOM      4  C   UNL     1      -3.046  12.364  19.785  0.00  0.00    +0.000 A 
ATOM      5  C   UNL     1      -2.791  11.553  18.649  0.00  0.00    +0.000 A 
ATOM      6  C   UNL     1      -3.602  11.626  17.495  0.00  0.00    +0.000 A 
ATOM      7  C   UNL     1      -3.348  10.846  16.368  0.00  0.00    +0.000 A 
ATOM      8  C   UNL     1      -2.276   9.966  16.374  0.00  0.00    +0.000 A 
ATOM      9  C   UNL     1      -1.456   9.875  17.502  0.00  0.00    +0.000 A 
ATOM     10  C   UNL     1      -1.684  10.665  18.656  0.00  0.00    +0.000 A 
ENDROOT
BRANCH   1  11
ATOM     11  N   UNL     1       0.413   9.952  19.833  0.00  0.00    +0.000 N 
ATOM     12  H   UNL     1       0.628   9.484  18.952  0.00  0.00    +0.000 HD
BRANCH  11  14
ATOM     13  O   UNL     1       1.591   9.444  22.069  0.00  0.00    +0.000 OA
ATOM     14  S   UNL     1       0.689   8.861  21.097  0.00  0.00    +0.000 S 
ATOM     15  O   UNL     1      -0.593   8.303  21.462  0.00  0.00    +0.000 OA
BRANCH  14  16
ATOM     16  C   UNL     1       1.619   7.497  20.398  0.00  0.00    +0.000 A 
ATOM     17  C   UNL     1       1.804   6.194  20.814  0.00  0.00    +0.000 A 
ATOM     18  C   UNL     1       2.612   5.443  19.910  0.00  0.00    +0.000 A 
ATOM     19  C   UNL     1       3.025   6.180  18.811  0.00  0.00    +0.000 A 
ATOM     20  S   UNL     1       2.474   7.810  18.950  0.00  0.00    +0.000 S 
BRANCH  19  21
ATOM     21  C   UNL     1       3.828   5.731  17.650  0.00  0.00    +0.000 A 
ATOM     22  C   UNL     1       3.992   4.373  17.337  0.00  0.00    +0.000 A 
ATOM     23  C   UNL     1       4.789   3.968  16.258  0.00  0.00    +0.000 A 
ATOM     24  C   UNL     1       5.440   4.917  15.475  0.00  0.00    +0.000 A 
ATOM     25  C   UNL     1       5.294   6.269  15.768  0.00  0.00    +0.000 A 
ATOM     26  C   UNL     1       4.496   6.671  16.845  0.00  0.00    +0.000 A 
ENDBRANCH  19  21
ENDBRANCH  14  16
ENDBRANCH  11  14
ENDBRANCH   1  11
BRANCH   4  27
ATOM     27  O   UNL     1      -4.069  13.280  19.680  0.00  0.00    +0.000 OA
ATOM     28  H   UNL     1      -4.812  12.935  20.215  0.00  0.00    +0.000 HD
ENDBRANCH   4  27
BRANCH   3  29
ATOM     29  S   UNL     1      -2.325  13.396  22.359  0.00  0.00    +0.000 S 
BRANCH  29  30
ATOM     30  C   UNL     1      -3.703  12.896  23.240  0.00  0.00    +0.000 A 
ATOM     31  N   UNL     1      -3.838  12.603  24.512  0.00  0.00    +0.000 NA
ATOM     32  N   UNL     1      -5.151  12.211  24.661  0.00  0.00    +0.000 NA
ATOM     33  N   UNL     1      -5.797  12.248  23.502  0.00  0.00    +0.000 NA
ATOM     34  N   UNL     1      -4.891  12.684  22.614  0.00  0.00    +0.000 N 
ATOM     35  H   UNL     1      -5.135  12.779  21.637  0.00  0.00    +0.000 HD
ENDBRANCH  29  30
ENDBRANCH   3  29
TORSDOF 7
ENDMDL
MODEL 2
REMARK VINA RESULT:      -8.9      0.345      1.039
REMARK  Name = 
REMARK  7 active torsions:
REMARK  status: ('A' for Active; 'I' for Inactive)
REMARK    1  A    between atoms: S_2  and  N_4
REMARK    2  A    between atoms: S_2  and  C_22
REMARK    3  A    between atoms: N_4  and  C_5
REMARK    4  A    between atoms: C_7  and  S_8
REMARK    5  A    between atoms: S_8  and  C_9
REMARK    6  A    between atoms: C_14  and  O_15
REMARK    7  A    between atoms: C_25  and  C_26
REMARK                            x       y       z     vdW  Elec       q    Type
REMARK                         _______ _______ _______ _____ _____    ______ ____
ROOT
ATOM      1  C   UNL     1      -0.753  10.660  19.918  0.00  0.00    +0.000 A 
ATOM      2  C   UNL     1      -1.062  11.464  21.024  0.00  0.00    +0.000 A 
ATOM      3  C   UNL     1      -2.138  12.362  21.001  0.00  0.00    +0.000 A 
ATOM      4  C   UNL     1      -2.924  12.407  19.838  0.00  0.00    +0.000 A 
ATOM      5  C   UNL     1      -2.679  11.554  18.731  0.00  0.00    +0.000 A 
ATOM      6  C   UNL     1      -3.488  11.600  17.574  0.00  0.00    +0.000 A 
ATOM      7  C   UNL     1      -3.243  10.780  16.475  0.00  0.00    +0.000 A 
ATOM      8  C   UNL     1      -2.183   9.886  16.512  0.00  0.00    +0.000 A 
ATOM      9  C   UNL     1      -1.366   9.821  17.643  0.00  0.00    +0.000 A 
ATOM     10  C   UNL     1      -1.584  10.652  18.770  0.00  0.00    +0.000 A 
ENDROOT
BRANCH   1  11
ATOM     11  N   UNL     1       0.503   9.952  19.972  0.00  0.00    +0.000 N 
ATOM     12  H   UNL     1       0.757   9.530  19.079  0.00  0.00    +0.000 HD
BRANCH  11  14
ATOM     13  O   UNL     1       1.586   9.296  22.218  0.00  0.00    +0.000 OA
ATOM     14  S   UNL     1       0.703   8.789  21.186  0.00  0.00    +0.000 S 
ATOM     15  O   UNL     1      -0.605   8.251  21.478  0.00  0.00    +0.000 OA
BRANCH  14  16
ATOM     16  C   UNL     1       1.621   7.438  20.449  0.00  0.00    +0.000 A 
ATOM     17  C   UNL     1       1.751   6.108  20.799  0.00  0.00    +0.000 A 
ATOM     18  C   UNL     1       2.573   5.383  19.888  0.00  0.00    +0.000 A 
ATOM     19  C   UNL     1       3.051   6.165  18.847  0.00  0.00    +0.000 A 
ATOM     20  S   UNL     1       2.543   7.801  19.056  0.00  0.00    +0.000 S 
BRANCH  19  21
ATOM     21  C   UNL     1       3.887   5.755  17.695  0.00  0.00    +0.000 A 
ATOM     22  C   UNL     1       4.499   6.689  16.846  0.00  0.00    +0.000 A 
ATOM     23  C   UNL     1       5.253   6.279  15.739  0.00  0.00    +0.000 A 
ATOM     24  C   UNL     1       5.402   4.924  15.458  0.00  0.00    +0.000 A 
ATOM     25  C   UNL     1       4.801   3.979  16.284  0.00  0.00    +0.000 A 
ATOM     26  C   UNL     1       4.051   4.390  17.391  0.00  0.00    +0.000 A 
ENDBRANCH  19  21
ENDBRANCH  14  16
ENDBRANCH  11  14
ENDBRANCH   1  11
BRANCH   4  27
ATOM     27  O   UNL     1      -3.934  13.332  19.702  0.00  0.00    +0.000 OA
ATOM     28  H   UNL     1      -3.576  14.064  19.161  0.00  0.00    +0.000 HD
ENDBRANCH   4  27
BRANCH   3  29
ATOM     29  S   UNL     1      -2.192  13.515  22.377  0.00  0.00    +0.000 S 
BRANCH  29  30
ATOM     30  C   UNL     1      -3.643  13.144  23.204  0.00  0.00    +0.000 A 
ATOM     31  N   UNL     1      -4.788  13.783  23.239  0.00  0.00    +0.000 NA
ATOM     32  N   UNL     1      -5.584  13.064  24.104  0.00  0.00    +0.000 NA
ATOM     33  N   UNL     1      -4.931  12.019  24.599  0.00  0.00    +0.000 NA
ATOM     34  N   UNL     1      -3.717  12.067  24.029  0.00  0.00    +0.000 N 
ATOM     35  H   UNL     1      -3.014  11.379  24.263  0.00  0.00    +0.000 HD
ENDBRANCH  29  30
ENDBRANCH   3  29
TORSDOF 7
ENDMDL
MODEL 3
REMARK VINA RESULT:      -8.9      1.497      2.033
REMARK  Name = 
REMARK  7 active torsions:
REMARK  status: ('A' for Active; 'I' for Inactive)
REMARK    1  A    between atoms: S_2  and  N_4
REMARK    2  A    between atoms: S_2  and  C_22
REMARK    3  A    between atoms: N_4  and  C_5
REMARK    4  A    between atoms: C_7  and  S_8
REMARK    5  A    between atoms: S_8  and  C_9
REMARK    6  A    between atoms: C_14  and  O_15
REMARK    7  A    between atoms: C_25  and  C_26
REMARK                            x       y       z     vdW  Elec       q    Type
REMARK                         _______ _______ _______ _____ _____    ______ ____
ROOT
ATOM      1  C   UNL     1      -1.776  11.824  19.554  0.00  0.00    +0.000 A 
ATOM      2  C   UNL     1      -2.511  12.527  20.519  0.00  0.00    +0.000 A 
ATOM      3  C   UNL     1      -3.873  12.810  20.341  0.00  0.00    +0.000 A 
ATOM      4  C   UNL     1      -4.490  12.333  19.174  0.00  0.00    +0.000 A 
ATOM      5  C   UNL     1      -3.789  11.557  18.215  0.00  0.00    +0.000 A 
ATOM      6  C   UNL     1      -4.428  11.071  17.052  0.00  0.00    +0.000 A 
ATOM      7  C   UNL     1      -3.742  10.323  16.097  0.00  0.00    +0.000 A 
ATOM      8  C   UNL     1      -2.398  10.039  16.287  0.00  0.00    +0.000 A 
ATOM      9  C   UNL     1      -1.741  10.509  17.427  0.00  0.00    +0.000 A 
ATOM     10  C   UNL     1      -2.410  11.282  18.408  0.00  0.00    +0.000 A 
ENDROOT
BRANCH   1  11
ATOM     11  N   UNL     1      -0.345  11.795  19.736  0.00  0.00    +0.000 N 
ATOM     12  H   UNL     1       0.166  11.844  18.854  0.00  0.00    +0.000 HD
BRANCH  11  14
ATOM     13  O   UNL     1       1.333  11.057  21.549  0.00  0.00    +0.000 OA
ATOM     14  S   UNL     1       0.310  10.539  20.663  0.00  0.00    +0.000 S 
ATOM     15  O   UNL     1      -0.797   9.740  21.135  0.00  0.00    +0.000 OA
BRANCH  14  16
ATOM     16  C   UNL     1       1.208   9.483  19.526  0.00  0.00    +0.000 A 
ATOM     17  C   UNL     1       1.578   9.649  18.206  0.00  0.00    +0.000 A 
ATOM     18  C   UNL     1       2.323   8.541  17.707  0.00  0.00    +0.000 A 
ATOM     19  C   UNL     1       2.521   7.548  18.654  0.00  0.00    +0.000 A 
ATOM     20  S   UNL     1       1.717   7.964  20.124  0.00  0.00    +0.000 S 
BRANCH  19  21
ATOM     21  C   UNL     1       3.281   6.284  18.519  0.00  0.00    +0.000 A 
ATOM     22  C   UNL     1       3.217   5.267  19.483  0.00  0.00    +0.000 A 
ATOM     23  C   UNL     1       3.974   4.096  19.354  0.00  0.00    +0.000 A 
ATOM     24  C   UNL     1       4.816   3.924  18.259  0.00  0.00    +0.000 A 
ATOM     25  C   UNL     1       4.898   4.921  17.291  0.00  0.00    +0.000 A 
ATOM     26  C   UNL     1       4.139   6.088  17.420  0.00  0.00    +0.000 A 
ENDBRANCH  19  21
ENDBRANCH  14  16
ENDBRANCH  11  14
ENDBRANCH   1  11
BRANCH   4  27
ATOM     27  O   UNL     1      -5.797  12.655  18.882  0.00  0.00    +0.000 OA
ATOM     28  H   UNL     1      -5.845  13.631  18.844  0.00  0.00    +0.000 HD
ENDBRANCH   4  27
BRANCH   3  29
ATOM     29  S   UNL     1      -4.565  13.972  21.522  0.00  0.00    +0.000 S 
BRANCH  29  30
ATOM     30  C   UNL     1      -5.366  12.998  22.679  0.00  0.00    +0.000 A 
ATOM     31  N   UNL     1      -6.561  12.459  22.653  0.00  0.00    +0.000 NA
ATOM     32  N   UNL     1      -6.705  11.825  23.869  0.00  0.00    +0.000 NA
ATOM     33  N   UNL     1      -5.625  11.991  24.625  0.00  0.00    +0.000 NA
ATOM     34  N   UNL     1      -4.785  12.720  23.875  0.00  0.00    +0.000 N 
ATOM     35  H   UNL     1      -3.886  13.003  24.241  0.00  0.00    +0.000 HD
ENDBRANCH  29  30
ENDBRANCH   3  29
TORSDOF 7
ENDMDL
MODEL 4
REMARK VINA RESULT:      -8.7      4.964     10.502
REMARK  Name = 
REMARK  7 active torsions:
REMARK  status: ('A' for Active; 'I' for Inactive)
REMARK    1  A    between atoms: S_2  and  N_4
REMARK    2  A    between atoms: S_2  and  C_22
REMARK    3  A    between atoms: N_4  and  C_5
REMARK    4  A    between atoms: C_7  and  S_8
REMARK    5  A    between atoms: S_8  and  C_9
REMARK    6  A    between atoms: C_14  and  O_15
REMARK    7  A    between atoms: C_25  and  C_26
REMARK                            x       y       z     vdW  Elec       q    Type
REMARK                         _______ _______ _______ _____ _____    ______ ____
ROOT
ATOM      1  C   UNL     1       2.891   5.297  18.094  0.00  0.00    +0.000 A 
ATOM      2  C   UNL     1       4.200   5.222  17.599  0.00  0.00    +0.000 A 
ATOM      3  C   UNL     1       5.133   4.318  18.127  0.00  0.00    +0.000 A 
ATOM      4  C   UNL     1       4.702   3.461  19.151  0.00  0.00    +0.000 A 
ATOM      5  C   UNL     1       3.363   3.464  19.622  0.00  0.00    +0.000 A 
ATOM      6  C   UNL     1       2.940   2.585  20.644  0.00  0.00    +0.000 A 
ATOM      7  C   UNL     1       1.632   2.595  21.125  0.00  0.00    +0.000 A 
ATOM      8  C   UNL     1       0.713   3.484  20.588  0.00  0.00    +0.000 A 
ATOM      9  C   UNL     1       1.106   4.367  19.579  0.00  0.00    +0.000 A 
ATOM     10  C   UNL     1       2.432   4.387  19.079  0.00  0.00    +0.000 A 
ENDROOT
BRANCH   1  11
ATOM     11  N   UNL     1       2.097   6.412  17.637  0.00  0.00    +0.000 N 
ATOM     12  H   UNL     1       1.919   6.385  16.633  0.00  0.00    +0.000 HD
BRANCH  11  14
ATOM     13  O   UNL     1       3.986   7.933  18.514  0.00  0.00    +0.000 OA
ATOM     14  S   UNL     1       2.615   7.972  18.045  0.00  0.00    +0.000 S 
ATOM     15  O   UNL     1       2.180   8.852  16.987  0.00  0.00    +0.000 OA
BRANCH  14  16
ATOM     16  C   UNL     1       1.672   8.460  19.489  0.00  0.00    +0.000 A 
ATOM     17  C   UNL     1       1.578   7.923  20.757  0.00  0.00    +0.000 A 
ATOM     18  C   UNL     1       0.713   8.675  21.604  0.00  0.00    +0.000 A 
ATOM     19  C   UNL     1       0.165   9.783  20.975  0.00  0.00    +0.000 A 
ATOM     20  S   UNL     1       0.666   9.833  19.324  0.00  0.00    +0.000 S 
BRANCH  19  21
ATOM     21  C   UNL     1      -0.731  10.816  21.544  0.00  0.00    +0.000 A 
ATOM     22  C   UNL     1      -1.078  10.836  22.903  0.00  0.00    +0.000 A 
ATOM     23  C   UNL     1      -1.960  11.798  23.413  0.00  0.00    +0.000 A 
ATOM     24  C   UNL     1      -2.515  12.755  22.568  0.00  0.00    +0.000 A 
ATOM     25  C   UNL     1      -2.187  12.753  21.216  0.00  0.00    +0.000 A 
ATOM     26  C   UNL     1      -1.305  11.793  20.709  0.00  0.00    +0.000 A 
ENDBRANCH  19  21
ENDBRANCH  14  16
ENDBRANCH  11  14
ENDBRANCH   1  11
BRANCH   4  27
ATOM     27  O   UNL     1       5.585   2.617  19.787  0.00  0.00    +0.000 OA
ATOM     28  H   UNL     1       6.134   3.173  20.375  0.00  0.00    +0.000 HD
ENDBRANCH   4  27
BRANCH   3  29
ATOM     29  S   UNL     1       6.826   4.575  17.585  0.00  0.00    +0.000 S 
BRANCH  29  30
ATOM     30  C   UNL     1       6.750   4.543  15.877  0.00  0.00    +0.000 A 
ATOM     31  N   UNL     1       6.133   3.713  15.070  0.00  0.00    +0.000 NA
ATOM     32  N   UNL     1       6.458   4.128  13.796  0.00  0.00    +0.000 NA
ATOM     33  N   UNL     1       7.270   5.178  13.829  0.00  0.00    +0.000 NA
ATOM     34  N   UNL     1       7.447   5.440  15.132  0.00  0.00    +0.000 N 
ATOM     35  H   UNL     1       8.053   6.195  15.425  0.00  0.00    +0.000 HD
ENDBRANCH  29  30
ENDBRANCH   3  29
TORSDOF 7
ENDMDL
MODEL 5
REMARK VINA RESULT:      -8.6      1.536      1.852
REMARK  Name = 
REMARK  7 active torsions:
REMARK  status: ('A' for Active; 'I' for Inactive)
REMARK    1  A    between atoms: S_2  and  N_4
REMARK    2  A    between atoms: S_2  and  C_22
REMARK    3  A    between atoms: N_4  and  C_5
REMARK    4  A    between atoms: C_7  and  S_8
REMARK    5  A    between atoms: S_8  and  C_9
REMARK    6  A    between atoms: C_14  and  O_15
REMARK    7  A    between atoms: C_25  and  C_26
REMARK                            x       y       z     vdW  Elec       q    Type
REMARK                         _______ _______ _______ _____ _____    ______ ____
ROOT
ATOM      1  C   UNL     1      -0.672  11.307  20.249  0.00  0.00    +0.000 A 
ATOM      2  C   UNL     1      -1.125  12.180  21.248  0.00  0.00    +0.000 A 
ATOM      3  C   UNL     1      -2.332  12.881  21.116  0.00  0.00    +0.000 A 
ATOM      4  C   UNL     1      -3.096  12.652  19.961  0.00  0.00    +0.000 A 
ATOM      5  C   UNL     1      -2.698  11.720  18.969  0.00  0.00    +0.000 A 
ATOM      6  C   UNL     1      -3.485  11.489  17.818  0.00  0.00    +0.000 A 
ATOM      7  C   UNL     1      -3.092  10.589  16.829  0.00  0.00    +0.000 A 
ATOM      8  C   UNL     1      -1.902   9.892  16.973  0.00  0.00    +0.000 A 
ATOM      9  C   UNL     1      -1.103  10.103  18.100  0.00  0.00    +0.000 A 
ATOM     10  C   UNL     1      -1.472  11.021  19.114  0.00  0.00    +0.000 A 
ENDROOT
BRANCH   1  11
ATOM     11  N   UNL     1       0.681  10.826  20.386  0.00  0.00    +0.000 N 
ATOM     12  H   UNL     1       1.179  10.786  19.496  0.00  0.00    +0.000 HD
BRANCH  11  14
ATOM     13  O   UNL     1       1.970   9.503  22.185  0.00  0.00    +0.000 OA
ATOM     14  S   UNL     1       0.921   9.358  21.195  0.00  0.00    +0.000 S 
ATOM     15  O   UNL     1      -0.385   8.834  21.517  0.00  0.00    +0.000 OA
BRANCH  14  16
ATOM     16  C   UNL     1       1.607   8.220  19.992  0.00  0.00    +0.000 A 
ATOM     17  C   UNL     1       2.164   8.418  18.744  0.00  0.00    +0.000 A 
ATOM     18  C   UNL     1       2.613   7.203  18.149  0.00  0.00    +0.000 A 
ATOM     19  C   UNL     1       2.404   6.094  18.955  0.00  0.00    +0.000 A 
ATOM     20  S   UNL     1       1.584   6.560  20.401  0.00  0.00    +0.000 S 
BRANCH  19  21
ATOM     21  C   UNL     1       2.780   4.685  18.697  0.00  0.00    +0.000 A 
ATOM     22  C   UNL     1       1.995   3.837  17.901  0.00  0.00    +0.000 A 
ATOM     23  C   UNL     1       2.348   2.496  17.703  0.00  0.00    +0.000 A 
ATOM     24  C   UNL     1       3.491   1.977  18.304  0.00  0.00    +0.000 A 
ATOM     25  C   UNL     1       4.283   2.799  19.101  0.00  0.00    +0.000 A 
ATOM     26  C   UNL     1       3.930   4.138  19.296  0.00  0.00    +0.000 A 
ENDBRANCH  19  21
ENDBRANCH  14  16
ENDBRANCH  11  14
ENDBRANCH   1  11
BRANCH   4  27
ATOM     27  O   UNL     1      -4.242  13.375  19.715  0.00  0.00    +0.000 OA
ATOM     28  H   UNL     1      -4.982  12.876  20.114  0.00  0.00    +0.000 HD
ENDBRANCH   4  27
BRANCH   3  29
ATOM     29  S   UNL     1      -2.595  14.171  22.338  0.00  0.00    +0.000 S 
BRANCH  29  30
ATOM     30  C   UNL     1      -3.476  13.413  23.594  0.00  0.00    +0.000 A 
ATOM     31  N   UNL     1      -3.534  13.686  24.876  0.00  0.00    +0.000 NA
ATOM     32  N   UNL     1      -4.355  12.722  25.420  0.00  0.00    +0.000 NA
ATOM     33  N   UNL     1      -4.773  11.870  24.492  0.00  0.00    +0.000 NA
ATOM     34  N   UNL     1      -4.227  12.308  23.347  0.00  0.00    +0.000 N 
ATOM     35  H   UNL     1      -4.380  11.807  22.482  0.00  0.00    +0.000 HD
ENDBRANCH  29  30
ENDBRANCH   3  29
TORSDOF 7
ENDMDL
MODEL 6
REMARK VINA RESULT:      -8.6      4.919     10.100
REMARK  Name = 
REMARK  7 active torsions:
REMARK  status: ('A' for Active; 'I' for Inactive)
REMARK    1  A    between atoms: S_2  and  N_4
REMARK    2  A    between atoms: S_2  and  C_22
REMARK    3  A    between atoms: N_4  and  C_5
REMARK    4  A    between atoms: C_7  and  S_8
REMARK    5  A    between atoms: S_8  and  C_9
REMARK    6  A    between atoms: C_14  and  O_15
REMARK    7  A    between atoms: C_25  and  C_26
REMARK                            x       y       z     vdW  Elec       q    Type
REMARK                         _______ _______ _______ _____ _____    ______ ____
ROOT
ATOM      1  C   UNL     1       2.651   5.317  18.046  0.00  0.00    +0.000 A 
ATOM      2  C   UNL     1       3.809   5.130  17.279  0.00  0.00    +0.000 A 
ATOM      3  C   UNL     1       4.777   4.178  17.632  0.00  0.00    +0.000 A 
ATOM      4  C   UNL     1       4.531   3.388  18.766  0.00  0.00    +0.000 A 
ATOM      5  C   UNL     1       3.334   3.506  19.519  0.00  0.00    +0.000 A 
ATOM      6  C   UNL     1       3.094   2.693  20.650  0.00  0.00    +0.000 A 
ATOM      7  C   UNL     1       1.930   2.814  21.406  0.00  0.00    +0.000 A 
ATOM      8  C   UNL     1       0.973   3.751  21.043  0.00  0.00    +0.000 A 
ATOM      9  C   UNL     1       1.186   4.569  19.930  0.00  0.00    +0.000 A 
ATOM     10  C   UNL     1       2.366   4.476  19.151  0.00  0.00    +0.000 A 
ENDROOT
BRANCH   1  11
ATOM     11  N   UNL     1       1.849   6.471  17.722  0.00  0.00    +0.000 N 
ATOM     12  H   UNL     1       1.554   6.486  16.746  0.00  0.00    +0.000 HD
BRANCH  11  14
ATOM     13  O   UNL     1       3.839   7.881  18.559  0.00  0.00    +0.000 OA
ATOM     14  S   UNL     1       2.464   7.998  18.117  0.00  0.00    +0.000 S 
ATOM     15  O   UNL     1       2.059   8.902  17.066  0.00  0.00    +0.000 OA
BRANCH  14  16
ATOM     16  C   UNL     1       1.579   8.541  19.578  0.00  0.00    +0.000 A 
ATOM     17  C   UNL     1       1.543   8.057  20.871  0.00  0.00    +0.000 A 
ATOM     18  C   UNL     1       0.709   8.840  21.722  0.00  0.00    +0.000 A 
ATOM     19  C   UNL     1       0.128   9.917  21.071  0.00  0.00    +0.000 A 
ATOM     20  S   UNL     1       0.557   9.901  19.400  0.00  0.00    +0.000 S 
BRANCH  19  21
ATOM     21  C   UNL     1      -0.751  10.967  21.635  0.00  0.00    +0.000 A 
ATOM     22  C   UNL     1      -1.216  10.922  22.958  0.00  0.00    +0.000 A 
ATOM     23  C   UNL     1      -2.079  11.905  23.459  0.00  0.00    +0.000 A 
ATOM     24  C   UNL     1      -2.498  12.950  22.640  0.00  0.00    +0.000 A 
ATOM     25  C   UNL     1      -2.053  13.014  21.324  0.00  0.00    +0.000 A 
ATOM     26  C   UNL     1      -1.189  12.033  20.826  0.00  0.00    +0.000 A 
ENDBRANCH  19  21
ENDBRANCH  14  16
ENDBRANCH  11  14
ENDBRANCH   1  11
BRANCH   4  27
ATOM     27  O   UNL     1       5.477   2.504  19.232  0.00  0.00    +0.000 OA
ATOM     28  H   UNL     1       6.182   3.038  19.650  0.00  0.00    +0.000 HD
ENDBRANCH   4  27
BRANCH   3  29
ATOM     29  S   UNL     1       6.320   4.293  16.719  0.00  0.00    +0.000 S 
BRANCH  29  30
ATOM     30  C   UNL     1       7.073   5.712  17.306  0.00  0.00    +0.000 A 
ATOM     31  N   UNL     1       7.648   5.953  18.461  0.00  0.00    +0.000 NA
ATOM     32  N   UNL     1       8.033   7.275  18.410  0.00  0.00    +0.000 NA
ATOM     33  N   UNL     1       7.683   7.832  17.257  0.00  0.00    +0.000 NA
ATOM     34  N   UNL     1       7.088   6.850  16.564  0.00  0.00    +0.000 N 
ATOM     35  H   UNL     1       6.707   7.029  15.645  0.00  0.00    +0.000 HD
ENDBRANCH  29  30
ENDBRANCH   3  29
TORSDOF 7
ENDMDL
MODEL 7
REMARK VINA RESULT:      -8.4      4.291     10.461
REMARK  Name = 
REMARK  7 active torsions:
REMARK  status: ('A' for Active; 'I' for Inactive)
REMARK    1  A    between atoms: S_2  and  N_4
REMARK    2  A    between atoms: S_2  and  C_22
REMARK    3  A    between atoms: N_4  and  C_5
REMARK    4  A    between atoms: C_7  and  S_8
REMARK    5  A    between atoms: S_8  and  C_9
REMARK    6  A    between atoms: C_14  and  O_15
REMARK    7  A    between atoms: C_25  and  C_26
REMARK                            x       y       z     vdW  Elec       q    Type
REMARK                         _______ _______ _______ _____ _____    ______ ____
ROOT
ATOM      1  C   UNL     1       2.983   6.307  19.372  0.00  0.00    +0.000 A 
ATOM      2  C   UNL     1       4.275   6.424  18.841  0.00  0.00    +0.000 A 
ATOM      3  C   UNL     1       5.146   5.326  18.782  0.00  0.00    +0.000 A 
ATOM      4  C   UNL     1       4.668   4.089  19.241  0.00  0.00    +0.000 A 
ATOM      5  C   UNL     1       3.341   3.925  19.716  0.00  0.00    +0.000 A 
ATOM      6  C   UNL     1       2.868   2.670  20.161  0.00  0.00    +0.000 A 
ATOM      7  C   UNL     1       1.573   2.504  20.646  0.00  0.00    +0.000 A 
ATOM      8  C   UNL     1       0.715   3.593  20.691  0.00  0.00    +0.000 A 
ATOM      9  C   UNL     1       1.157   4.846  20.259  0.00  0.00    +0.000 A 
ATOM     10  C   UNL     1       2.473   5.046  19.773  0.00  0.00    +0.000 A 
ENDROOT
BRANCH   1  11
ATOM     11  N   UNL     1       2.269   7.540  19.595  0.00  0.00    +0.000 N 
ATOM     12  H   UNL     1       1.393   7.403  20.100  0.00  0.00    +0.000 HD
BRANCH  11  14
ATOM     13  O   UNL     1       3.064   9.450  18.057  0.00  0.00    +0.000 OA
ATOM     14  S   UNL     1       1.962   8.530  18.256  0.00  0.00    +0.000 S 
ATOM     15  O   UNL     1       1.462   7.676  17.204  0.00  0.00    +0.000 OA
BRANCH  14  16
ATOM     16  C   UNL     1       0.586   9.585  18.708  0.00  0.00    +0.000 A 
ATOM     17  C   UNL     1      -0.578   9.922  18.046  0.00  0.00    +0.000 A 
ATOM     18  C   UNL     1      -1.413  10.783  18.816  0.00  0.00    +0.000 A 
ATOM     19  C   UNL     1      -0.882  11.084  20.061  0.00  0.00    +0.000 A 
ATOM     20  S   UNL     1       0.677  10.362  20.229  0.00  0.00    +0.000 S 
BRANCH  19  21
ATOM     21  C   UNL     1      -1.478  11.900  21.144  0.00  0.00    +0.000 A 
ATOM     22  C   UNL     1      -1.383  11.532  22.495  0.00  0.00    +0.000 A 
ATOM     23  C   UNL     1      -1.989  12.297  23.499  0.00  0.00    +0.000 A 
ATOM     24  C   UNL     1      -2.706  13.443  23.169  0.00  0.00    +0.000 A 
ATOM     25  C   UNL     1      -2.816  13.826  21.836  0.00  0.00    +0.000 A 
ATOM     26  C   UNL     1      -2.208  13.062  20.834  0.00  0.00    +0.000 A 
ENDBRANCH  19  21
ENDBRANCH  14  16
ENDBRANCH  11  14
ENDBRANCH   1  11
BRANCH   4  27
ATOM     27  O   UNL     1       5.494   2.990  19.306  0.00  0.00    +0.000 OA
ATOM     28  H   UNL     1       6.406   3.314  19.165  0.00  0.00    +0.000 HD
ENDBRANCH   4  27
BRANCH   3  29
ATOM     29  S   UNL     1       6.845   5.730  18.361  0.00  0.00    +0.000 S 
BRANCH  29  30
ATOM     30  C   UNL     1       7.006   5.291  16.715  0.00  0.00    +0.000 A 
ATOM     31  N   UNL     1       7.528   5.950  15.708  0.00  0.00    +0.000 NA
ATOM     32  N   UNL     1       7.339   5.143  14.605  0.00  0.00    +0.000 NA
ATOM     33  N   UNL     1       6.700   4.026  14.933  0.00  0.00    +0.000 NA
ATOM     34  N   UNL     1       6.498   4.118  16.256  0.00  0.00    +0.000 N 
ATOM     35  H   UNL     1       6.002   3.388  16.750  0.00  0.00    +0.000 HD
ENDBRANCH  29  30
ENDBRANCH   3  29
TORSDOF 7
ENDMDL
MODEL 8
REMARK VINA RESULT:      -8.3      2.303      3.400
REMARK  Name = 
REMARK  7 active torsions:
REMARK  status: ('A' for Active; 'I' for Inactive)
REMARK    1  A    between atoms: S_2  and  N_4
REMARK    2  A    between atoms: S_2  and  C_22
REMARK    3  A    between atoms: N_4  and  C_5
REMARK    4  A    between atoms: C_7  and  S_8
REMARK    5  A    between atoms: S_8  and  C_9
REMARK    6  A    between atoms: C_14  and  O_15
REMARK    7  A    between atoms: C_25  and  C_26
REMARK                            x       y       z     vdW  Elec       q    Type
REMARK                         _______ _______ _______ _____ _____    ______ ____
ROOT
ATOM      1  C   UNL     1      -2.797  12.468  19.988  0.00  0.00    +0.000 A 
ATOM      2  C   UNL     1      -3.971  13.009  20.530  0.00  0.00    +0.000 A 
ATOM      3  C   UNL     1      -5.218  12.813  19.920  0.00  0.00    +0.000 A 
ATOM      4  C   UNL     1      -5.260  12.022  18.761  0.00  0.00    +0.000 A 
ATOM      5  C   UNL     1      -4.099  11.402  18.231  0.00  0.00    +0.000 A 
ATOM      6  C   UNL     1      -4.158  10.597  17.072  0.00  0.00    +0.000 A 
ATOM      7  C   UNL     1      -3.019  10.000  16.535  0.00  0.00    +0.000 A 
ATOM      8  C   UNL     1      -1.792  10.191  17.151  0.00  0.00    +0.000 A 
ATOM      9  C   UNL     1      -1.704  10.985  18.298  0.00  0.00    +0.000 A 
ATOM     10  C   UNL     1      -2.843  11.614  18.858  0.00  0.00    +0.000 A 
ENDROOT
BRANCH   1  11
ATOM     11  N   UNL     1      -1.556  12.926  20.565  0.00  0.00    +0.000 N 
ATOM     12  H   UNL     1      -0.764  12.822  19.931  0.00  0.00    +0.000 HD
BRANCH  11  14
ATOM     13  O   UNL     1      -0.054  13.118  22.652  0.00  0.00    +0.000 OA
ATOM     14  S   UNL     1      -1.113  12.311  22.078  0.00  0.00    +0.000 S 
ATOM     15  O   UNL     1      -2.334  12.012  22.789  0.00  0.00    +0.000 OA
BRANCH  14  16
ATOM     16  C   UNL     1      -0.338  10.723  21.774  0.00  0.00    +0.000 A 
ATOM     17  C   UNL     1      -0.428   9.510  22.428  0.00  0.00    +0.000 A 
ATOM     18  C   UNL     1       0.356   8.496  21.802  0.00  0.00    +0.000 A 
ATOM     19  C   UNL     1       1.025   8.945  20.674  0.00  0.00    +0.000 A 
ATOM     20  S   UNL     1       0.738  10.632  20.449  0.00  0.00    +0.000 S 
BRANCH  19  21
ATOM     21  C   UNL     1       1.886   8.175  19.747  0.00  0.00    +0.000 A 
ATOM     22  C   UNL     1       2.215   8.648  18.467  0.00  0.00    +0.000 A 
ATOM     23  C   UNL     1       2.999   7.885  17.591  0.00  0.00    +0.000 A 
ATOM     24  C   UNL     1       3.462   6.632  17.979  0.00  0.00    +0.000 A 
ATOM     25  C   UNL     1       3.146   6.141  19.242  0.00  0.00    +0.000 A 
ATOM     26  C   UNL     1       2.366   6.905  20.117  0.00  0.00    +0.000 A 
ENDBRANCH  19  21
ENDBRANCH  14  16
ENDBRANCH  11  14
ENDBRANCH   1  11
BRANCH   4  27
ATOM     27  O   UNL     1      -6.429  11.866  18.051  0.00  0.00    +0.000 OA
ATOM     28  H   UNL     1      -6.175  11.705  17.121  0.00  0.00    +0.000 HD
ENDBRANCH   4  27
BRANCH   3  29
ATOM     29  S   UNL     1      -6.550  13.825  20.576  0.00  0.00    +0.000 S 
BRANCH  29  30
ATOM     30  C   UNL     1      -7.002  13.062  22.038  0.00  0.00    +0.000 A 
ATOM     31  N   UNL     1      -6.914  11.804  22.403  0.00  0.00    +0.000 NA
ATOM     32  N   UNL     1      -7.477  11.746  23.660  0.00  0.00    +0.000 NA
ATOM     33  N   UNL     1      -7.913  12.940  24.045  0.00  0.00    +0.000 NA
ATOM     34  N   UNL     1      -7.609  13.764  23.031  0.00  0.00    +0.000 N 
ATOM     35  H   UNL     1      -7.862  14.742  23.072  0.00  0.00    +0.000 HD
ENDBRANCH  29  30
ENDBRANCH   3  29
TORSDOF 7
ENDMDL
MODEL 9
REMARK VINA RESULT:      -8.3      4.325     10.129
REMARK  Name = 
REMARK  7 active torsions:
REMARK  status: ('A' for Active; 'I' for Inactive)
REMARK    1  A    between atoms: S_2  and  N_4
REMARK    2  A    between atoms: S_2  and  C_22
REMARK    3  A    between atoms: N_4  and  C_5
REMARK    4  A    between atoms: C_7  and  S_8
REMARK    5  A    between atoms: S_8  and  C_9
REMARK    6  A    between atoms: C_14  and  O_15
REMARK    7  A    between atoms: C_25  and  C_26
REMARK                            x       y       z     vdW  Elec       q    Type
REMARK                         _______ _______ _______ _____ _____    ______ ____
ROOT
ATOM      1  C   UNL     1       2.682   6.625  18.700  0.00  0.00    +0.000 A 
ATOM      2  C   UNL     1       3.649   6.736  17.691  0.00  0.00    +0.000 A 
ATOM      3  C   UNL     1       4.339   5.614  17.210  0.00  0.00    +0.000 A 
ATOM      4  C   UNL     1       4.004   4.362  17.749  0.00  0.00    +0.000 A 
ATOM      5  C   UNL     1       2.979   4.210  18.718  0.00  0.00    +0.000 A 
ATOM      6  C   UNL     1       2.642   2.942  19.240  0.00  0.00    +0.000 A 
ATOM      7  C   UNL     1       1.650   2.785  20.206  0.00  0.00    +0.000 A 
ATOM      8  C   UNL     1       0.964   3.900  20.668  0.00  0.00    +0.000 A 
ATOM      9  C   UNL     1       1.279   5.167  20.170  0.00  0.00    +0.000 A 
ATOM     10  C   UNL     1       2.291   5.356  19.197  0.00  0.00    +0.000 A 
ENDROOT
BRANCH   1  11
ATOM     11  N   UNL     1       2.209   7.861  19.273  0.00  0.00    +0.000 N 
ATOM     12  H   UNL     1       1.490   7.719  19.982  0.00  0.00    +0.000 HD
BRANCH  11  14
ATOM     13  O   UNL     1       2.820   9.707  17.579  0.00  0.00    +0.000 OA
ATOM     14  S   UNL     1       1.682   9.073  18.215  0.00  0.00    +0.000 S 
ATOM     15  O   UNL     1       0.576   8.528  17.464  0.00  0.00    +0.000 OA
BRANCH  14  16
ATOM     16  C   UNL     1       0.974  10.366  19.235  0.00  0.00    +0.000 A 
ATOM     17  C   UNL     1       1.426  11.625  19.579  0.00  0.00    +0.000 A 
ATOM     18  C   UNL     1       0.499  12.329  20.402  0.00  0.00    +0.000 A 
ATOM     19  C   UNL     1      -0.653  11.604  20.667  0.00  0.00    +0.000 A 
ATOM     20  S   UNL     1      -0.539  10.034  19.960  0.00  0.00    +0.000 S 
BRANCH  19  21
ATOM     21  C   UNL     1      -1.847  12.022  21.437  0.00  0.00    +0.000 A 
ATOM     22  C   UNL     1      -2.934  12.673  20.834  0.00  0.00    +0.000 A 
ATOM     23  C   UNL     1      -4.037  13.096  21.588  0.00  0.00    +0.000 A 
ATOM     24  C   UNL     1      -4.068  12.879  22.962  0.00  0.00    +0.000 A 
ATOM     25  C   UNL     1      -3.000  12.238  23.583  0.00  0.00    +0.000 A 
ATOM     26  C   UNL     1      -1.901  11.815  22.828  0.00  0.00    +0.000 A 
ENDBRANCH  19  21
ENDBRANCH  14  16
ENDBRANCH  11  14
ENDBRANCH   1  11
BRANCH   4  27
ATOM     27  O   UNL     1       4.705   3.230  17.399  0.00  0.00    +0.000 OA
ATOM     28  H   UNL     1       5.648   3.414  17.583  0.00  0.00    +0.000 HD
ENDBRANCH   4  27
BRANCH   3  29
ATOM     29  S   UNL     1       5.742   5.986  16.151  0.00  0.00    +0.000 S 
BRANCH  29  30
ATOM     30  C   UNL     1       6.918   6.653  17.199  0.00  0.00    +0.000 A 
ATOM     31  N   UNL     1       7.526   6.130  18.237  0.00  0.00    +0.000 NA
ATOM     32  N   UNL     1       8.330   7.132  18.736  0.00  0.00    +0.000 NA
ATOM     33  N   UNL     1       8.200   8.247  18.026  0.00  0.00    +0.000 NA
ATOM     34  N   UNL     1       7.320   7.944  17.061  0.00  0.00    +0.000 N 
ATOM     35  H   UNL     1       7.032   8.645  16.391  0.00  0.00    +0.000 HD
ENDBRANCH  29  30
ENDBRANCH   3  29
TORSDOF 7
ENDMDL
