MODEL 1
REMARK VINA RESULT:      -6.0      0.000      0.000
REMARK  Name = 
REMARK  24 active torsions:
REMARK  status: ('A' for Active; 'I' for Inactive)
REMARK    1  A    between atoms: C_1  and  C_2
REMARK    2  A    between atoms: C_2  and  C_3
REMARK    3  A    between atoms: C_2  and  C_4
REMARK    4  A    between atoms: C_2  and  C_26
REMARK    5  A    between atoms: C_5  and  C_6
REMARK    6  A    between atoms: C_6  and  C_7
REMARK    7  A    between atoms: C_8  and  C_9
REMARK    8  A    between atoms: C_9  and  C_10
REMARK    9  A    between atoms: C_11  and  C_12
REMARK   10  A    between atoms: C_12  and  C_13
REMARK   11  A    between atoms: C_14  and  C_15
REMARK   12  A    between atoms: C_15  and  C_16
REMARK   13  A    between atoms: C_16  and  C_17
REMARK   14  A    between atoms: C_17  and  C_18
REMARK   15  A    between atoms: C_18  and  O_20
REMARK   16  A    between atoms: O_20  and  C_21
REMARK   17  A    between atoms: C_21  and  C_22
REMARK   18  A    between atoms: C_22  and  O_23
REMARK   19  A    between atoms: C_22  and  C_24
REMARK   20  A    between atoms: C_24  and  O_25
REMARK   21  A    between atoms: C_26  and  C_27
REMARK   22  A    between atoms: C_27  and  C_28
REMARK   23  A    between atoms: C_28  and  C_29
REMARK   24  A    between atoms: C_29  and  O_30
REMARK                            x       y       z     vdW  Elec       q    Type
REMARK                         _______ _______ _______ _____ _____    ______ ____
ROOT
ATOM      1  C   UNL     1       7.851   5.362  18.840  0.00  0.00    +0.000 C 
ATOM      2  C   UNL     1       7.535   4.594  17.781  0.00  0.00    +0.000 C 
ENDROOT
BRANCH   1   3
ATOM      3  C   UNL     1       8.254   6.817  18.873  0.00  0.00    +0.000 C 
BRANCH   3   5
ATOM      4  C   UNL     1       7.997   9.006  17.578  0.00  0.00    +0.000 C 
ATOM      5  C   UNL     1       7.730   7.701  17.772  0.00  0.00    +0.000 C 
BRANCH   4   6
ATOM      6  C   UNL     1       8.814   9.892  18.471  0.00  0.00    +0.000 C 
BRANCH   6   8
ATOM      7  C   UNL     1       9.619  12.300  18.474  0.00  0.00    +0.000 C 
ATOM      8  C   UNL     1       8.826  11.315  18.015  0.00  0.00    +0.000 C 
BRANCH   7  10
ATOM      9  C   UNL     1      10.104  11.649  20.869  0.00  0.00    +0.000 C 
ATOM     10  C   UNL     1      10.678  12.274  19.578  0.00  0.00    +0.000 C 
ATOM     11  C   UNL     1      11.933  11.483  19.156  0.00  0.00    +0.000 C 
BRANCH  10  12
ATOM     12  C   UNL     1      11.097  13.735  19.935  0.00  0.00    +0.000 C 
BRANCH  12  13
ATOM     13  C   UNL     1      10.062  14.815  19.590  0.00  0.00    +0.000 C 
BRANCH  13  14
ATOM     14  C   UNL     1      10.722  16.039  18.961  0.00  0.00    +0.000 C 
BRANCH  14  15
ATOM     15  C   UNL     1      10.233  17.319  19.625  0.00  0.00    +0.000 C 
BRANCH  15  16
ATOM     16  O   UNL     1      10.443  17.249  21.029  0.00  0.00    +0.000 OA
ATOM     17  H   UNL     1      11.349  17.557  21.201  0.00  0.00    +0.000 HD
ENDBRANCH  15  16
ENDBRANCH  14  15
ENDBRANCH  13  14
ENDBRANCH  12  13
ENDBRANCH  10  12
ENDBRANCH   7  10
ENDBRANCH   6   8
ENDBRANCH   4   6
ENDBRANCH   3   5
ENDBRANCH   1   3
BRANCH   2  18
ATOM     18  C   UNL     1       7.569   5.044  16.353  0.00  0.00    +0.000 C 
BRANCH  18  19
ATOM     19  C   UNL     1       6.388   4.584  15.558  0.00  0.00    +0.000 C 
ATOM     20  C   UNL     1       5.246   5.287  15.389  0.00  0.00    +0.000 C 
BRANCH  20  21
ATOM     21  C   UNL     1       4.935   6.607  16.032  0.00  0.00    +0.000 C 
BRANCH  21  22
ATOM     22  C   UNL     1       4.387   6.484  17.457  0.00  0.00    +0.000 C 
BRANCH  22  23
ATOM     23  C   UNL     1       3.518   5.244  17.644  0.00  0.00    +0.000 C 
BRANCH  23  24
ATOM     24  C   UNL     1       2.490   5.446  18.724  0.00  0.00    +0.000 C 
ATOM     25  O   UNL     1       2.351   6.452  19.407  0.00  0.00    +0.000 OA
BRANCH  24  26
ATOM     26  O   UNL     1       1.784   4.290  18.879  0.00  0.00    +0.000 OA
BRANCH  26  27
ATOM     27  C   UNL     1       2.392   3.337  19.766  0.00  0.00    +0.000 C 
BRANCH  27  28
ATOM     28  C   UNL     1       2.413   1.966  19.071  0.00  0.00    +0.000 C 
BRANCH  28  29
ATOM     29  O   UNL     1       1.547   1.946  17.926  0.00  0.00    +0.000 OA
ATOM     30  H   UNL     1       0.810   1.333  18.115  0.00  0.00    +0.000 HD
ENDBRANCH  28  29
BRANCH  28  31
ATOM     31  C   UNL     1       3.832   1.583  18.646  0.00  0.00    +0.000 C 
BRANCH  31  32
ATOM     32  O   UNL     1       4.821   2.234  19.441  0.00  0.00    +0.000 OA
ATOM     33  H   UNL     1       5.490   1.575  19.696  0.00  0.00    +0.000 HD
ENDBRANCH  31  32
ENDBRANCH  28  31
ENDBRANCH  27  28
ENDBRANCH  26  27
ENDBRANCH  24  26
ENDBRANCH  23  24
ENDBRANCH  22  23
ENDBRANCH  21  22
ENDBRANCH  20  21
ENDBRANCH  18  19
ENDBRANCH   2  18
TORSDOF 22
ENDMDL
MODEL 2
REMARK VINA RESULT:      -6.0      4.912      8.146
REMARK  Name = 
REMARK  24 active torsions:
REMARK  status: ('A' for Active; 'I' for Inactive)
REMARK    1  A    between atoms: C_1  and  C_2
REMARK    2  A    between atoms: C_2  and  C_3
REMARK    3  A    between atoms: C_2  and  C_4
REMARK    4  A    between atoms: C_2  and  C_26
REMARK    5  A    between atoms: C_5  and  C_6
REMARK    6  A    between atoms: C_6  and  C_7
REMARK    7  A    between atoms: C_8  and  C_9
REMARK    8  A    between atoms: C_9  and  C_10
REMARK    9  A    between atoms: C_11  and  C_12
REMARK   10  A    between atoms: C_12  and  C_13
REMARK   11  A    between atoms: C_14  and  C_15
REMARK   12  A    between atoms: C_15  and  C_16
REMARK   13  A    between atoms: C_16  and  C_17
REMARK   14  A    between atoms: C_17  and  C_18
REMARK   15  A    between atoms: C_18  and  O_20
REMARK   16  A    between atoms: O_20  and  C_21
REMARK   17  A    between atoms: C_21  and  C_22
REMARK   18  A    between atoms: C_22  and  O_23
REMARK   19  A    between atoms: C_22  and  C_24
REMARK   20  A    between atoms: C_24  and  O_25
REMARK   21  A    between atoms: C_26  and  C_27
REMARK   22  A    between atoms: C_27  and  C_28
REMARK   23  A    between atoms: C_28  and  C_29
REMARK   24  A    between atoms: C_29  and  O_30
REMARK                            x       y       z     vdW  Elec       q    Type
REMARK                         _______ _______ _______ _____ _____    ______ ____
ROOT
ATOM      1  C   UNL     1       2.701   6.213  20.221  0.00  0.00    +0.000 C 
ATOM      2  C   UNL     1       2.538   4.936  20.613  0.00  0.00    +0.000 C 
ENDROOT
BRANCH   1   3
ATOM      3  C   UNL     1       1.654   7.231  19.837  0.00  0.00    +0.000 C 
BRANCH   3   5
ATOM      4  C   UNL     1       1.419   9.422  18.540  0.00  0.00    +0.000 C 
ATOM      5  C   UNL     1       2.037   8.255  18.801  0.00  0.00    +0.000 C 
BRANCH   4   6
ATOM      6  C   UNL     1       0.154   9.922  19.172  0.00  0.00    +0.000 C 
BRANCH   6   8
ATOM      7  C   UNL     1      -0.220  12.393  18.725  0.00  0.00    +0.000 C 
ATOM      8  C   UNL     1      -0.427  11.093  18.448  0.00  0.00    +0.000 C 
BRANCH   7  10
ATOM      9  C   UNL     1       2.111  12.995  19.496  0.00  0.00    +0.000 C 
ATOM     10  C   UNL     1       0.606  13.040  19.838  0.00  0.00    +0.000 C 
ATOM     11  C   UNL     1       0.194  14.506  20.086  0.00  0.00    +0.000 C 
BRANCH  10  12
ATOM     12  C   UNL     1       0.422  12.233  21.162  0.00  0.00    +0.000 C 
BRANCH  12  13
ATOM     13  C   UNL     1      -0.889  12.501  21.914  0.00  0.00    +0.000 C 
BRANCH  13  14
ATOM     14  C   UNL     1      -1.208  11.375  22.895  0.00  0.00    +0.000 C 
BRANCH  14  15
ATOM     15  C   UNL     1      -0.256  10.202  22.699  0.00  0.00    +0.000 C 
BRANCH  15  16
ATOM     16  O   UNL     1      -0.125   9.475  23.913  0.00  0.00    +0.000 OA
ATOM     17  H   UNL     1       0.654   8.900  23.822  0.00  0.00    +0.000 HD
ENDBRANCH  15  16
ENDBRANCH  14  15
ENDBRANCH  13  14
ENDBRANCH  12  13
ENDBRANCH  10  12
ENDBRANCH   7  10
ENDBRANCH   6   8
ENDBRANCH   4   6
ENDBRANCH   3   5
ENDBRANCH   1   3
BRANCH   2  18
ATOM     18  C   UNL     1       1.221   4.227  20.703  0.00  0.00    +0.000 C 
BRANCH  18  19
ATOM     19  C   UNL     1       1.248   2.851  20.115  0.00  0.00    +0.000 C 
ATOM     20  C   UNL     1       1.485   2.568  18.815  0.00  0.00    +0.000 C 
BRANCH  20  21
ATOM     21  C   UNL     1       1.679   3.583  17.726  0.00  0.00    +0.000 C 
BRANCH  21  22
ATOM     22  C   UNL     1       3.008   3.439  16.980  0.00  0.00    +0.000 C 
BRANCH  22  23
ATOM     23  C   UNL     1       3.969   4.589  17.271  0.00  0.00    +0.000 C 
BRANCH  23  24
ATOM     24  C   UNL     1       5.229   4.101  17.935  0.00  0.00    +0.000 C 
ATOM     25  O   UNL     1       5.305   3.581  19.041  0.00  0.00    +0.000 OA
BRANCH  24  26
ATOM     26  O   UNL     1       6.292   4.410  17.138  0.00  0.00    +0.000 OA
BRANCH  26  27
ATOM     27  C   UNL     1       7.510   4.678  17.850  0.00  0.00    +0.000 C 
BRANCH  27  28
ATOM     28  C   UNL     1       7.388   6.051  18.529  0.00  0.00    +0.000 C 
BRANCH  28  29
ATOM     29  O   UNL     1       8.363   6.208  19.571  0.00  0.00    +0.000 OA
ATOM     30  H   UNL     1       8.149   7.023  20.066  0.00  0.00    +0.000 HD
ENDBRANCH  28  29
BRANCH  28  31
ATOM     31  C   UNL     1       7.538   7.186  17.514  0.00  0.00    +0.000 C 
BRANCH  31  32
ATOM     32  O   UNL     1       6.447   7.229  16.597  0.00  0.00    +0.000 OA
ATOM     33  H   UNL     1       6.772   7.587  15.752  0.00  0.00    +0.000 HD
ENDBRANCH  31  32
ENDBRANCH  28  31
ENDBRANCH  27  28
ENDBRANCH  26  27
ENDBRANCH  24  26
ENDBRANCH  23  24
ENDBRANCH  22  23
ENDBRANCH  21  22
ENDBRANCH  20  21
ENDBRANCH  18  19
ENDBRANCH   2  18
TORSDOF 22
ENDMDL
MODEL 3
REMARK VINA RESULT:      -6.0      1.988     10.845
REMARK  Name = 
REMARK  24 active torsions:
REMARK  status: ('A' for Active; 'I' for Inactive)
REMARK    1  A    between atoms: C_1  and  C_2
REMARK    2  A    between atoms: C_2  and  C_3
REMARK    3  A    between atoms: C_2  and  C_4
REMARK    4  A    between atoms: C_2  and  C_26
REMARK    5  A    between atoms: C_5  and  C_6
REMARK    6  A    between atoms: C_6  and  C_7
REMARK    7  A    between atoms: C_8  and  C_9
REMARK    8  A    between atoms: C_9  and  C_10
REMARK    9  A    between atoms: C_11  and  C_12
REMARK   10  A    between atoms: C_12  and  C_13
REMARK   11  A    between atoms: C_14  and  C_15
REMARK   12  A    between atoms: C_15  and  C_16
REMARK   13  A    between atoms: C_16  and  C_17
REMARK   14  A    between atoms: C_17  and  C_18
REMARK   15  A    between atoms: C_18  and  O_20
REMARK   16  A    between atoms: O_20  and  C_21
REMARK   17  A    between atoms: C_21  and  C_22
REMARK   18  A    between atoms: C_22  and  O_23
REMARK   19  A    between atoms: C_22  and  C_24
REMARK   20  A    between atoms: C_24  and  O_25
REMARK   21  A    between atoms: C_26  and  C_27
REMARK   22  A    between atoms: C_27  and  C_28
REMARK   23  A    between atoms: C_28  and  C_29
REMARK   24  A    between atoms: C_29  and  O_30
REMARK                            x       y       z     vdW  Elec       q    Type
REMARK                         _______ _______ _______ _____ _____    ______ ____
ROOT
ATOM      1  C   UNL     1       7.356   4.591  17.274  0.00  0.00    +0.000 C 
ATOM      2  C   UNL     1       7.652   5.091  18.487  0.00  0.00    +0.000 C 
ENDROOT
BRANCH   1   3
ATOM      3  C   UNL     1       7.377   5.279  15.930  0.00  0.00    +0.000 C 
BRANCH   3   5
ATOM      4  C   UNL     1       5.041   4.429  15.333  0.00  0.00    +0.000 C 
ATOM      5  C   UNL     1       6.182   5.077  15.035  0.00  0.00    +0.000 C 
BRANCH   4   6
ATOM      6  C   UNL     1       4.741   3.688  16.602  0.00  0.00    +0.000 C 
BRANCH   6   8
ATOM      7  C   UNL     1       2.667   4.540  17.793  0.00  0.00    +0.000 C 
ATOM      8  C   UNL     1       3.286   3.700  16.945  0.00  0.00    +0.000 C 
BRANCH   7  10
ATOM      9  C   UNL     1       4.471   5.171  19.449  0.00  0.00    +0.000 C 
ATOM     10  C   UNL     1       3.243   5.667  18.655  0.00  0.00    +0.000 C 
ATOM     11  C   UNL     1       3.654   6.889  17.808  0.00  0.00    +0.000 C 
BRANCH  10  12
ATOM     12  C   UNL     1       2.179   6.115  19.706  0.00  0.00    +0.000 C 
BRANCH  12  13
ATOM     13  C   UNL     1       1.979   5.153  20.885  0.00  0.00    +0.000 C 
BRANCH  13  14
ATOM     14  C   UNL     1       0.911   4.108  20.575  0.00  0.00    +0.000 C 
BRANCH  14  15
ATOM     15  C   UNL     1       1.432   2.704  20.854  0.00  0.00    +0.000 C 
BRANCH  15  16
ATOM     16  O   UNL     1       2.724   2.772  21.442  0.00  0.00    +0.000 OA
ATOM     17  H   UNL     1       3.293   2.146  20.963  0.00  0.00    +0.000 HD
ENDBRANCH  15  16
ENDBRANCH  14  15
ENDBRANCH  13  14
ENDBRANCH  12  13
ENDBRANCH  10  12
ENDBRANCH   7  10
ENDBRANCH   6   8
ENDBRANCH   4   6
ENDBRANCH   3   5
ENDBRANCH   1   3
BRANCH   2  18
ATOM     18  C   UNL     1       8.034   6.514  18.759  0.00  0.00    +0.000 C 
BRANCH  18  19
ATOM     19  C   UNL     1       7.618   7.456  17.674  0.00  0.00    +0.000 C 
ATOM     20  C   UNL     1       7.943   8.767  17.618  0.00  0.00    +0.000 C 
BRANCH  20  21
ATOM     21  C   UNL     1       8.704   9.519  18.672  0.00  0.00    +0.000 C 
BRANCH  21  22
ATOM     22  C   UNL     1       9.312  10.834  18.173  0.00  0.00    +0.000 C 
BRANCH  22  23
ATOM     23  C   UNL     1      10.486  11.297  19.030  0.00  0.00    +0.000 C 
BRANCH  23  24
ATOM     24  C   UNL     1      10.350  12.745  19.418  0.00  0.00    +0.000 C 
ATOM     25  O   UNL     1       9.415  13.242  20.031  0.00  0.00    +0.000 OA
BRANCH  24  26
ATOM     26  O   UNL     1      11.405  13.438  18.901  0.00  0.00    +0.000 OA
BRANCH  26  27
ATOM     27  C   UNL     1      11.194  14.855  18.801  0.00  0.00    +0.000 C 
BRANCH  27  28
ATOM     28  C   UNL     1      10.590  15.165  17.423  0.00  0.00    +0.000 C 
BRANCH  28  29
ATOM     29  O   UNL     1       9.158  15.074  17.446  0.00  0.00    +0.000 OA
ATOM     30  H   UNL     1       8.797  15.981  17.473  0.00  0.00    +0.000 HD
ENDBRANCH  28  29
BRANCH  28  31
ATOM     31  C   UNL     1      11.006  16.555  16.937  0.00  0.00    +0.000 C 
BRANCH  31  32
ATOM     32  O   UNL     1      11.912  17.187  17.838  0.00  0.00    +0.000 OA
ATOM     33  H   UNL     1      11.446  17.924  18.272  0.00  0.00    +0.000 HD
ENDBRANCH  31  32
ENDBRANCH  28  31
ENDBRANCH  27  28
ENDBRANCH  26  27
ENDBRANCH  24  26
ENDBRANCH  23  24
ENDBRANCH  22  23
ENDBRANCH  21  22
ENDBRANCH  20  21
ENDBRANCH  18  19
ENDBRANCH   2  18
TORSDOF 22
ENDMDL
MODEL 4
REMARK VINA RESULT:      -5.9      5.474      9.569
REMARK  Name = 
REMARK  24 active torsions:
REMARK  status: ('A' for Active; 'I' for Inactive)
REMARK    1  A    between atoms: C_1  and  C_2
REMARK    2  A    between atoms: C_2  and  C_3
REMARK    3  A    between atoms: C_2  and  C_4
REMARK    4  A    between atoms: C_2  and  C_26
REMARK    5  A    between atoms: C_5  and  C_6
REMARK    6  A    between atoms: C_6  and  C_7
REMARK    7  A    between atoms: C_8  and  C_9
REMARK    8  A    between atoms: C_9  and  C_10
REMARK    9  A    between atoms: C_11  and  C_12
REMARK   10  A    between atoms: C_12  and  C_13
REMARK   11  A    between atoms: C_14  and  C_15
REMARK   12  A    between atoms: C_15  and  C_16
REMARK   13  A    between atoms: C_16  and  C_17
REMARK   14  A    between atoms: C_17  and  C_18
REMARK   15  A    between atoms: C_18  and  O_20
REMARK   16  A    between atoms: O_20  and  C_21
REMARK   17  A    between atoms: C_21  and  C_22
REMARK   18  A    between atoms: C_22  and  O_23
REMARK   19  A    between atoms: C_22  and  C_24
REMARK   20  A    between atoms: C_24  and  O_25
REMARK   21  A    between atoms: C_26  and  C_27
REMARK   22  A    between atoms: C_27  and  C_28
REMARK   23  A    between atoms: C_28  and  C_29
REMARK   24  A    between atoms: C_29  and  O_30
REMARK                            x       y       z     vdW  Elec       q    Type
REMARK                         _______ _______ _______ _____ _____    ______ ____
ROOT
ATOM      1  C   UNL     1       2.215   2.809  20.339  0.00  0.00    +0.000 C 
ATOM      2  C   UNL     1       2.176   3.933  21.077  0.00  0.00    +0.000 C 
ENDROOT
BRANCH   1   3
ATOM      3  C   UNL     1       1.483   2.485  19.059  0.00  0.00    +0.000 C 
BRANCH   3   5
ATOM      4  C   UNL     1       3.320   2.894  17.329  0.00  0.00    +0.000 C 
ATOM      5  C   UNL     1       2.322   2.159  17.851  0.00  0.00    +0.000 C 
BRANCH   4   6
ATOM      6  C   UNL     1       3.764   4.251  17.789  0.00  0.00    +0.000 C 
BRANCH   6   8
ATOM      7  C   UNL     1       6.191   4.928  18.102  0.00  0.00    +0.000 C 
ATOM      8  C   UNL     1       5.102   4.224  18.456  0.00  0.00    +0.000 C 
BRANCH   7  10
ATOM      9  C   UNL     1       5.045   6.479  16.467  0.00  0.00    +0.000 C 
ATOM     10  C   UNL     1       6.397   5.899  16.937  0.00  0.00    +0.000 C 
ATOM     11  C   UNL     1       7.336   7.063  17.315  0.00  0.00    +0.000 C 
BRANCH  10  12
ATOM     12  C   UNL     1       7.005   5.134  15.720  0.00  0.00    +0.000 C 
BRANCH  12  13
ATOM     13  C   UNL     1       6.251   3.863  15.303  0.00  0.00    +0.000 C 
BRANCH  13  14
ATOM     14  C   UNL     1       5.623   4.016  13.921  0.00  0.00    +0.000 C 
BRANCH  14  15
ATOM     15  C   UNL     1       6.680   3.903  12.831  0.00  0.00    +0.000 C 
BRANCH  15  16
ATOM     16  O   UNL     1       6.525   2.677  12.128  0.00  0.00    +0.000 OA
ATOM     17  H   UNL     1       7.061   2.010  12.590  0.00  0.00    +0.000 HD
ENDBRANCH  15  16
ENDBRANCH  14  15
ENDBRANCH  13  14
ENDBRANCH  12  13
ENDBRANCH  10  12
ENDBRANCH   7  10
ENDBRANCH   6   8
ENDBRANCH   4   6
ENDBRANCH   3   5
ENDBRANCH   1   3
BRANCH   2  18
ATOM     18  C   UNL     1       1.318   5.125  20.780  0.00  0.00    +0.000 C 
BRANCH  18  19
ATOM     19  C   UNL     1       2.091   6.295  20.255  0.00  0.00    +0.000 C 
ATOM     20  C   UNL     1       1.778   7.591  20.472  0.00  0.00    +0.000 C 
BRANCH  20  21
ATOM     21  C   UNL     1       0.560   8.081  21.203  0.00  0.00    +0.000 C 
BRANCH  21  22
ATOM     22  C   UNL     1       0.637   9.556  21.609  0.00  0.00    +0.000 C 
BRANCH  22  23
ATOM     23  C   UNL     1       0.869  10.478  20.416  0.00  0.00    +0.000 C 
BRANCH  23  24
ATOM     24  C   UNL     1       0.835  11.927  20.823  0.00  0.00    +0.000 C 
ATOM     25  O   UNL     1       1.807  12.634  21.053  0.00  0.00    +0.000 OA
BRANCH  24  26
ATOM     26  O   UNL     1      -0.466  12.308  20.977  0.00  0.00    +0.000 OA
BRANCH  26  27
ATOM     27  C   UNL     1      -1.041  12.939  19.822  0.00  0.00    +0.000 C 
BRANCH  27  28
ATOM     28  C   UNL     1      -2.300  12.158  19.413  0.00  0.00    +0.000 C 
BRANCH  28  29
ATOM     29  O   UNL     1      -3.494  12.893  19.718  0.00  0.00    +0.000 OA
ATOM     30  H   UNL     1      -4.182  12.255  19.992  0.00  0.00    +0.000 HD
ENDBRANCH  28  29
BRANCH  28  31
ATOM     31  C   UNL     1      -2.277  11.814  17.923  0.00  0.00    +0.000 C 
BRANCH  31  32
ATOM     32  O   UNL     1      -1.258  12.527  17.226  0.00  0.00    +0.000 OA
ATOM     33  H   UNL     1      -1.166  12.138  16.339  0.00  0.00    +0.000 HD
ENDBRANCH  31  32
ENDBRANCH  28  31
ENDBRANCH  27  28
ENDBRANCH  26  27
ENDBRANCH  24  26
ENDBRANCH  23  24
ENDBRANCH  22  23
ENDBRANCH  21  22
ENDBRANCH  20  21
ENDBRANCH  18  19
ENDBRANCH   2  18
TORSDOF 22
ENDMDL
MODEL 5
REMARK VINA RESULT:      -5.9      5.492      9.733
REMARK  Name = 
REMARK  24 active torsions:
REMARK  status: ('A' for Active; 'I' for Inactive)
REMARK    1  A    between atoms: C_1  and  C_2
REMARK    2  A    between atoms: C_2  and  C_3
REMARK    3  A    between atoms: C_2  and  C_4
REMARK    4  A    between atoms: C_2  and  C_26
REMARK    5  A    between atoms: C_5  and  C_6
REMARK    6  A    between atoms: C_6  and  C_7
REMARK    7  A    between atoms: C_8  and  C_9
REMARK    8  A    between atoms: C_9  and  C_10
REMARK    9  A    between atoms: C_11  and  C_12
REMARK   10  A    between atoms: C_12  and  C_13
REMARK   11  A    between atoms: C_14  and  C_15
REMARK   12  A    between atoms: C_15  and  C_16
REMARK   13  A    between atoms: C_16  and  C_17
REMARK   14  A    between atoms: C_17  and  C_18
REMARK   15  A    between atoms: C_18  and  O_20
REMARK   16  A    between atoms: O_20  and  C_21
REMARK   17  A    between atoms: C_21  and  C_22
REMARK   18  A    between atoms: C_22  and  O_23
REMARK   19  A    between atoms: C_22  and  C_24
REMARK   20  A    between atoms: C_24  and  O_25
REMARK   21  A    between atoms: C_26  and  C_27
REMARK   22  A    between atoms: C_27  and  C_28
REMARK   23  A    between atoms: C_28  and  C_29
REMARK   24  A    between atoms: C_29  and  O_30
REMARK                            x       y       z     vdW  Elec       q    Type
REMARK                         _______ _______ _______ _____ _____    ______ ____
ROOT
ATOM      1  C   UNL     1       0.894   2.999  20.234  0.00  0.00    +0.000 C 
ATOM      2  C   UNL     1       1.515   3.789  21.128  0.00  0.00    +0.000 C 
ENDROOT
BRANCH   1   3
ATOM      3  C   UNL     1       1.068   2.939  18.735  0.00  0.00    +0.000 C 
BRANCH   3   5
ATOM      4  C   UNL     1       3.282   2.288  17.637  0.00  0.00    +0.000 C 
ATOM      5  C   UNL     1       2.099   1.981  18.199  0.00  0.00    +0.000 C 
BRANCH   4   6
ATOM      6  C   UNL     1       3.800   3.664  17.342  0.00  0.00    +0.000 C 
BRANCH   6   8
ATOM      7  C   UNL     1       5.803   5.091  17.975  0.00  0.00    +0.000 C 
ATOM      8  C   UNL     1       5.050   3.983  18.098  0.00  0.00    +0.000 C 
BRANCH   7  10
ATOM      9  C   UNL     1       4.306   7.021  17.320  0.00  0.00    +0.000 C 
ATOM     10  C   UNL     1       5.638   6.292  17.041  0.00  0.00    +0.000 C 
ATOM     11  C   UNL     1       6.798   7.299  17.184  0.00  0.00    +0.000 C 
BRANCH  10  12
ATOM     12  C   UNL     1       5.578   5.798  15.561  0.00  0.00    +0.000 C 
BRANCH  12  13
ATOM     13  C   UNL     1       6.724   4.870  15.134  0.00  0.00    +0.000 C 
BRANCH  13  14
ATOM     14  C   UNL     1       6.206   3.678  14.334  0.00  0.00    +0.000 C 
BRANCH  14  15
ATOM     15  C   UNL     1       6.462   3.873  12.845  0.00  0.00    +0.000 C 
BRANCH  15  16
ATOM     16  O   UNL     1       5.338   3.431  12.096  0.00  0.00    +0.000 OA
ATOM     17  H   UNL     1       5.556   2.553  11.740  0.00  0.00    +0.000 HD
ENDBRANCH  15  16
ENDBRANCH  14  15
ENDBRANCH  13  14
ENDBRANCH  12  13
ENDBRANCH  10  12
ENDBRANCH   7  10
ENDBRANCH   6   8
ENDBRANCH   4   6
ENDBRANCH   3   5
ENDBRANCH   1   3
BRANCH   2  18
ATOM     18  C   UNL     1       2.518   4.849  20.787  0.00  0.00    +0.000 C 
BRANCH  18  19
ATOM     19  C   UNL     1       2.040   5.798  19.732  0.00  0.00    +0.000 C 
ATOM     20  C   UNL     1       1.653   7.073  19.954  0.00  0.00    +0.000 C 
BRANCH  20  21
ATOM     21  C   UNL     1       1.557   7.730  21.302  0.00  0.00    +0.000 C 
BRANCH  21  22
ATOM     22  C   UNL     1       0.426   8.756  21.407  0.00  0.00    +0.000 C 
BRANCH  22  23
ATOM     23  C   UNL     1       0.531   9.852  20.351  0.00  0.00    +0.000 C 
BRANCH  23  24
ATOM     24  C   UNL     1       0.355  11.220  20.954  0.00  0.00    +0.000 C 
ATOM     25  O   UNL     1       1.252  11.957  21.341  0.00  0.00    +0.000 OA
BRANCH  24  26
ATOM     26  O   UNL     1      -0.979  11.476  21.077  0.00  0.00    +0.000 OA
BRANCH  26  27
ATOM     27  C   UNL     1      -1.368  12.000  22.357  0.00  0.00    +0.000 C 
BRANCH  27  28
ATOM     28  C   UNL     1      -1.793  13.466  22.177  0.00  0.00    +0.000 C 
BRANCH  28  29
ATOM     29  O   UNL     1      -0.660  14.314  21.941  0.00  0.00    +0.000 OA
ATOM     30  H   UNL     1      -0.556  14.904  22.713  0.00  0.00    +0.000 HD
ENDBRANCH  28  29
BRANCH  28  31
ATOM     31  C   UNL     1      -2.792  13.615  21.029  0.00  0.00    +0.000 C 
BRANCH  31  32
ATOM     32  O   UNL     1      -2.140  13.747  19.768  0.00  0.00    +0.000 OA
ATOM     33  H   UNL     1      -1.780  12.878  19.517  0.00  0.00    +0.000 HD
ENDBRANCH  31  32
ENDBRANCH  28  31
ENDBRANCH  27  28
ENDBRANCH  26  27
ENDBRANCH  24  26
ENDBRANCH  23  24
ENDBRANCH  22  23
ENDBRANCH  21  22
ENDBRANCH  20  21
ENDBRANCH  18  19
ENDBRANCH   2  18
TORSDOF 22
ENDMDL
MODEL 6
REMARK VINA RESULT:      -5.8      5.814      9.760
REMARK  Name = 
REMARK  24 active torsions:
REMARK  status: ('A' for Active; 'I' for Inactive)
REMARK    1  A    between atoms: C_1  and  C_2
REMARK    2  A    between atoms: C_2  and  C_3
REMARK    3  A    between atoms: C_2  and  C_4
REMARK    4  A    between atoms: C_2  and  C_26
REMARK    5  A    between atoms: C_5  and  C_6
REMARK    6  A    between atoms: C_6  and  C_7
REMARK    7  A    between atoms: C_8  and  C_9
REMARK    8  A    between atoms: C_9  and  C_10
REMARK    9  A    between atoms: C_11  and  C_12
REMARK   10  A    between atoms: C_12  and  C_13
REMARK   11  A    between atoms: C_14  and  C_15
REMARK   12  A    between atoms: C_15  and  C_16
REMARK   13  A    between atoms: C_16  and  C_17
REMARK   14  A    between atoms: C_17  and  C_18
REMARK   15  A    between atoms: C_18  and  O_20
REMARK   16  A    between atoms: O_20  and  C_21
REMARK   17  A    between atoms: C_21  and  C_22
REMARK   18  A    between atoms: C_22  and  O_23
REMARK   19  A    between atoms: C_22  and  C_24
REMARK   20  A    between atoms: C_24  and  O_25
REMARK   21  A    between atoms: C_26  and  C_27
REMARK   22  A    between atoms: C_27  and  C_28
REMARK   23  A    between atoms: C_28  and  C_29
REMARK   24  A    between atoms: C_29  and  O_30
REMARK                            x       y       z     vdW  Elec       q    Type
REMARK                         _______ _______ _______ _____ _____    ______ ____
ROOT
ATOM      1  C   UNL     1       1.738   5.392  20.659  0.00  0.00    +0.000 C 
ATOM      2  C   UNL     1       1.924   6.563  20.023  0.00  0.00    +0.000 C 
ENDROOT
BRANCH   1   3
ATOM      3  C   UNL     1       1.795   3.989  20.105  0.00  0.00    +0.000 C 
BRANCH   3   5
ATOM      4  C   UNL     1       3.954   2.657  20.420  0.00  0.00    +0.000 C 
ATOM      5  C   UNL     1       2.712   3.013  20.795  0.00  0.00    +0.000 C 
BRANCH   4   6
ATOM      6  C   UNL     1       4.671   3.094  19.177  0.00  0.00    +0.000 C 
BRANCH   6   8
ATOM      7  C   UNL     1       5.579   5.310  18.332  0.00  0.00    +0.000 C 
ATOM      8  C   UNL     1       5.305   4.440  19.321  0.00  0.00    +0.000 C 
BRANCH   7  10
ATOM      9  C   UNL     1       4.152   4.278  16.518  0.00  0.00    +0.000 C 
ATOM     10  C   UNL     1       5.370   5.177  16.822  0.00  0.00    +0.000 C 
ATOM     11  C   UNL     1       5.161   6.547  16.145  0.00  0.00    +0.000 C 
BRANCH  10  12
ATOM     12  C   UNL     1       6.612   4.481  16.182  0.00  0.00    +0.000 C 
BRANCH  12  13
ATOM     13  C   UNL     1       6.774   4.694  14.670  0.00  0.00    +0.000 C 
BRANCH  13  14
ATOM     14  C   UNL     1       5.932   3.700  13.875  0.00  0.00    +0.000 C 
BRANCH  14  15
ATOM     15  C   UNL     1       6.510   3.495  12.480  0.00  0.00    +0.000 C 
BRANCH  15  16
ATOM     16  O   UNL     1       5.877   2.390  11.849  0.00  0.00    +0.000 OA
ATOM     17  H   UNL     1       6.578   1.776  11.573  0.00  0.00    +0.000 HD
ENDBRANCH  15  16
ENDBRANCH  14  15
ENDBRANCH  13  14
ENDBRANCH  12  13
ENDBRANCH  10  12
ENDBRANCH   7  10
ENDBRANCH   6   8
ENDBRANCH   4   6
ENDBRANCH   3   5
ENDBRANCH   1   3
BRANCH   2  18
ATOM     18  C   UNL     1       2.192   6.710  18.556  0.00  0.00    +0.000 C 
BRANCH  18  19
ATOM     19  C   UNL     1       2.811   8.024  18.197  0.00  0.00    +0.000 C 
ATOM     20  C   UNL     1       2.125   9.141  17.869  0.00  0.00    +0.000 C 
BRANCH  20  21
ATOM     21  C   UNL     1       0.632   9.234  17.729  0.00  0.00    +0.000 C 
BRANCH  21  22
ATOM     22  C   UNL     1      -0.012  10.255  18.671  0.00  0.00    +0.000 C 
BRANCH  22  23
ATOM     23  C   UNL     1       0.320   9.988  20.136  0.00  0.00    +0.000 C 
BRANCH  23  24
ATOM     24  C   UNL     1       0.337  11.261  20.940  0.00  0.00    +0.000 C 
ATOM     25  O   UNL     1       0.366  11.341  22.161  0.00  0.00    +0.000 OA
BRANCH  24  26
ATOM     26  O   UNL     1       0.229  12.319  20.087  0.00  0.00    +0.000 OA
BRANCH  26  27
ATOM     27  C   UNL     1      -0.391  13.482  20.658  0.00  0.00    +0.000 C 
BRANCH  27  28
ATOM     28  C   UNL     1       0.703  14.511  20.984  0.00  0.00    +0.000 C 
BRANCH  28  29
ATOM     29  O   UNL     1       1.257  14.289  22.289  0.00  0.00    +0.000 OA
ATOM     30  H   UNL     1       1.426  15.161  22.698  0.00  0.00    +0.000 HD
ENDBRANCH  28  29
BRANCH  28  31
ATOM     31  C   UNL     1       1.822  14.477  19.941  0.00  0.00    +0.000 C 
BRANCH  31  32
ATOM     32  O   UNL     1       2.848  13.550  20.289  0.00  0.00    +0.000 OA
ATOM     33  H   UNL     1       3.191  13.789  21.168  0.00  0.00    +0.000 HD
ENDBRANCH  31  32
ENDBRANCH  28  31
ENDBRANCH  27  28
ENDBRANCH  26  27
ENDBRANCH  24  26
ENDBRANCH  23  24
ENDBRANCH  22  23
ENDBRANCH  21  22
ENDBRANCH  20  21
ENDBRANCH  18  19
ENDBRANCH   2  18
TORSDOF 22
ENDMDL
MODEL 7
REMARK VINA RESULT:      -5.8      2.055     10.709
REMARK  Name = 
REMARK  24 active torsions:
REMARK  status: ('A' for Active; 'I' for Inactive)
REMARK    1  A    between atoms: C_1  and  C_2
REMARK    2  A    between atoms: C_2  and  C_3
REMARK    3  A    between atoms: C_2  and  C_4
REMARK    4  A    between atoms: C_2  and  C_26
REMARK    5  A    between atoms: C_5  and  C_6
REMARK    6  A    between atoms: C_6  and  C_7
REMARK    7  A    between atoms: C_8  and  C_9
REMARK    8  A    between atoms: C_9  and  C_10
REMARK    9  A    between atoms: C_11  and  C_12
REMARK   10  A    between atoms: C_12  and  C_13
REMARK   11  A    between atoms: C_14  and  C_15
REMARK   12  A    between atoms: C_15  and  C_16
REMARK   13  A    between atoms: C_16  and  C_17
REMARK   14  A    between atoms: C_17  and  C_18
REMARK   15  A    between atoms: C_18  and  O_20
REMARK   16  A    between atoms: O_20  and  C_21
REMARK   17  A    between atoms: C_21  and  C_22
REMARK   18  A    between atoms: C_22  and  O_23
REMARK   19  A    between atoms: C_22  and  C_24
REMARK   20  A    between atoms: C_24  and  O_25
REMARK   21  A    between atoms: C_26  and  C_27
REMARK   22  A    between atoms: C_27  and  C_28
REMARK   23  A    between atoms: C_28  and  C_29
REMARK   24  A    between atoms: C_29  and  O_30
REMARK                            x       y       z     vdW  Elec       q    Type
REMARK                         _______ _______ _______ _____ _____    ______ ____
ROOT
ATOM      1  C   UNL     1       7.255   4.768  17.467  0.00  0.00    +0.000 C 
ATOM      2  C   UNL     1       7.675   5.240  18.654  0.00  0.00    +0.000 C 
ENDROOT
BRANCH   1   3
ATOM      3  C   UNL     1       7.157   5.482  16.140  0.00  0.00    +0.000 C 
BRANCH   3   5
ATOM      4  C   UNL     1       4.774   6.388  15.953  0.00  0.00    +0.000 C 
ATOM      5  C   UNL     1       5.787   5.611  15.528  0.00  0.00    +0.000 C 
BRANCH   4   6
ATOM      6  C   UNL     1       4.760   7.240  17.188  0.00  0.00    +0.000 C 
BRANCH   6   8
ATOM      7  C   UNL     1       2.552   6.746  18.340  0.00  0.00    +0.000 C 
ATOM      8  C   UNL     1       3.375   7.557  17.652  0.00  0.00    +0.000 C 
BRANCH   7  10
ATOM      9  C   UNL     1       2.709   4.333  17.602  0.00  0.00    +0.000 C 
ATOM     10  C   UNL     1       2.757   5.302  18.803  0.00  0.00    +0.000 C 
ATOM     11  C   UNL     1       4.099   5.117  19.541  0.00  0.00    +0.000 C 
BRANCH  10  12
ATOM     12  C   UNL     1       1.594   4.889  19.759  0.00  0.00    +0.000 C 
BRANCH  12  13
ATOM     13  C   UNL     1       2.033   4.294  21.105  0.00  0.00    +0.000 C 
BRANCH  13  14
ATOM     14  C   UNL     1       1.549   2.855  21.261  0.00  0.00    +0.000 C 
BRANCH  14  15
ATOM     15  C   UNL     1       2.236   1.941  20.255  0.00  0.00    +0.000 C 
BRANCH  15  16
ATOM     16  O   UNL     1       1.358   1.660  19.174  0.00  0.00    +0.000 OA
ATOM     17  H   UNL     1       1.896   1.290  18.454  0.00  0.00    +0.000 HD
ENDBRANCH  15  16
ENDBRANCH  14  15
ENDBRANCH  13  14
ENDBRANCH  12  13
ENDBRANCH  10  12
ENDBRANCH   7  10
ENDBRANCH   6   8
ENDBRANCH   4   6
ENDBRANCH   3   5
ENDBRANCH   1   3
BRANCH   2  18
ATOM     18  C   UNL     1       8.105   6.653  18.913  0.00  0.00    +0.000 C 
BRANCH  18  19
ATOM     19  C   UNL     1       7.726   7.597  17.817  0.00  0.00    +0.000 C 
ATOM     20  C   UNL     1       8.089   8.897  17.752  0.00  0.00    +0.000 C 
BRANCH  20  21
ATOM     21  C   UNL     1       8.864   9.636  18.806  0.00  0.00    +0.000 C 
BRANCH  21  22
ATOM     22  C   UNL     1       9.219  11.073  18.415  0.00  0.00    +0.000 C 
BRANCH  22  23
ATOM     23  C   UNL     1      10.604  11.181  17.783  0.00  0.00    +0.000 C 
BRANCH  23  24
ATOM     24  C   UNL     1      11.201  12.547  17.992  0.00  0.00    +0.000 C 
ATOM     25  O   UNL     1      12.070  13.066  17.303  0.00  0.00    +0.000 OA
BRANCH  24  26
ATOM     26  O   UNL     1      10.676  13.087  19.129  0.00  0.00    +0.000 OA
BRANCH  26  27
ATOM     27  C   UNL     1      10.474  14.508  19.074  0.00  0.00    +0.000 C 
BRANCH  27  28
ATOM     28  C   UNL     1       8.967  14.793  19.167  0.00  0.00    +0.000 C 
BRANCH  28  29
ATOM     29  O   UNL     1       8.636  15.468  20.389  0.00  0.00    +0.000 OA
ATOM     30  H   UNL     1       9.052  14.981  21.127  0.00  0.00    +0.000 HD
ENDBRANCH  28  29
BRANCH  28  31
ATOM     31  C   UNL     1       8.487  15.625  17.976  0.00  0.00    +0.000 C 
BRANCH  31  32
ATOM     32  O   UNL     1       7.544  14.917  17.175  0.00  0.00    +0.000 OA
ATOM     33  H   UNL     1       7.057  15.563  16.634  0.00  0.00    +0.000 HD
ENDBRANCH  31  32
ENDBRANCH  28  31
ENDBRANCH  27  28
ENDBRANCH  26  27
ENDBRANCH  24  26
ENDBRANCH  23  24
ENDBRANCH  22  23
ENDBRANCH  21  22
ENDBRANCH  20  21
ENDBRANCH  18  19
ENDBRANCH   2  18
TORSDOF 22
ENDMDL
MODEL 8
REMARK VINA RESULT:      -5.8      6.045      9.954
REMARK  Name = 
REMARK  24 active torsions:
REMARK  status: ('A' for Active; 'I' for Inactive)
REMARK    1  A    between atoms: C_1  and  C_2
REMARK    2  A    between atoms: C_2  and  C_3
REMARK    3  A    between atoms: C_2  and  C_4
REMARK    4  A    between atoms: C_2  and  C_26
REMARK    5  A    between atoms: C_5  and  C_6
REMARK    6  A    between atoms: C_6  and  C_7
REMARK    7  A    between atoms: C_8  and  C_9
REMARK    8  A    between atoms: C_9  and  C_10
REMARK    9  A    between atoms: C_11  and  C_12
REMARK   10  A    between atoms: C_12  and  C_13
REMARK   11  A    between atoms: C_14  and  C_15
REMARK   12  A    between atoms: C_15  and  C_16
REMARK   13  A    between atoms: C_16  and  C_17
REMARK   14  A    between atoms: C_17  and  C_18
REMARK   15  A    between atoms: C_18  and  O_20
REMARK   16  A    between atoms: O_20  and  C_21
REMARK   17  A    between atoms: C_21  and  C_22
REMARK   18  A    between atoms: C_22  and  O_23
REMARK   19  A    between atoms: C_22  and  C_24
REMARK   20  A    between atoms: C_24  and  O_25
REMARK   21  A    between atoms: C_26  and  C_27
REMARK   22  A    between atoms: C_27  and  C_28
REMARK   23  A    between atoms: C_28  and  C_29
REMARK   24  A    between atoms: C_29  and  O_30
REMARK                            x       y       z     vdW  Elec       q    Type
REMARK                         _______ _______ _______ _____ _____    ______ ____
ROOT
ATOM      1  C   UNL     1       2.633   8.292  17.823  0.00  0.00    +0.000 C 
ATOM      2  C   UNL     1       2.020   9.489  17.781  0.00  0.00    +0.000 C 
ENDROOT
BRANCH   1   3
ATOM      3  C   UNL     1       2.171   7.008  18.471  0.00  0.00    +0.000 C 
BRANCH   3   5
ATOM      4  C   UNL     1       1.807   5.934  20.762  0.00  0.00    +0.000 C 
ATOM      5  C   UNL     1       2.265   6.922  19.972  0.00  0.00    +0.000 C 
BRANCH   4   6
ATOM      6  C   UNL     1       1.021   4.734  20.324  0.00  0.00    +0.000 C 
BRANCH   6   8
ATOM      7  C   UNL     1       2.523   2.721  19.948  0.00  0.00    +0.000 C 
ATOM      8  C   UNL     1       1.678   3.446  20.703  0.00  0.00    +0.000 C 
BRANCH   7  10
ATOM      9  C   UNL     1       3.622   1.673  17.927  0.00  0.00    +0.000 C 
ATOM     10  C   UNL     1       3.018   2.964  18.520  0.00  0.00    +0.000 C 
ATOM     11  C   UNL     1       1.888   3.459  17.593  0.00  0.00    +0.000 C 
BRANCH  10  12
ATOM     12  C   UNL     1       4.160   4.028  18.538  0.00  0.00    +0.000 C 
BRANCH  12  13
ATOM     13  C   UNL     1       5.256   3.829  17.481  0.00  0.00    +0.000 C 
BRANCH  13  14
ATOM     14  C   UNL     1       5.823   5.165  17.009  0.00  0.00    +0.000 C 
BRANCH  14  15
ATOM     15  C   UNL     1       5.371   5.472  15.587  0.00  0.00    +0.000 C 
BRANCH  15  16
ATOM     16  O   UNL     1       5.176   6.871  15.431  0.00  0.00    +0.000 OA
ATOM     17  H   UNL     1       5.945   7.218  14.949  0.00  0.00    +0.000 HD
ENDBRANCH  15  16
ENDBRANCH  14  15
ENDBRANCH  13  14
ENDBRANCH  12  13
ENDBRANCH  10  12
ENDBRANCH   7  10
ENDBRANCH   6   8
ENDBRANCH   4   6
ENDBRANCH   3   5
ENDBRANCH   1   3
BRANCH   2  18
ATOM     18  C   UNL     1       0.714   9.808  18.443  0.00  0.00    +0.000 C 
BRANCH  18  19
ATOM     19  C   UNL     1      -0.473   9.526  17.578  0.00  0.00    +0.000 C 
ATOM     20  C   UNL     1      -1.634  10.218  17.604  0.00  0.00    +0.000 C 
BRANCH  20  21
ATOM     21  C   UNL     1      -1.961  11.330  18.559  0.00  0.00    +0.000 C 
BRANCH  21  22
ATOM     22  C   UNL     1      -1.280  12.658  18.213  0.00  0.00    +0.000 C 
BRANCH  22  23
ATOM     23  C   UNL     1      -0.830  13.423  19.455  0.00  0.00    +0.000 C 
BRANCH  23  24
ATOM     24  C   UNL     1       0.669  13.412  19.597  0.00  0.00    +0.000 C 
ATOM     25  O   UNL     1       1.465  13.996  18.875  0.00  0.00    +0.000 OA
BRANCH  24  26
ATOM     26  O   UNL     1       1.005  12.572  20.618  0.00  0.00    +0.000 OA
BRANCH  26  27
ATOM     27  C   UNL     1      -0.063  12.298  21.539  0.00  0.00    +0.000 C 
BRANCH  27  28
ATOM     28  C   UNL     1      -0.080  10.790  21.834  0.00  0.00    +0.000 C 
BRANCH  28  29
ATOM     29  O   UNL     1       1.250  10.258  21.916  0.00  0.00    +0.000 OA
ATOM     30  H   UNL     1       1.739  10.767  22.592  0.00  0.00    +0.000 HD
ENDBRANCH  28  29
BRANCH  28  31
ATOM     31  C   UNL     1      -0.832  10.490  23.132  0.00  0.00    +0.000 C 
BRANCH  31  32
ATOM     32  O   UNL     1      -0.163   9.509  23.921  0.00  0.00    +0.000 OA
ATOM     33  H   UNL     1       0.796   9.655  23.842  0.00  0.00    +0.000 HD
ENDBRANCH  31  32
ENDBRANCH  28  31
ENDBRANCH  27  28
ENDBRANCH  26  27
ENDBRANCH  24  26
ENDBRANCH  23  24
ENDBRANCH  22  23
ENDBRANCH  21  22
ENDBRANCH  20  21
ENDBRANCH  18  19
ENDBRANCH   2  18
TORSDOF 22
ENDMDL
MODEL 9
REMARK VINA RESULT:      -5.7      5.884      8.817
REMARK  Name = 
REMARK  24 active torsions:
REMARK  status: ('A' for Active; 'I' for Inactive)
REMARK    1  A    between atoms: C_1  and  C_2
REMARK    2  A    between atoms: C_2  and  C_3
REMARK    3  A    between atoms: C_2  and  C_4
REMARK    4  A    between atoms: C_2  and  C_26
REMARK    5  A    between atoms: C_5  and  C_6
REMARK    6  A    between atoms: C_6  and  C_7
REMARK    7  A    between atoms: C_8  and  C_9
REMARK    8  A    between atoms: C_9  and  C_10
REMARK    9  A    between atoms: C_11  and  C_12
REMARK   10  A    between atoms: C_12  and  C_13
REMARK   11  A    between atoms: C_14  and  C_15
REMARK   12  A    between atoms: C_15  and  C_16
REMARK   13  A    between atoms: C_16  and  C_17
REMARK   14  A    between atoms: C_17  and  C_18
REMARK   15  A    between atoms: C_18  and  O_20
REMARK   16  A    between atoms: O_20  and  C_21
REMARK   17  A    between atoms: C_21  and  C_22
REMARK   18  A    between atoms: C_22  and  O_23
REMARK   19  A    between atoms: C_22  and  C_24
REMARK   20  A    between atoms: C_24  and  O_25
REMARK   21  A    between atoms: C_26  and  C_27
REMARK   22  A    between atoms: C_27  and  C_28
REMARK   23  A    between atoms: C_28  and  C_29
REMARK   24  A    between atoms: C_29  and  O_30
REMARK                            x       y       z     vdW  Elec       q    Type
REMARK                         _______ _______ _______ _____ _____    ______ ____
ROOT
ATOM      1  C   UNL     1       1.499   4.114  17.654  0.00  0.00    +0.000 C 
ATOM      2  C   UNL     1       1.168   3.171  18.554  0.00  0.00    +0.000 C 
ENDROOT
BRANCH   1   3
ATOM      3  C   UNL     1       1.327   5.612  17.739  0.00  0.00    +0.000 C 
BRANCH   3   5
ATOM      4  C   UNL     1       2.607   7.748  18.318  0.00  0.00    +0.000 C 
ATOM      5  C   UNL     1       2.486   6.408  18.279  0.00  0.00    +0.000 C 
BRANCH   4   6
ATOM      6  C   UNL     1       1.644   8.748  17.749  0.00  0.00    +0.000 C 
BRANCH   6   8
ATOM      7  C   UNL     1       1.192  11.127  18.513  0.00  0.00    +0.000 C 
ATOM      8  C   UNL     1       2.016  10.157  18.078  0.00  0.00    +0.000 C 
BRANCH   7  10
ATOM      9  C   UNL     1      -0.625  10.650  20.205  0.00  0.00    +0.000 C 
ATOM     10  C   UNL     1      -0.318  11.094  18.759  0.00  0.00    +0.000 C 
ATOM     11  C   UNL     1      -0.975  12.467  18.507  0.00  0.00    +0.000 C 
BRANCH  10  12
ATOM     12  C   UNL     1      -0.978  10.038  17.816  0.00  0.00    +0.000 C 
BRANCH  12  13
ATOM     13  C   UNL     1      -2.150  10.557  16.971  0.00  0.00    +0.000 C 
BRANCH  13  14
ATOM     14  C   UNL     1      -3.485  10.025  17.485  0.00  0.00    +0.000 C 
BRANCH  14  15
ATOM     15  C   UNL     1      -4.494  11.156  17.640  0.00  0.00    +0.000 C 
BRANCH  15  16
ATOM     16  O   UNL     1      -4.423  11.694  18.954  0.00  0.00    +0.000 OA
ATOM     17  H   UNL     1      -4.546  12.656  18.878  0.00  0.00    +0.000 HD
ENDBRANCH  15  16
ENDBRANCH  14  15
ENDBRANCH  13  14
ENDBRANCH  12  13
ENDBRANCH  10  12
ENDBRANCH   7  10
ENDBRANCH   6   8
ENDBRANCH   4   6
ENDBRANCH   3   5
ENDBRANCH   1   3
BRANCH   2  18
ATOM     18  C   UNL     1       0.488   3.434  19.863  0.00  0.00    +0.000 C 
BRANCH  18  19
ATOM     19  C   UNL     1       1.385   4.068  20.880  0.00  0.00    +0.000 C 
ATOM     20  C   UNL     1       2.567   3.560  21.295  0.00  0.00    +0.000 C 
BRANCH  20  21
ATOM     21  C   UNL     1       3.142   2.239  20.871  0.00  0.00    +0.000 C 
BRANCH  21  22
ATOM     22  C   UNL     1       4.543   2.344  20.262  0.00  0.00    +0.000 C 
BRANCH  22  23
ATOM     23  C   UNL     1       4.715   3.596  19.407  0.00  0.00    +0.000 C 
BRANCH  23  24
ATOM     24  C   UNL     1       4.611   3.281  17.938  0.00  0.00    +0.000 C 
ATOM     25  O   UNL     1       4.268   2.210  17.454  0.00  0.00    +0.000 OA
BRANCH  24  26
ATOM     26  O   UNL     1       5.043   4.361  17.227  0.00  0.00    +0.000 OA
BRANCH  26  27
ATOM     27  C   UNL     1       6.031   5.158  17.899  0.00  0.00    +0.000 C 
BRANCH  27  28
ATOM     28  C   UNL     1       7.355   5.051  17.126  0.00  0.00    +0.000 C 
BRANCH  28  29
ATOM     29  O   UNL     1       8.193   4.019  17.664  0.00  0.00    +0.000 OA
ATOM     30  H   UNL     1       9.074   4.095  17.248  0.00  0.00    +0.000 HD
ENDBRANCH  28  29
BRANCH  28  31
ATOM     31  C   UNL     1       7.107   4.786  15.640  0.00  0.00    +0.000 C 
BRANCH  31  32
ATOM     32  O   UNL     1       6.233   5.753  15.062  0.00  0.00    +0.000 OA
ATOM     33  H   UNL     1       5.649   6.094  15.763  0.00  0.00    +0.000 HD
ENDBRANCH  31  32
ENDBRANCH  28  31
ENDBRANCH  27  28
ENDBRANCH  26  27
ENDBRANCH  24  26
ENDBRANCH  23  24
ENDBRANCH  22  23
ENDBRANCH  21  22
ENDBRANCH  20  21
ENDBRANCH  18  19
ENDBRANCH   2  18
TORSDOF 22
ENDMDL
