MODEL 1
REMARK VINA RESULT:      -6.6      0.000      0.000
REMARK  Name = 
REMARK  8 active torsions:
REMARK  status: ('A' for Active; 'I' for Inactive)
REMARK    1  A    between atoms: C_1  and  C_2
REMARK    2  A    between atoms: C_2  and  C_3
REMARK    3  A    between atoms: N_7  and  S_8
REMARK    4  A    between atoms: S_8  and  C_9
REMARK    5  A    between atoms: C_9  and  C_10
REMARK    6  A    between atoms: C_10  and  N_11
REMARK    7  A    between atoms: C_10  and  C_12
REMARK    8  A    between atoms: C_12  and  O_14
REMARK                            x       y       z     vdW  Elec       q    Type
REMARK                         _______ _______ _______ _____ _____    ______ ____
ROOT
ATOM      1  S   UNK     1       4.112   5.477  17.456  0.00  0.00    +0.000 S 
ENDROOT
BRANCH   1   6
ATOM      2  C   UNK     1       1.878   2.620  19.076  0.00  0.00    +0.000 C 
ATOM      3  C   UNK     1       3.263   2.259  19.620  0.00  0.00    +0.000 C 
ATOM      4  C   UNK     1       4.173   3.339  19.105  0.00  0.00    +0.000 C 
ATOM      5  O   UNK     1       5.336   3.466  19.465  0.00  0.00    +0.000 OA
ATOM      6  N   UNK     1       3.486   4.078  18.181  0.00  0.00    +0.000 N 
ATOM      7  C   UNK     1       2.175   3.694  18.048  0.00  0.00    +0.000 C 
ATOM      8  O   UNK     1       1.342   4.124  17.266  0.00  0.00    +0.000 OA
BRANCH   2  10
ATOM      9  C   UNK     1       1.435   2.744  21.601  0.00  0.00    +0.000 C 
ATOM     10  C   UNK     1       0.958   3.113  20.201  0.00  0.00    +0.000 C 
ENDBRANCH   2  10
ENDBRANCH   1   6
BRANCH   1  11
ATOM     11  C   UNK     1       5.339   4.789  16.288  0.00  0.00    +0.000 C 
BRANCH  11  12
ATOM     12  C   UNK     1       6.634   5.625  16.298  0.00  0.00    +0.000 C 
BRANCH  12  13
ATOM     13  N   UNK     1       7.517   5.322  15.143  0.00  0.00    +0.000 NA
ATOM     14  H   UNK     1       7.067   5.678  14.294  0.00  0.00    +0.000 HD
ATOM     15  H   UNK     1       7.550   4.311  15.003  0.00  0.00    +0.000 HD
ENDBRANCH  12  13
BRANCH  12  16
ATOM     16  C   UNK     1       7.401   5.346  17.598  0.00  0.00    +0.000 C 
ATOM     17  O   UNK     1       7.682   6.206  18.423  0.00  0.00    +0.000 OA
BRANCH  16  18
ATOM     18  O   UNK     1       7.748   4.050  17.768  0.00  0.00    +0.000 OA
ATOM     19  H   UNK     1       7.314   3.595  18.517  0.00  0.00    +0.000 HD
ENDBRANCH  16  18
ENDBRANCH  12  16
ENDBRANCH  11  12
ENDBRANCH   1  11
TORSDOF 7
ENDMDL
MODEL 2
REMARK VINA RESULT:      -6.4      1.798      1.891
REMARK  Name = 
REMARK  8 active torsions:
REMARK  status: ('A' for Active; 'I' for Inactive)
REMARK    1  A    between atoms: C_1  and  C_2
REMARK    2  A    between atoms: C_2  and  C_3
REMARK    3  A    between atoms: N_7  and  S_8
REMARK    4  A    between atoms: S_8  and  C_9
REMARK    5  A    between atoms: C_9  and  C_10
REMARK    6  A    between atoms: C_10  and  N_11
REMARK    7  A    between atoms: C_10  and  C_12
REMARK    8  A    between atoms: C_12  and  O_14
REMARK                            x       y       z     vdW  Elec       q    Type
REMARK                         _______ _______ _______ _____ _____    ______ ____
ROOT
ATOM      1  S   UNK     1       4.835   4.014  16.944  0.00  0.00    +0.000 S 
ENDROOT
BRANCH   1   6
ATOM      2  C   UNK     1       1.419   4.004  18.972  0.00  0.00    +0.000 C 
ATOM      3  C   UNK     1       1.642   2.505  18.757  0.00  0.00    +0.000 C 
ATOM      4  C   UNK     1       2.963   2.409  18.046  0.00  0.00    +0.000 C 
ATOM      5  O   UNK     1       3.542   1.350  17.844  0.00  0.00    +0.000 OA
ATOM      6  N   UNK     1       3.338   3.667  17.662  0.00  0.00    +0.000 N 
ATOM      7  C   UNK     1       2.475   4.644  18.092  0.00  0.00    +0.000 C 
ATOM      8  O   UNK     1       2.517   5.841  17.854  0.00  0.00    +0.000 OA
BRANCH   2  10
ATOM      9  C   UNK     1       1.581   3.178  21.396  0.00  0.00    +0.000 C 
ATOM     10  C   UNK     1       1.574   4.376  20.453  0.00  0.00    +0.000 C 
ENDBRANCH   2  10
ENDBRANCH   1   6
BRANCH   1  11
ATOM     11  C   UNK     1       5.753   4.786  18.323  0.00  0.00    +0.000 C 
BRANCH  11  12
ATOM     12  C   UNK     1       7.146   5.257  17.858  0.00  0.00    +0.000 C 
BRANCH  12  13
ATOM     13  N   UNK     1       8.040   4.128  17.497  0.00  0.00    +0.000 NA
ATOM     14  H   UNK     1       7.638   3.650  16.685  0.00  0.00    +0.000 HD
ATOM     15  H   UNK     1       8.009   3.426  18.239  0.00  0.00    +0.000 HD
ENDBRANCH  12  13
BRANCH  12  16
ATOM     16  C   UNK     1       7.800   6.070  18.985  0.00  0.00    +0.000 C 
ATOM     17  O   UNK     1       8.360   7.146  18.814  0.00  0.00    +0.000 OA
BRANCH  16  18
ATOM     18  O   UNK     1       7.708   5.497  20.206  0.00  0.00    +0.000 OA
ATOM     19  H   UNK     1       7.909   6.084  20.961  0.00  0.00    +0.000 HD
ENDBRANCH  16  18
ENDBRANCH  12  16
ENDBRANCH  11  12
ENDBRANCH   1  11
TORSDOF 7
ENDMDL
MODEL 3
REMARK VINA RESULT:      -6.4      1.101      1.239
REMARK  Name = 
REMARK  8 active torsions:
REMARK  status: ('A' for Active; 'I' for Inactive)
REMARK    1  A    between atoms: C_1  and  C_2
REMARK    2  A    between atoms: C_2  and  C_3
REMARK    3  A    between atoms: N_7  and  S_8
REMARK    4  A    between atoms: S_8  and  C_9
REMARK    5  A    between atoms: C_9  and  C_10
REMARK    6  A    between atoms: C_10  and  N_11
REMARK    7  A    between atoms: C_10  and  C_12
REMARK    8  A    between atoms: C_12  and  O_14
REMARK                            x       y       z     vdW  Elec       q    Type
REMARK                         _______ _______ _______ _____ _____    ______ ____
ROOT
ATOM      1  S   UNK     1       3.779   5.930  18.170  0.00  0.00    +0.000 S 
ENDROOT
BRANCH   1   6
ATOM      2  C   UNK     1       1.915   2.433  18.448  0.00  0.00    +0.000 C 
ATOM      3  C   UNK     1       3.314   2.065  18.946  0.00  0.00    +0.000 C 
ATOM      4  C   UNK     1       4.080   3.358  18.938  0.00  0.00    +0.000 C 
ATOM      5  O   UNK     1       5.198   3.481  19.422  0.00  0.00    +0.000 OA
ATOM      6  N   UNK     1       3.332   4.299  18.284  0.00  0.00    +0.000 N 
ATOM      7  C   UNK     1       2.096   3.837  17.905  0.00  0.00    +0.000 C 
ATOM      8  O   UNK     1       1.241   4.423  17.259  0.00  0.00    +0.000 OA
BRANCH   2  10
ATOM      9  C   UNK     1       1.351   3.029  20.879  0.00  0.00    +0.000 C 
ATOM     10  C   UNK     1       0.890   2.364  19.587  0.00  0.00    +0.000 C 
ENDBRANCH   2  10
ENDBRANCH   1   6
BRANCH   1  11
ATOM     11  C   UNK     1       5.009   5.898  16.817  0.00  0.00    +0.000 C 
BRANCH  11  12
ATOM     12  C   UNK     1       6.439   6.040  17.372  0.00  0.00    +0.000 C 
BRANCH  12  13
ATOM     13  N   UNK     1       7.092   7.305  16.951  0.00  0.00    +0.000 NA
ATOM     14  H   UNK     1       8.054   7.091  16.671  0.00  0.00    +0.000 HD
ATOM     15  H   UNK     1       7.200   7.913  17.765  0.00  0.00    +0.000 HD
ENDBRANCH  12  13
BRANCH  12  16
ATOM     16  C   UNK     1       7.286   4.856  16.883  0.00  0.00    +0.000 C 
ATOM     17  O   UNK     1       7.554   4.648  15.706  0.00  0.00    +0.000 OA
BRANCH  16  18
ATOM     18  O   UNK     1       7.722   4.042  17.871  0.00  0.00    +0.000 OA
ATOM     19  H   UNK     1       8.672   4.122  18.089  0.00  0.00    +0.000 HD
ENDBRANCH  16  18
ENDBRANCH  12  16
ENDBRANCH  11  12
ENDBRANCH   1  11
TORSDOF 7
ENDMDL
MODEL 4
REMARK VINA RESULT:      -6.3      1.647      2.378
REMARK  Name = 
REMARK  8 active torsions:
REMARK  status: ('A' for Active; 'I' for Inactive)
REMARK    1  A    between atoms: C_1  and  C_2
REMARK    2  A    between atoms: C_2  and  C_3
REMARK    3  A    between atoms: N_7  and  S_8
REMARK    4  A    between atoms: S_8  and  C_9
REMARK    5  A    between atoms: C_9  and  C_10
REMARK    6  A    between atoms: C_10  and  N_11
REMARK    7  A    between atoms: C_10  and  C_12
REMARK    8  A    between atoms: C_12  and  O_14
REMARK                            x       y       z     vdW  Elec       q    Type
REMARK                         _______ _______ _______ _____ _____    ______ ____
ROOT
ATOM      1  S   UNK     1       3.416   5.888  18.265  0.00  0.00    +0.000 S 
ENDROOT
BRANCH   1   6
ATOM      2  C   UNK     1       0.819   3.633  20.252  0.00  0.00    +0.000 C 
ATOM      3  C   UNK     1       0.827   2.944  18.886  0.00  0.00    +0.000 C 
ATOM      4  C   UNK     1       1.845   3.699  18.078  0.00  0.00    +0.000 C 
ATOM      5  O   UNK     1       2.234   3.334  16.976  0.00  0.00    +0.000 OA
ATOM      6  N   UNK     1       2.194   4.826  18.770  0.00  0.00    +0.000 N 
ATOM      7  C   UNK     1       1.601   4.909  20.005  0.00  0.00    +0.000 C 
ATOM      8  O   UNK     1       1.674   5.820  20.815  0.00  0.00    +0.000 OA
BRANCH   2  10
ATOM      9  C   UNK     1       2.984   2.683  21.251  0.00  0.00    +0.000 C 
ATOM     10  C   UNK     1       1.462   2.740  21.322  0.00  0.00    +0.000 C 
ENDBRANCH   2  10
ENDBRANCH   1   6
BRANCH   1  11
ATOM     11  C   UNK     1       4.931   4.923  18.609  0.00  0.00    +0.000 C 
BRANCH  11  12
ATOM     12  C   UNK     1       5.698   4.623  17.307  0.00  0.00    +0.000 C 
BRANCH  12  13
ATOM     13  N   UNK     1       5.339   3.305  16.723  0.00  0.00    +0.000 NA
ATOM     14  H   UNK     1       5.991   3.106  15.959  0.00  0.00    +0.000 HD
ATOM     15  H   UNK     1       4.430   3.380  16.262  0.00  0.00    +0.000 HD
ENDBRANCH  12  13
BRANCH  12  16
ATOM     16  C   UNK     1       7.205   4.644  17.598  0.00  0.00    +0.000 C 
ATOM     17  O   UNK     1       8.068   4.465  16.747  0.00  0.00    +0.000 OA
BRANCH  16  18
ATOM     18  O   UNK     1       7.515   4.882  18.892  0.00  0.00    +0.000 OA
ATOM     19  H   UNK     1       7.726   4.089  19.425  0.00  0.00    +0.000 HD
ENDBRANCH  16  18
ENDBRANCH  12  16
ENDBRANCH  11  12
ENDBRANCH   1  11
TORSDOF 7
ENDMDL
MODEL 5
REMARK VINA RESULT:      -6.3      1.780      1.914
REMARK  Name = 
REMARK  8 active torsions:
REMARK  status: ('A' for Active; 'I' for Inactive)
REMARK    1  A    between atoms: C_1  and  C_2
REMARK    2  A    between atoms: C_2  and  C_3
REMARK    3  A    between atoms: N_7  and  S_8
REMARK    4  A    between atoms: S_8  and  C_9
REMARK    5  A    between atoms: C_9  and  C_10
REMARK    6  A    between atoms: C_10  and  N_11
REMARK    7  A    between atoms: C_10  and  C_12
REMARK    8  A    between atoms: C_12  and  O_14
REMARK                            x       y       z     vdW  Elec       q    Type
REMARK                         _______ _______ _______ _____ _____    ______ ____
ROOT
ATOM      1  S   UNK     1       5.400   5.191  18.914  0.00  0.00    +0.000 S 
ENDROOT
BRANCH   1   6
ATOM      2  C   UNK     1       1.893   3.327  18.880  0.00  0.00    +0.000 C 
ATOM      3  C   UNK     1       2.830   2.189  19.293  0.00  0.00    +0.000 C 
ATOM      4  C   UNK     1       4.187   2.827  19.398  0.00  0.00    +0.000 C 
ATOM      5  O   UNK     1       5.166   2.253  19.856  0.00  0.00    +0.000 OA
ATOM      6  N   UNK     1       4.114   4.087  18.870  0.00  0.00    +0.000 N 
ATOM      7  C   UNK     1       2.845   4.438  18.482  0.00  0.00    +0.000 C 
ATOM      8  O   UNK     1       2.485   5.465  17.929  0.00  0.00    +0.000 OA
BRANCH   2  10
ATOM      9  C   UNK     1       1.179   2.912  21.309  0.00  0.00    +0.000 C 
ATOM     10  C   UNK     1       0.966   3.723  20.037  0.00  0.00    +0.000 C 
ENDBRANCH   2  10
ENDBRANCH   1   6
BRANCH   1  11
ATOM     11  C   UNK     1       5.777   5.414  17.139  0.00  0.00    +0.000 C 
BRANCH  11  12
ATOM     12  C   UNK     1       6.680   4.277  16.623  0.00  0.00    +0.000 C 
BRANCH  12  13
ATOM     13  N   UNK     1       7.991   4.229  17.319  0.00  0.00    +0.000 NA
ATOM     14  H   UNK     1       8.286   3.250  17.378  0.00  0.00    +0.000 HD
ATOM     15  H   UNK     1       7.863   4.509  18.294  0.00  0.00    +0.000 HD
ENDBRANCH  12  13
BRANCH  12  16
ATOM     16  C   UNK     1       6.922   4.473  15.119  0.00  0.00    +0.000 C 
ATOM     17  O   UNK     1       7.653   5.338  14.652  0.00  0.00    +0.000 OA
BRANCH  16  18
ATOM     18  O   UNK     1       6.253   3.600  14.333  0.00  0.00    +0.000 OA
ATOM     19  H   UNK     1       6.812   2.971  13.836  0.00  0.00    +0.000 HD
ENDBRANCH  16  18
ENDBRANCH  12  16
ENDBRANCH  11  12
ENDBRANCH   1  11
TORSDOF 7
ENDMDL
MODEL 6
REMARK VINA RESULT:      -6.3      1.521      1.620
REMARK  Name = 
REMARK  8 active torsions:
REMARK  status: ('A' for Active; 'I' for Inactive)
REMARK    1  A    between atoms: C_1  and  C_2
REMARK    2  A    between atoms: C_2  and  C_3
REMARK    3  A    between atoms: N_7  and  S_8
REMARK    4  A    between atoms: S_8  and  C_9
REMARK    5  A    between atoms: C_9  and  C_10
REMARK    6  A    between atoms: C_10  and  N_11
REMARK    7  A    between atoms: C_10  and  C_12
REMARK    8  A    between atoms: C_12  and  O_14
REMARK                            x       y       z     vdW  Elec       q    Type
REMARK                         _______ _______ _______ _____ _____    ______ ____
ROOT
ATOM      1  S   UNK     1       4.273   4.985  17.266  0.00  0.00    +0.000 S 
ENDROOT
BRANCH   1   6
ATOM      2  C   UNK     1       1.619   2.923  19.383  0.00  0.00    +0.000 C 
ATOM      3  C   UNK     1       2.933   2.431  19.994  0.00  0.00    +0.000 C 
ATOM      4  C   UNK     1       4.004   3.218  19.290  0.00  0.00    +0.000 C 
ATOM      5  O   UNK     1       5.180   3.202  19.627  0.00  0.00    +0.000 OA
ATOM      6  N   UNK     1       3.432   3.880  18.239  0.00  0.00    +0.000 N 
ATOM      7  C   UNK     1       2.071   3.715  18.172  0.00  0.00    +0.000 C 
ATOM      8  O   UNK     1       1.305   4.132  17.317  0.00  0.00    +0.000 OA
BRANCH   2  10
ATOM      9  C   UNK     1       1.465   5.124  20.692  0.00  0.00    +0.000 C 
ATOM     10  C   UNK     1       0.830   3.772  20.388  0.00  0.00    +0.000 C 
ENDBRANCH   2  10
ENDBRANCH   1   6
BRANCH   1  11
ATOM     11  C   UNK     1       5.304   3.884  16.234  0.00  0.00    +0.000 C 
BRANCH  11  12
ATOM     12  C   UNK     1       6.802   4.193  16.427  0.00  0.00    +0.000 C 
BRANCH  12  13
ATOM     13  N   UNK     1       7.182   4.304  17.859  0.00  0.00    +0.000 NA
ATOM     14  H   UNK     1       7.046   3.388  18.297  0.00  0.00    +0.000 HD
ATOM     15  H   UNK     1       6.512   4.911  18.337  0.00  0.00    +0.000 HD
ENDBRANCH  12  13
BRANCH  12  16
ATOM     16  C   UNK     1       7.135   5.514  15.720  0.00  0.00    +0.000 C 
ATOM     17  O   UNK     1       7.541   6.515  16.297  0.00  0.00    +0.000 OA
BRANCH  16  18
ATOM     18  O   UNK     1       6.943   5.489  14.382  0.00  0.00    +0.000 OA
ATOM     19  H   UNK     1       6.065   5.794  14.079  0.00  0.00    +0.000 HD
ENDBRANCH  16  18
ENDBRANCH  12  16
ENDBRANCH  11  12
ENDBRANCH   1  11
TORSDOF 7
ENDMDL
MODEL 7
REMARK VINA RESULT:      -6.2      1.324      1.477
REMARK  Name = 
REMARK  8 active torsions:
REMARK  status: ('A' for Active; 'I' for Inactive)
REMARK    1  A    between atoms: C_1  and  C_2
REMARK    2  A    between atoms: C_2  and  C_3
REMARK    3  A    between atoms: N_7  and  S_8
REMARK    4  A    between atoms: S_8  and  C_9
REMARK    5  A    between atoms: C_9  and  C_10
REMARK    6  A    between atoms: C_10  and  N_11
REMARK    7  A    between atoms: C_10  and  C_12
REMARK    8  A    between atoms: C_12  and  O_14
REMARK                            x       y       z     vdW  Elec       q    Type
REMARK                         _______ _______ _______ _____ _____    ______ ____
ROOT
ATOM      1  S   UNK     1       4.302   4.172  16.935  0.00  0.00    +0.000 S 
ENDROOT
BRANCH   1   6
ATOM      2  C   UNK     1       1.673   3.115  19.719  0.00  0.00    +0.000 C 
ATOM      3  C   UNK     1       2.986   2.662  20.362  0.00  0.00    +0.000 C 
ATOM      4  C   UNK     1       4.056   3.087  19.396  0.00  0.00    +0.000 C 
ATOM      5  O   UNK     1       5.252   3.027  19.649  0.00  0.00    +0.000 OA
ATOM      6  N   UNK     1       3.454   3.491  18.236  0.00  0.00    +0.000 N 
ATOM      7  C   UNK     1       2.083   3.477  18.305  0.00  0.00    +0.000 C 
ATOM      8  O   UNK     1       1.283   3.725  17.416  0.00  0.00    +0.000 OA
BRANCH   2  10
ATOM      9  C   UNK     1       1.932   5.554  20.472  0.00  0.00    +0.000 C 
ATOM     10  C   UNK     1       1.067   4.300  20.483  0.00  0.00    +0.000 C 
ENDBRANCH   2  10
ENDBRANCH   1   6
BRANCH   1  11
ATOM     11  C   UNK     1       5.143   5.590  17.723  0.00  0.00    +0.000 C 
BRANCH  11  12
ATOM     12  C   UNK     1       6.666   5.522  17.494  0.00  0.00    +0.000 C 
BRANCH  12  13
ATOM     13  N   UNK     1       7.136   4.146  17.188  0.00  0.00    +0.000 NA
ATOM     14  H   UNK     1       7.578   3.765  18.030  0.00  0.00    +0.000 HD
ATOM     15  H   UNK     1       7.897   4.196  16.508  0.00  0.00    +0.000 HD
ENDBRANCH  12  13
BRANCH  12  16
ATOM     16  C   UNK     1       7.385   6.026  18.753  0.00  0.00    +0.000 C 
ATOM     17  O   UNK     1       8.221   6.921  18.751  0.00  0.00    +0.000 OA
BRANCH  16  18
ATOM     18  O   UNK     1       7.016   5.394  19.891  0.00  0.00    +0.000 OA
ATOM     19  H   UNK     1       7.679   5.405  20.609  0.00  0.00    +0.000 HD
ENDBRANCH  16  18
ENDBRANCH  12  16
ENDBRANCH  11  12
ENDBRANCH   1  11
TORSDOF 7
ENDMDL
MODEL 8
REMARK VINA RESULT:      -6.2      1.425      1.461
REMARK  Name = 
REMARK  8 active torsions:
REMARK  status: ('A' for Active; 'I' for Inactive)
REMARK    1  A    between atoms: C_1  and  C_2
REMARK    2  A    between atoms: C_2  and  C_3
REMARK    3  A    between atoms: N_7  and  S_8
REMARK    4  A    between atoms: S_8  and  C_9
REMARK    5  A    between atoms: C_9  and  C_10
REMARK    6  A    between atoms: C_10  and  N_11
REMARK    7  A    between atoms: C_10  and  C_12
REMARK    8  A    between atoms: C_12  and  O_14
REMARK                            x       y       z     vdW  Elec       q    Type
REMARK                         _______ _______ _______ _____ _____    ______ ____
ROOT
ATOM      1  S   UNK     1       4.320   3.986  16.903  0.00  0.00    +0.000 S 
ENDROOT
BRANCH   1   6
ATOM      2  C   UNK     1       1.098   3.363  19.141  0.00  0.00    +0.000 C 
ATOM      3  C   UNK     1       1.687   1.952  19.068  0.00  0.00    +0.000 C 
ATOM      4  C   UNK     1       2.961   2.105  18.285  0.00  0.00    +0.000 C 
ATOM      5  O   UNK     1       3.782   1.207  18.156  0.00  0.00    +0.000 OA
ATOM      6  N   UNK     1       2.990   3.364  17.749  0.00  0.00    +0.000 N 
ATOM      7  C   UNK     1       1.923   4.139  18.133  0.00  0.00    +0.000 C 
ATOM      8  O   UNK     1       1.650   5.273  17.771  0.00  0.00    +0.000 OA
BRANCH   2  10
ATOM      9  C   UNK     1       1.573   2.895  21.619  0.00  0.00    +0.000 C 
ATOM     10  C   UNK     1       1.209   3.931  20.562  0.00  0.00    +0.000 C 
ENDBRANCH   2  10
ENDBRANCH   1   6
BRANCH   1  11
ATOM     11  C   UNK     1       5.034   5.156  18.113  0.00  0.00    +0.000 C 
BRANCH  11  12
ATOM     12  C   UNK     1       6.327   5.791  17.565  0.00  0.00    +0.000 C 
BRANCH  12  13
ATOM     13  N   UNK     1       6.342   5.866  16.082  0.00  0.00    +0.000 NA
ATOM     14  H   UNK     1       7.147   6.434  15.799  0.00  0.00    +0.000 HD
ATOM     15  H   UNK     1       5.534   6.405  15.766  0.00  0.00    +0.000 HD
ENDBRANCH  12  13
BRANCH  12  16
ATOM     16  C   UNK     1       7.530   4.960  18.034  0.00  0.00    +0.000 C 
ATOM     17  O   UNK     1       7.996   5.011  19.165  0.00  0.00    +0.000 OA
BRANCH  16  18
ATOM     18  O   UNK     1       8.046   4.149  17.083  0.00  0.00    +0.000 OA
ATOM     19  H   UNK     1       7.873   4.422  16.161  0.00  0.00    +0.000 HD
ENDBRANCH  16  18
ENDBRANCH  12  16
ENDBRANCH  11  12
ENDBRANCH   1  11
TORSDOF 7
ENDMDL
MODEL 9
REMARK VINA RESULT:      -6.2      1.853      2.055
REMARK  Name = 
REMARK  8 active torsions:
REMARK  status: ('A' for Active; 'I' for Inactive)
REMARK    1  A    between atoms: C_1  and  C_2
REMARK    2  A    between atoms: C_2  and  C_3
REMARK    3  A    between atoms: N_7  and  S_8
REMARK    4  A    between atoms: S_8  and  C_9
REMARK    5  A    between atoms: C_9  and  C_10
REMARK    6  A    between atoms: C_10  and  N_11
REMARK    7  A    between atoms: C_10  and  C_12
REMARK    8  A    between atoms: C_12  and  O_14
REMARK                            x       y       z     vdW  Elec       q    Type
REMARK                         _______ _______ _______ _____ _____    ______ ____
ROOT
ATOM      1  S   UNK     1       4.551   3.836  17.045  0.00  0.00    +0.000 S 
ENDROOT
BRANCH   1   6
ATOM      2  C   UNK     1       1.206   3.449  19.153  0.00  0.00    +0.000 C 
ATOM      3  C   UNK     1       1.691   1.998  19.095  0.00  0.00    +0.000 C 
ATOM      4  C   UNK     1       3.002   2.059  18.364  0.00  0.00    +0.000 C 
ATOM      5  O   UNK     1       3.759   1.102  18.262  0.00  0.00    +0.000 OA
ATOM      6  N   UNK     1       3.145   3.313  17.836  0.00  0.00    +0.000 N 
ATOM      7  C   UNK     1       2.125   4.164  18.182  0.00  0.00    +0.000 C 
ATOM      8  O   UNK     1       1.951   5.316  17.815  0.00  0.00    +0.000 OA
BRANCH   2  10
ATOM      9  C   UNK     1       1.687   2.964  21.626  0.00  0.00    +0.000 C 
ATOM     10  C   UNK     1       1.303   4.004  20.581  0.00  0.00    +0.000 C 
ENDBRANCH   2  10
ENDBRANCH   1   6
BRANCH   1  11
ATOM     11  C   UNK     1       5.527   4.541  18.421  0.00  0.00    +0.000 C 
BRANCH  11  12
ATOM     12  C   UNK     1       6.979   4.812  17.981  0.00  0.00    +0.000 C 
BRANCH  12  13
ATOM     13  N   UNK     1       7.858   5.191  19.116  0.00  0.00    +0.000 NA
ATOM     14  H   UNK     1       8.425   4.376  19.367  0.00  0.00    +0.000 HD
ATOM     15  H   UNK     1       7.283   5.359  19.943  0.00  0.00    +0.000 HD
ENDBRANCH  12  13
BRANCH  12  16
ATOM     16  C   UNK     1       6.985   5.946  16.945  0.00  0.00    +0.000 C 
ATOM     17  O   UNK     1       7.519   5.864  15.846  0.00  0.00    +0.000 OA
BRANCH  16  18
ATOM     18  O   UNK     1       6.341   7.065  17.347  0.00  0.00    +0.000 OA
ATOM     19  H   UNK     1       6.822   7.614  17.997  0.00  0.00    +0.000 HD
ENDBRANCH  16  18
ENDBRANCH  12  16
ENDBRANCH  11  12
ENDBRANCH   1  11
TORSDOF 7
ENDMDL
