MODEL 1
REMARK VINA RESULT:      -6.9      0.000      0.000
REMARK  Name = 
REMARK  2 active torsions:
REMARK  status: ('A' for Active; 'I' for Inactive)
REMARK    1  A    between atoms: N_7  and  C_8
REMARK    2  A    between atoms: C_8  and  C_9
REMARK                            x       y       z     vdW  Elec       q    Type
REMARK                         _______ _______ _______ _____ _____    ______ ____
ROOT
ATOM      1  C   UNL     1      -0.549  12.715  19.950  0.00  0.00    +0.000 C 
ATOM      2  O   UNL     1      -0.029  12.969  18.860  0.00  0.00    +0.000 OA
ATOM      3  N   UNL     1      -1.939  12.778  20.210  0.00  0.00    +0.000 N 
ATOM      4  C   UNL     1      -2.432  13.333  21.460  0.00  0.00    +0.000 A 
ATOM      5  C   UNL     1      -1.552  14.038  22.318  0.00  0.00    +0.000 A 
ATOM      6  C   UNL     1      -1.903  14.413  23.619  0.00  0.00    +0.000 A 
ATOM      7  C   UNL     1      -3.189  14.193  24.071  0.00  0.00    +0.000 A 
ATOM      8  C   UNL     1      -4.120  13.647  23.197  0.00  0.00    +0.000 A 
ATOM      9  C   UNL     1      -3.758  13.230  21.899  0.00  0.00    +0.000 A 
ATOM     10  S   UNL     1      -5.092  12.641  20.915  0.00  0.00    +0.000 S 
ATOM     11  C   UNL     1      -4.265  12.168  19.430  0.00  0.00    +0.000 A 
ATOM     12  C   UNL     1      -5.125  11.635  18.443  0.00  0.00    +0.000 A 
ATOM     13  C   UNL     1      -4.630  11.132  17.247  0.00  0.00    +0.000 A 
ATOM     14  C   UNL     1      -3.264  11.148  17.041  0.00  0.00    +0.000 A 
ATOM     15 CL   UNL     1      -2.621  10.498  15.582  0.00  0.00    +0.000 Cl
ATOM     16  C   UNL     1      -2.405  11.679  18.012  0.00  0.00    +0.000 A 
ATOM     17  C   UNL     1      -2.874  12.235  19.228  0.00  0.00    +0.000 A 
ENDROOT
BRANCH   1  18
ATOM     18  C   UNL     1       0.328  12.166  21.088  0.00  0.00    +0.000 C 
BRANCH  18  25
ATOM     19  O   UNL     1       1.132   9.800  19.492  0.00  0.00    +0.000 OA
ATOM     20  C   UNL     1       0.505   9.753  20.535  0.00  0.00    +0.000 C 
ATOM     21  C   UNL     1       0.189   8.509  21.247  0.00  0.00    +0.000 C 
ATOM     22  C   UNL     1      -0.383   8.834  22.409  0.00  0.00    +0.000 C 
ATOM     23  C   UNL     1      -0.458  10.294  22.472  0.00  0.00    +0.000 C 
ATOM     24  O   UNL     1      -0.866  10.924  23.429  0.00  0.00    +0.000 OA
ATOM     25  N   UNL     1       0.057  10.767  21.311  0.00  0.00    +0.000 N 
ENDBRANCH  18  25
ENDBRANCH   1  18
TORSDOF 2
ENDMDL
MODEL 2
REMARK VINA RESULT:      -6.7      9.393     12.027
REMARK  Name = 
REMARK  2 active torsions:
REMARK  status: ('A' for Active; 'I' for Inactive)
REMARK    1  A    between atoms: N_7  and  C_8
REMARK    2  A    between atoms: C_8  and  C_9
REMARK                            x       y       z     vdW  Elec       q    Type
REMARK                         _______ _______ _______ _____ _____    ______ ____
ROOT
ATOM      1  C   UNL     1       8.509  15.845  20.084  0.00  0.00    +0.000 C 
ATOM      2  O   UNL     1       8.407  16.605  21.051  0.00  0.00    +0.000 OA
ATOM      3  N   UNL     1       8.990  14.516  20.155  0.00  0.00    +0.000 N 
ATOM      4  C   UNL     1       9.878  13.996  19.128  0.00  0.00    +0.000 A 
ATOM      5  C   UNL     1      10.468  14.878  18.188  0.00  0.00    +0.000 A 
ATOM      6  C   UNL     1      11.157  14.429  17.058  0.00  0.00    +0.000 A 
ATOM      7  C   UNL     1      11.377  13.077  16.884  0.00  0.00    +0.000 A 
ATOM      8  C   UNL     1      10.949  12.197  17.870  0.00  0.00    +0.000 A 
ATOM      9  C   UNL     1      10.217  12.645  18.990  0.00  0.00    +0.000 A 
ATOM     10  S   UNL     1       9.836  11.395  20.168  0.00  0.00    +0.000 S 
ATOM     11  C   UNL     1       8.892  12.294  21.356  0.00  0.00    +0.000 A 
ATOM     12  C   UNL     1       8.436  11.506  22.437  0.00  0.00    +0.000 A 
ATOM     13  C   UNL     1       7.606  12.033  23.418  0.00  0.00    +0.000 A 
ATOM     14  C   UNL     1       7.217  13.354  23.311  0.00  0.00    +0.000 A 
ATOM     15 CL   UNL     1       6.159  14.023  24.494  0.00  0.00    +0.000 Cl
ATOM     16  C   UNL     1       7.668  14.144  22.245  0.00  0.00    +0.000 A 
ATOM     17  C   UNL     1       8.544  13.653  21.246  0.00  0.00    +0.000 A 
ENDROOT
BRANCH   1  18
ATOM     18  C   UNL     1       7.965  16.297  18.717  0.00  0.00    +0.000 C 
BRANCH  18  25
ATOM     19  O   UNL     1       5.563  17.917  19.345  0.00  0.00    +0.000 OA
ATOM     20  C   UNL     1       5.540  16.796  18.871  0.00  0.00    +0.000 C 
ATOM     21  C   UNL     1       4.321  16.135  18.388  0.00  0.00    +0.000 C 
ATOM     22  C   UNL     1       4.678  14.983  17.815  0.00  0.00    +0.000 C 
ATOM     23  C   UNL     1       6.133  14.868  17.922  0.00  0.00    +0.000 C 
ATOM     24  O   UNL     1       6.791  13.966  17.441  0.00  0.00    +0.000 OA
ATOM     25  N   UNL     1       6.569  15.964  18.589  0.00  0.00    +0.000 N 
ENDBRANCH  18  25
ENDBRANCH   1  18
TORSDOF 2
ENDMDL
MODEL 3
REMARK VINA RESULT:      -6.6      9.527     12.066
REMARK  Name = 
REMARK  2 active torsions:
REMARK  status: ('A' for Active; 'I' for Inactive)
REMARK    1  A    between atoms: N_7  and  C_8
REMARK    2  A    between atoms: C_8  and  C_9
REMARK                            x       y       z     vdW  Elec       q    Type
REMARK                         _______ _______ _______ _____ _____    ______ ____
ROOT
ATOM      1  C   UNL     1       8.668  15.912  19.880  0.00  0.00    +0.000 C 
ATOM      2  O   UNL     1       8.541  16.665  20.849  0.00  0.00    +0.000 OA
ATOM      3  N   UNL     1       9.134  14.578  19.956  0.00  0.00    +0.000 N 
ATOM      4  C   UNL     1      10.052  14.058  18.955  0.00  0.00    +0.000 A 
ATOM      5  C   UNL     1      10.680  14.941  18.043  0.00  0.00    +0.000 A 
ATOM      6  C   UNL     1      11.403  14.494  16.933  0.00  0.00    +0.000 A 
ATOM      7  C   UNL     1      11.616  13.141  16.756  0.00  0.00    +0.000 A 
ATOM      8  C   UNL     1      11.147  12.258  17.720  0.00  0.00    +0.000 A 
ATOM      9  C   UNL     1      10.383  12.704  18.818  0.00  0.00    +0.000 A 
ATOM     10  S   UNL     1       9.951  11.449  19.973  0.00  0.00    +0.000 S 
ATOM     11  C   UNL     1       8.976  12.348  21.136  0.00  0.00    +0.000 A 
ATOM     12  C   UNL     1       8.477  11.556  22.195  0.00  0.00    +0.000 A 
ATOM     13  C   UNL     1       7.620  12.083  23.152  0.00  0.00    +0.000 A 
ATOM     14  C   UNL     1       7.246  13.409  23.043  0.00  0.00    +0.000 A 
ATOM     15 CL   UNL     1       6.156  14.079  24.194  0.00  0.00    +0.000 Cl
ATOM     16  C   UNL     1       7.740  14.202  21.999  0.00  0.00    +0.000 A 
ATOM     17  C   UNL     1       8.645  13.711  21.026  0.00  0.00    +0.000 A 
ENDROOT
BRANCH   1  18
ATOM     18  C   UNL     1       8.175  16.379  18.500  0.00  0.00    +0.000 C 
BRANCH  18  25
ATOM     19  O   UNL     1       6.993  13.859  17.479  0.00  0.00    +0.000 OA
ATOM     20  C   UNL     1       6.352  14.820  17.864  0.00  0.00    +0.000 C 
ATOM     21  C   UNL     1       4.894  14.819  18.033  0.00  0.00    +0.000 C 
ATOM     22  C   UNL     1       4.544  15.979  18.594  0.00  0.00    +0.000 C 
ATOM     23  C   UNL     1       5.766  16.760  18.793  0.00  0.00    +0.000 C 
ATOM     24  O   UNL     1       5.811  17.843  19.345  0.00  0.00    +0.000 OA
ATOM     25  N   UNL     1       6.792  16.021  18.305  0.00  0.00    +0.000 N 
ENDBRANCH  18  25
ENDBRANCH   1  18
TORSDOF 2
ENDMDL
MODEL 4
REMARK VINA RESULT:      -6.6      0.568      1.600
REMARK  Name = 
REMARK  2 active torsions:
REMARK  status: ('A' for Active; 'I' for Inactive)
REMARK    1  A    between atoms: N_7  and  C_8
REMARK    2  A    between atoms: C_8  and  C_9
REMARK                            x       y       z     vdW  Elec       q    Type
REMARK                         _______ _______ _______ _____ _____    ______ ____
ROOT
ATOM      1  C   UNL     1      -0.002  12.543  19.794  0.00  0.00    +0.000 C 
ATOM      2  O   UNL     1       0.450  12.652  18.651  0.00  0.00    +0.000 OA
ATOM      3  N   UNL     1      -1.359  12.747  20.142  0.00  0.00    +0.000 N 
ATOM      4  C   UNL     1      -1.710  13.453  21.364  0.00  0.00    +0.000 A 
ATOM      5  C   UNL     1      -0.716  14.158  22.086  0.00  0.00    +0.000 A 
ATOM      6  C   UNL     1      -0.935  14.679  23.365  0.00  0.00    +0.000 A 
ATOM      7  C   UNL     1      -2.196  14.609  23.924  0.00  0.00    +0.000 A 
ATOM      8  C   UNL     1      -3.231  14.065  23.174  0.00  0.00    +0.000 A 
ATOM      9  C   UNL     1      -3.002  13.502  21.901  0.00  0.00    +0.000 A 
ATOM     10  S   UNL     1      -4.450  12.939  21.074  0.00  0.00    +0.000 S 
ATOM     11  C   UNL     1      -3.778  12.264  19.590  0.00  0.00    +0.000 A 
ATOM     12  C   UNL     1      -4.750  11.717  18.721  0.00  0.00    +0.000 A 
ATOM     13  C   UNL     1      -4.389  11.067  17.549  0.00  0.00    +0.000 A 
ATOM     14  C   UNL     1      -3.046  10.949  17.247  0.00  0.00    +0.000 A 
ATOM     15 CL   UNL     1      -2.568  10.117  15.818  0.00  0.00    +0.000 Cl
ATOM     16  C   UNL     1      -2.076  11.493  18.100  0.00  0.00    +0.000 A 
ATOM     17  C   UNL     1      -2.406  12.195  19.285  0.00  0.00    +0.000 A 
ENDROOT
BRANCH   1  18
ATOM     18  C   UNL     1       0.915  12.030  20.917  0.00  0.00    +0.000 C 
BRANCH  18  25
ATOM     19  O   UNL     1      -0.514  11.023  23.312  0.00  0.00    +0.000 OA
ATOM     20  C   UNL     1      -0.127  10.327  22.390  0.00  0.00    +0.000 C 
ATOM     21  C   UNL     1      -0.449   8.902  22.247  0.00  0.00    +0.000 C 
ATOM     22  C   UNL     1       0.020   8.491  21.067  0.00  0.00    +0.000 C 
ATOM     23  C   UNL     1       0.663   9.637  20.423  0.00  0.00    +0.000 C 
ATOM     24  O   UNL     1       1.137   9.624  19.303  0.00  0.00    +0.000 OA
ATOM     25  N   UNL     1       0.565  10.680  21.283  0.00  0.00    +0.000 N 
ENDBRANCH  18  25
ENDBRANCH   1  18
TORSDOF 2
ENDMDL
MODEL 5
REMARK VINA RESULT:      -6.3      1.398      1.817
REMARK  Name = 
REMARK  2 active torsions:
REMARK  status: ('A' for Active; 'I' for Inactive)
REMARK    1  A    between atoms: N_7  and  C_8
REMARK    2  A    between atoms: C_8  and  C_9
REMARK                            x       y       z     vdW  Elec       q    Type
REMARK                         _______ _______ _______ _____ _____    ______ ____
ROOT
ATOM      1  C   UNL     1      -1.287  13.338  20.628  0.00  0.00    +0.000 C 
ATOM      2  O   UNL     1      -1.214  13.527  19.411  0.00  0.00    +0.000 OA
ATOM      3  N   UNL     1      -2.468  13.489  21.394  0.00  0.00    +0.000 N 
ATOM      4  C   UNL     1      -2.422  14.111  22.707  0.00  0.00    +0.000 A 
ATOM      5  C   UNL     1      -1.253  14.792  23.128  0.00  0.00    +0.000 A 
ATOM      6  C   UNL     1      -1.063  15.229  24.443  0.00  0.00    +0.000 A 
ATOM      7  C   UNL     1      -2.086  15.096  25.361  0.00  0.00    +0.000 A 
ATOM      8  C   UNL     1      -3.302  14.575  24.938  0.00  0.00    +0.000 A 
ATOM      9  C   UNL     1      -3.481  14.097  23.622  0.00  0.00    +0.000 A 
ATOM     10  S   UNL     1      -5.113  13.553  23.253  0.00  0.00    +0.000 S 
ATOM     11  C   UNL     1      -4.937  12.986  21.592  0.00  0.00    +0.000 A 
ATOM     12  C   UNL     1      -6.130  12.471  21.035  0.00  0.00    +0.000 A 
ATOM     13  C   UNL     1      -6.151  11.902  19.769  0.00  0.00    +0.000 A 
ATOM     14  C   UNL     1      -4.969  11.834  19.057  0.00  0.00    +0.000 A 
ATOM     15 CL   UNL     1      -4.960  11.102  17.499  0.00  0.00    +0.000 Cl
ATOM     16  C   UNL     1      -3.783  12.347  19.599  0.00  0.00    +0.000 A 
ATOM     17  C   UNL     1      -3.729  12.967  20.872  0.00  0.00    +0.000 A 
ENDROOT
BRANCH   1  18
ATOM     18  C   UNL     1      -0.063  12.778  21.373  0.00  0.00    +0.000 C 
BRANCH  18  25
ATOM     19  O   UNL     1       1.157  10.877  19.453  0.00  0.00    +0.000 OA
ATOM     20  C   UNL     1       0.546  10.554  20.456  0.00  0.00    +0.000 C 
ATOM     21  C   UNL     1       0.457   9.177  20.955  0.00  0.00    +0.000 C 
ATOM     22  C   UNL     1      -0.168   9.206  22.134  0.00  0.00    +0.000 C 
ATOM     23  C   UNL     1      -0.504  10.601  22.422  0.00  0.00    +0.000 C 
ATOM     24  O   UNL     1      -1.021  10.988  23.452  0.00  0.00    +0.000 OA
ATOM     25  N   UNL     1      -0.079  11.337  21.366  0.00  0.00    +0.000 N 
ENDBRANCH  18  25
ENDBRANCH   1  18
TORSDOF 2
ENDMDL
MODEL 6
REMARK VINA RESULT:      -6.2      2.859      5.361
REMARK  Name = 
REMARK  2 active torsions:
REMARK  status: ('A' for Active; 'I' for Inactive)
REMARK    1  A    between atoms: N_7  and  C_8
REMARK    2  A    between atoms: C_8  and  C_9
REMARK                            x       y       z     vdW  Elec       q    Type
REMARK                         _______ _______ _______ _____ _____    ______ ____
ROOT
ATOM      1  C   UNL     1      -0.716  12.399  19.550  0.00  0.00    +0.000 C 
ATOM      2  O   UNL     1       0.012  12.166  20.519  0.00  0.00    +0.000 OA
ATOM      3  N   UNL     1      -2.124  12.247  19.550  0.00  0.00    +0.000 N 
ATOM      4  C   UNL     1      -2.805  11.678  18.398  0.00  0.00    +0.000 A 
ATOM      5  C   UNL     1      -2.057  11.045  17.374  0.00  0.00    +0.000 A 
ATOM      6  C   UNL     1      -2.618  10.665  16.151  0.00  0.00    +0.000 A 
ATOM      7  C   UNL     1      -3.977  10.806  15.950  0.00  0.00    +0.000 A 
ATOM      8  C   UNL     1      -4.763  11.277  16.994  0.00  0.00    +0.000 A 
ATOM      9  C   UNL     1      -4.192  11.699  18.214  0.00  0.00    +0.000 A 
ATOM     10  S   UNL     1      -5.355  12.185  19.441  0.00  0.00    +0.000 S 
ATOM     11  C   UNL     1      -4.299  12.692  20.760  0.00  0.00    +0.000 A 
ATOM     12  C   UNL     1      -4.992  13.153  21.902  0.00  0.00    +0.000 A 
ATOM     13  C   UNL     1      -4.316  13.671  22.999  0.00  0.00    +0.000 A 
ATOM     14  C   UNL     1      -2.938  13.743  22.949  0.00  0.00    +0.000 A 
ATOM     15 CL   UNL     1      -2.076  14.414  24.281  0.00  0.00    +0.000 Cl
ATOM     16  C   UNL     1      -2.242  13.283  21.823  0.00  0.00    +0.000 A 
ATOM     17  C   UNL     1      -2.893  12.715  20.701  0.00  0.00    +0.000 A 
ENDROOT
BRANCH   1  18
ATOM     18  C   UNL     1      -0.102  13.021  18.284  0.00  0.00    +0.000 C 
BRANCH  18  25
ATOM     19  O   UNL     1       2.652  11.978  17.940  0.00  0.00    +0.000 OA
ATOM     20  C   UNL     1       2.377  13.090  18.353  0.00  0.00    +0.000 C 
ATOM     21  C   UNL     1       3.370  14.143  18.594  0.00  0.00    +0.000 C 
ATOM     22  C   UNL     1       2.715  15.262  18.911  0.00  0.00    +0.000 C 
ATOM     23  C   UNL     1       1.283  14.957  18.890  0.00  0.00    +0.000 C 
ATOM     24  O   UNL     1       0.400  15.773  19.068  0.00  0.00    +0.000 OA
ATOM     25  N   UNL     1       1.164  13.641  18.585  0.00  0.00    +0.000 N 
ENDBRANCH  18  25
ENDBRANCH   1  18
TORSDOF 2
ENDMDL
MODEL 7
REMARK VINA RESULT:      -6.2      1.348      1.606
REMARK  Name = 
REMARK  2 active torsions:
REMARK  status: ('A' for Active; 'I' for Inactive)
REMARK    1  A    between atoms: N_7  and  C_8
REMARK    2  A    between atoms: C_8  and  C_9
REMARK                            x       y       z     vdW  Elec       q    Type
REMARK                         _______ _______ _______ _____ _____    ______ ____
ROOT
ATOM      1  C   UNL     1      -1.785  13.522  20.499  0.00  0.00    +0.000 C 
ATOM      2  O   UNL     1      -1.123  13.775  19.489  0.00  0.00    +0.000 OA
ATOM      3  N   UNL     1      -3.175  13.254  20.501  0.00  0.00    +0.000 N 
ATOM      4  C   UNL     1      -4.031  13.802  21.540  0.00  0.00    +0.000 A 
ATOM      5  C   UNL     1      -3.536  14.804  22.411  0.00  0.00    +0.000 A 
ATOM      6  C   UNL     1      -4.226  15.223  23.553  0.00  0.00    +0.000 A 
ATOM      7  C   UNL     1      -5.491  14.731  23.805  0.00  0.00    +0.000 A 
ATOM      8  C   UNL     1      -6.069  13.867  22.885  0.00  0.00    +0.000 A 
ATOM      9  C   UNL     1      -5.359  13.412  21.754  0.00  0.00    +0.000 A 
ATOM     10  S   UNL     1      -6.287  12.389  20.664  0.00  0.00    +0.000 S 
ATOM     11  C   UNL     1      -5.083  11.978  19.442  0.00  0.00    +0.000 A 
ATOM     12  C   UNL     1      -5.572  11.131  18.421  0.00  0.00    +0.000 A 
ATOM     13  C   UNL     1      -4.738  10.639  17.427  0.00  0.00    +0.000 A 
ATOM     14  C   UNL     1      -3.400  10.984  17.459  0.00  0.00    +0.000 A 
ATOM     15 CL   UNL     1      -2.336  10.359  16.259  0.00  0.00    +0.000 Cl
ATOM     16  C   UNL     1      -2.908  11.826  18.465  0.00  0.00    +0.000 A 
ATOM     17  C   UNL     1      -3.735  12.378  19.474  0.00  0.00    +0.000 A 
ENDROOT
BRANCH   1  18
ATOM     18  C   UNL     1      -1.061  13.352  21.845  0.00  0.00    +0.000 C 
BRANCH  18  25
ATOM     19  O   UNL     1       1.245  11.676  21.033  0.00  0.00    +0.000 OA
ATOM     20  C   UNL     1       0.316  11.292  21.721  0.00  0.00    +0.000 C 
ATOM     21  C   UNL     1       0.274   9.985  22.388  0.00  0.00    +0.000 C 
ATOM     22  C   UNL     1      -0.815   9.952  23.159  0.00  0.00    +0.000 C 
ATOM     23  C   UNL     1      -1.507  11.232  23.002  0.00  0.00    +0.000 C 
ATOM     24  O   UNL     1      -2.503  11.559  23.619  0.00  0.00    +0.000 OA
ATOM     25  N   UNL     1      -0.794  11.961  22.109  0.00  0.00    +0.000 N 
ENDBRANCH  18  25
ENDBRANCH   1  18
TORSDOF 2
ENDMDL
MODEL 8
REMARK VINA RESULT:      -6.2      2.788      5.356
REMARK  Name = 
REMARK  2 active torsions:
REMARK  status: ('A' for Active; 'I' for Inactive)
REMARK    1  A    between atoms: N_7  and  C_8
REMARK    2  A    between atoms: C_8  and  C_9
REMARK                            x       y       z     vdW  Elec       q    Type
REMARK                         _______ _______ _______ _____ _____    ______ ____
ROOT
ATOM      1  C   UNL     1      -0.402  11.825  21.303  0.00  0.00    +0.000 C 
ATOM      2  O   UNL     1      -0.149  11.577  22.486  0.00  0.00    +0.000 OA
ATOM      3  N   UNL     1      -1.708  11.918  20.765  0.00  0.00    +0.000 N 
ATOM      4  C   UNL     1      -2.010  11.352  19.460  0.00  0.00    +0.000 A 
ATOM      5  C   UNL     1      -1.079  10.491  18.828  0.00  0.00    +0.000 A 
ATOM      6  C   UNL     1      -1.209  10.082  17.497  0.00  0.00    +0.000 A 
ATOM      7  C   UNL     1      -2.337  10.432  16.782  0.00  0.00    +0.000 A 
ATOM      8  C   UNL     1      -3.343  11.142  17.424  0.00  0.00    +0.000 A 
ATOM      9  C   UNL     1      -3.195  11.591  18.754  0.00  0.00    +0.000 A 
ATOM     10  S   UNL     1      -4.609  12.400  19.419  0.00  0.00    +0.000 S 
ATOM     11  C   UNL     1      -4.040  12.859  21.025  0.00  0.00    +0.000 A 
ATOM     12  C   UNL     1      -5.000  13.554  21.794  0.00  0.00    +0.000 A 
ATOM     13  C   UNL     1      -4.692  14.065  23.047  0.00  0.00    +0.000 A 
ATOM     14  C   UNL     1      -3.410  13.894  23.532  0.00  0.00    +0.000 A 
ATOM     15 CL   UNL     1      -2.990  14.548  25.068  0.00  0.00    +0.000 Cl
ATOM     16  C   UNL     1      -2.453  13.201  22.778  0.00  0.00    +0.000 A 
ATOM     17  C   UNL     1      -2.739  12.633  21.513  0.00  0.00    +0.000 A 
ENDROOT
BRANCH   1  18
ATOM     18  C   UNL     1       0.751  12.190  20.352  0.00  0.00    +0.000 C 
BRANCH  18  25
ATOM     19  O   UNL     1       2.321  14.107  21.980  0.00  0.00    +0.000 OA
ATOM     20  C   UNL     1       1.654  14.406  21.006  0.00  0.00    +0.000 C 
ATOM     21  C   UNL     1       1.652  15.739  20.391  0.00  0.00    +0.000 C 
ATOM     22  C   UNL     1       0.922  15.677  19.276  0.00  0.00    +0.000 C 
ATOM     23  C   UNL     1       0.427  14.305  19.147  0.00  0.00    +0.000 C 
ATOM     24  O   UNL     1      -0.218  13.890  18.204  0.00  0.00    +0.000 OA
ATOM     25  N   UNL     1       0.875  13.621  20.228  0.00  0.00    +0.000 N 
ENDBRANCH  18  25
ENDBRANCH   1  18
TORSDOF 2
ENDMDL
MODEL 9
REMARK VINA RESULT:      -6.1      1.355      2.296
REMARK  Name = 
REMARK  2 active torsions:
REMARK  status: ('A' for Active; 'I' for Inactive)
REMARK    1  A    between atoms: N_7  and  C_8
REMARK    2  A    between atoms: C_8  and  C_9
REMARK                            x       y       z     vdW  Elec       q    Type
REMARK                         _______ _______ _______ _____ _____    ______ ____
ROOT
ATOM      1  C   UNL     1      -1.111  13.459  20.749  0.00  0.00    +0.000 C 
ATOM      2  O   UNL     1      -0.999  13.671  19.539  0.00  0.00    +0.000 OA
ATOM      3  N   UNL     1      -2.328  13.542  21.468  0.00  0.00    +0.000 N 
ATOM      4  C   UNL     1      -2.364  14.144  22.792  0.00  0.00    +0.000 A 
ATOM      5  C   UNL     1      -1.247  14.873  23.269  0.00  0.00    +0.000 A 
ATOM      6  C   UNL     1      -1.131  15.297  24.597  0.00  0.00    +0.000 A 
ATOM      7  C   UNL     1      -2.182  15.101  25.470  0.00  0.00    +0.000 A 
ATOM      8  C   UNL     1      -3.354  14.531  24.990  0.00  0.00    +0.000 A 
ATOM      9  C   UNL     1      -3.457  14.066  23.663  0.00  0.00    +0.000 A 
ATOM     10  S   UNL     1      -5.045  13.451  23.219  0.00  0.00    +0.000 S 
ATOM     11  C   UNL     1      -4.776  12.920  21.559  0.00  0.00    +0.000 A 
ATOM     12  C   UNL     1      -5.920  12.358  20.947  0.00  0.00    +0.000 A 
ATOM     13  C   UNL     1      -5.864  11.809  19.673  0.00  0.00    +0.000 A 
ATOM     14  C   UNL     1      -4.652  11.809  19.009  0.00  0.00    +0.000 A 
ATOM     15 CL   UNL     1      -4.546  11.103  17.442  0.00  0.00    +0.000 Cl
ATOM     16  C   UNL     1      -3.514  12.368  19.606  0.00  0.00    +0.000 A 
ATOM     17  C   UNL     1      -3.541  12.970  20.888  0.00  0.00    +0.000 A 
ENDROOT
BRANCH   1  18
ATOM     18  C   UNL     1       0.107  12.945  21.536  0.00  0.00    +0.000 C 
BRANCH  18  25
ATOM     19  O   UNL     1      -1.091  10.982  23.406  0.00  0.00    +0.000 OA
ATOM     20  C   UNL     1      -0.463  10.692  22.404  0.00  0.00    +0.000 C 
ATOM     21  C   UNL     1      -0.338   9.326  21.881  0.00  0.00    +0.000 C 
ATOM     22  C   UNL     1       0.298   9.391  20.709  0.00  0.00    +0.000 C 
ATOM     23  C   UNL     1       0.606  10.799  20.451  0.00  0.00    +0.000 C 
ATOM     24  O   UNL     1       1.126  11.217  19.434  0.00  0.00    +0.000 OA
ATOM     25  N   UNL     1       0.154  11.505  21.516  0.00  0.00    +0.000 N 
ENDBRANCH  18  25
ENDBRANCH   1  18
TORSDOF 2
ENDMDL
