MODEL 1
REMARK VINA RESULT:      -7.1      0.000      0.000
REMARK  Name = 
REMARK  6 active torsions:
REMARK  status: ('A' for Active; 'I' for Inactive)
REMARK    1  A    between atoms: C_2  and  C_3
REMARK    2  A    between atoms: C_3  and  N_4
REMARK    3  A    between atoms: N_6  and  C_7
REMARK    4  A    between atoms: C_7  and  C_9
REMARK    5  A    between atoms: C_9  and  O_10
REMARK    6  A    between atoms: O_10  and  C_11
REMARK                            x       y       z     vdW  Elec       q    Type
REMARK                         _______ _______ _______ _____ _____    ______ ____
ROOT
ATOM      1  N   UNL     1       2.681   5.988  19.377  0.00  0.00    +0.000 N 
ATOM      2  C   UNL     1       3.766   5.569  18.641  0.00  0.00    +0.000 C 
ATOM      3  N   UNL     1       4.964   6.013  18.801  0.00  0.00    +0.000 NA
ATOM      4  S   UNL     1       3.253   4.285  17.561  0.00  0.00    +0.000 S 
ATOM      5  C   UNL     1       1.826   3.839  18.585  0.00  0.00    +0.000 C 
ATOM      6  C   UNL     1       2.107   2.510  19.262  0.00  0.00    +0.000 C 
ATOM      7  S   UNL     1       2.670   2.911  20.899  0.00  0.00    +0.000 S 
ATOM      8  O   UNL     1       4.083   3.191  20.851  0.00  0.00    +0.000 OA
ATOM      9  O   UNL     1       2.110   1.944  21.821  0.00  0.00    +0.000 OA
ATOM     10  C   UNL     1       1.773   4.422  21.032  0.00  0.00    +0.000 C 
ATOM     11  C   UNL     1       1.646   4.979  19.615  0.00  0.00    +0.000 C 
ENDROOT
BRANCH   3  12
ATOM     12  C   UNL     1       6.030   5.385  18.192  0.00  0.00    +0.000 C 
ATOM     13  O   UNL     1       6.517   4.304  18.519  0.00  0.00    +0.000 OA
BRANCH  12  14
ATOM     14  C   UNL     1       6.536   6.127  16.957  0.00  0.00    +0.000 C 
BRANCH  14  15
ATOM     15  O   UNL     1       7.393   5.231  16.257  0.00  0.00    +0.000 OA
BRANCH  15  16
ATOM     16  C   UNL     1       6.959   4.746  15.060  0.00  0.00    +0.000 A 
ATOM     17  C   UNL     1       7.648   4.802  13.848  0.00  0.00    +0.000 A 
ATOM     18  C   UNL     1       7.069   4.268  12.691  0.00  0.00    +0.000 A 
ATOM     19  C   UNL     1       5.808   3.677  12.749  0.00  0.00    +0.000 A 
ATOM     20 CL   UNL     1       5.103   3.023  11.323  0.00  0.00    +0.000 Cl
ATOM     21  C   UNL     1       5.116   3.615  13.954  0.00  0.00    +0.000 A 
ATOM     22  C   UNL     1       5.695   4.152  15.106  0.00  0.00    +0.000 A 
ENDBRANCH  15  16
ENDBRANCH  14  15
ENDBRANCH  12  14
ENDBRANCH   3  12
BRANCH   1  23
ATOM     23  C   UNL     1       2.350   7.397  19.532  0.00  0.00    +0.000 C 
BRANCH  23  25
ATOM     24  C   UNL     1       1.593   9.139  17.877  0.00  0.00    +0.000 C 
ATOM     25  C   UNL     1       2.360   8.089  18.203  0.00  0.00    +0.000 C 
ENDBRANCH  23  25
ENDBRANCH   1  23
TORSDOF 6
ENDMDL
MODEL 2
REMARK VINA RESULT:      -7.0      0.704      1.155
REMARK  Name = 
REMARK  6 active torsions:
REMARK  status: ('A' for Active; 'I' for Inactive)
REMARK    1  A    between atoms: C_2  and  C_3
REMARK    2  A    between atoms: C_3  and  N_4
REMARK    3  A    between atoms: N_6  and  C_7
REMARK    4  A    between atoms: C_7  and  C_9
REMARK    5  A    between atoms: C_9  and  O_10
REMARK    6  A    between atoms: O_10  and  C_11
REMARK                            x       y       z     vdW  Elec       q    Type
REMARK                         _______ _______ _______ _____ _____    ______ ____
ROOT
ATOM      1  N   UNL     1       2.623   5.896  19.346  0.00  0.00    +0.000 N 
ATOM      2  C   UNL     1       3.692   5.392  18.640  0.00  0.00    +0.000 C 
ATOM      3  N   UNL     1       4.909   5.783  18.793  0.00  0.00    +0.000 NA
ATOM      4  S   UNL     1       3.124   4.087  17.614  0.00  0.00    +0.000 S 
ATOM      5  C   UNL     1       1.669   3.758  18.642  0.00  0.00    +0.000 C 
ATOM      6  C   UNL     1       1.878   2.449  19.380  0.00  0.00    +0.000 C 
ATOM      7  S   UNL     1       2.446   2.896  21.004  0.00  0.00    +0.000 S 
ATOM      8  O   UNL     1       3.872   3.104  20.959  0.00  0.00    +0.000 OA
ATOM      9  O   UNL     1       1.831   2.000  21.962  0.00  0.00    +0.000 OA
ATOM     10  C   UNL     1       1.624   4.453  21.059  0.00  0.00    +0.000 C 
ATOM     11  C   UNL     1       1.537   4.952  19.618  0.00  0.00    +0.000 C 
ENDROOT
BRANCH   3  12
ATOM     12  C   UNL     1       5.947   5.077  18.225  0.00  0.00    +0.000 C 
ATOM     13  O   UNL     1       6.257   3.913  18.478  0.00  0.00    +0.000 OA
BRANCH  12  14
ATOM     14  C   UNL     1       6.673   5.855  17.130  0.00  0.00    +0.000 C 
BRANCH  14  15
ATOM     15  O   UNL     1       5.765   5.986  16.041  0.00  0.00    +0.000 OA
BRANCH  15  16
ATOM     16  C   UNL     1       5.976   5.205  14.944  0.00  0.00    +0.000 A 
ATOM     17  C   UNL     1       5.074   4.296  14.392  0.00  0.00    +0.000 A 
ATOM     18  C   UNL     1       5.435   3.552  13.263  0.00  0.00    +0.000 A 
ATOM     19  C   UNL     1       6.694   3.721  12.688  0.00  0.00    +0.000 A 
ATOM     20 CL   UNL     1       7.131   2.804  11.301  0.00  0.00    +0.000 Cl
ATOM     21  C   UNL     1       7.598   4.628  13.231  0.00  0.00    +0.000 A 
ATOM     22  C   UNL     1       7.235   5.367  14.360  0.00  0.00    +0.000 A 
ENDBRANCH  15  16
ENDBRANCH  14  15
ENDBRANCH  12  14
ENDBRANCH   3  12
BRANCH   1  23
ATOM     23  C   UNL     1       2.361   7.325  19.434  0.00  0.00    +0.000 C 
BRANCH  23  25
ATOM     24  C   UNL     1       1.828   9.164  17.796  0.00  0.00    +0.000 C 
ATOM     25  C   UNL     1       2.280   7.931  18.066  0.00  0.00    +0.000 C 
ENDBRANCH  23  25
ENDBRANCH   1  23
TORSDOF 6
ENDMDL
MODEL 3
REMARK VINA RESULT:      -6.8      5.289      7.132
REMARK  Name = 
REMARK  6 active torsions:
REMARK  status: ('A' for Active; 'I' for Inactive)
REMARK    1  A    between atoms: C_2  and  C_3
REMARK    2  A    between atoms: C_3  and  N_4
REMARK    3  A    between atoms: N_6  and  C_7
REMARK    4  A    between atoms: C_7  and  C_9
REMARK    5  A    between atoms: C_9  and  O_10
REMARK    6  A    between atoms: O_10  and  C_11
REMARK                            x       y       z     vdW  Elec       q    Type
REMARK                         _______ _______ _______ _____ _____    ______ ____
ROOT
ATOM      1  N   UNL     1       6.405   5.284  16.131  0.00  0.00    +0.000 N 
ATOM      2  C   UNL     1       7.114   6.030  17.045  0.00  0.00    +0.000 C 
ATOM      3  N   UNL     1       7.508   7.240  16.841  0.00  0.00    +0.000 NA
ATOM      4  S   UNL     1       7.280   5.102  18.524  0.00  0.00    +0.000 S 
ATOM      5  C   UNL     1       5.829   4.074  18.176  0.00  0.00    +0.000 C 
ATOM      6  C   UNL     1       4.708   4.477  19.116  0.00  0.00    +0.000 C 
ATOM      7  S   UNL     1       3.670   5.579  18.185  0.00  0.00    +0.000 S 
ATOM      8  O   UNL     1       4.218   6.910  18.260  0.00  0.00    +0.000 OA
ATOM      9  O   UNL     1       2.290   5.297  18.523  0.00  0.00    +0.000 OA
ATOM     10  C   UNL     1       4.034   4.880  16.609  0.00  0.00    +0.000 C 
ATOM     11  C   UNL     1       5.453   4.324  16.696  0.00  0.00    +0.000 C 
ENDROOT
BRANCH   3  12
ATOM     12  C   UNL     1       8.006   7.997  17.880  0.00  0.00    +0.000 C 
ATOM     13  O   UNL     1       8.495   7.564  18.923  0.00  0.00    +0.000 OA
BRANCH  12  14
ATOM     14  C   UNL     1       7.989   9.496  17.591  0.00  0.00    +0.000 C 
BRANCH  14  15
ATOM     15  O   UNL     1       8.843  10.114  18.549  0.00  0.00    +0.000 OA
BRANCH  15  16
ATOM     16  C   UNL     1       9.487  11.256  18.179  0.00  0.00    +0.000 A 
ATOM     17  C   UNL     1      10.815  11.357  17.764  0.00  0.00    +0.000 A 
ATOM     18  C   UNL     1      11.346  12.606  17.423  0.00  0.00    +0.000 A 
ATOM     19  C   UNL     1      10.549  13.748  17.495  0.00  0.00    +0.000 A 
ATOM     20 CL   UNL     1      11.208  15.280  17.075  0.00  0.00    +0.000 Cl
ATOM     21  C   UNL     1       9.224  13.655  17.906  0.00  0.00    +0.000 A 
ATOM     22  C   UNL     1       8.697  12.407  18.248  0.00  0.00    +0.000 A 
ENDBRANCH  15  16
ENDBRANCH  14  15
ENDBRANCH  12  14
ENDBRANCH   3  12
BRANCH   1  23
ATOM     23  C   UNL     1       6.852   5.117  14.756  0.00  0.00    +0.000 C 
BRANCH  23  25
ATOM     24  C   UNL     1       6.172   3.606  12.859  0.00  0.00    +0.000 C 
ATOM     25  C   UNL     1       6.293   3.856  14.170  0.00  0.00    +0.000 C 
ENDBRANCH  23  25
ENDBRANCH   1  23
TORSDOF 6
ENDMDL
MODEL 4
REMARK VINA RESULT:      -6.8      0.995      1.304
REMARK  Name = 
REMARK  6 active torsions:
REMARK  status: ('A' for Active; 'I' for Inactive)
REMARK    1  A    between atoms: C_2  and  C_3
REMARK    2  A    between atoms: C_3  and  N_4
REMARK    3  A    between atoms: N_6  and  C_7
REMARK    4  A    between atoms: C_7  and  C_9
REMARK    5  A    between atoms: C_9  and  O_10
REMARK    6  A    between atoms: O_10  and  C_11
REMARK                            x       y       z     vdW  Elec       q    Type
REMARK                         _______ _______ _______ _____ _____    ______ ____
ROOT
ATOM      1  N   UNL     1       2.577   5.894  19.471  0.00  0.00    +0.000 N 
ATOM      2  C   UNL     1       3.784   5.372  19.067  0.00  0.00    +0.000 C 
ATOM      3  N   UNL     1       4.927   5.752  19.524  0.00  0.00    +0.000 NA
ATOM      4  S   UNL     1       3.483   4.064  17.938  0.00  0.00    +0.000 S 
ATOM      5  C   UNL     1       1.809   3.759  18.560  0.00  0.00    +0.000 C 
ATOM      6  C   UNL     1       1.806   2.455  19.336  0.00  0.00    +0.000 C 
ATOM      7  S   UNL     1       1.944   2.912  21.048  0.00  0.00    +0.000 S 
ATOM      8  O   UNL     1       3.336   3.104  21.369  0.00  0.00    +0.000 OA
ATOM      9  O   UNL     1       1.093   2.032  21.822  0.00  0.00    +0.000 OA
ATOM     10  C   UNL     1       1.155   4.478  20.880  0.00  0.00    +0.000 C 
ATOM     11  C   UNL     1       1.446   4.964  19.462  0.00  0.00    +0.000 C 
ENDROOT
BRANCH   3  12
ATOM     12  C   UNL     1       6.067   5.030  19.245  0.00  0.00    +0.000 C 
ATOM     13  O   UNL     1       6.165   3.803  19.242  0.00  0.00    +0.000 OA
BRANCH  12  14
ATOM     14  C   UNL     1       7.246   5.907  18.831  0.00  0.00    +0.000 C 
BRANCH  14  15
ATOM     15  O   UNL     1       6.861   6.584  17.639  0.00  0.00    +0.000 OA
BRANCH  15  16
ATOM     16  C   UNL     1       6.608   5.827  16.534  0.00  0.00    +0.000 A 
ATOM     17  C   UNL     1       7.358   4.738  16.090  0.00  0.00    +0.000 A 
ATOM     18  C   UNL     1       6.981   4.059  14.926  0.00  0.00    +0.000 A 
ATOM     19  C   UNL     1       5.856   4.469  14.211  0.00  0.00    +0.000 A 
ATOM     20 CL   UNL     1       5.399   3.630  12.781  0.00  0.00    +0.000 Cl
ATOM     21  C   UNL     1       5.103   5.553  14.649  0.00  0.00    +0.000 A 
ATOM     22  C   UNL     1       5.483   6.230  15.810  0.00  0.00    +0.000 A 
ENDBRANCH  15  16
ENDBRANCH  14  15
ENDBRANCH  12  14
ENDBRANCH   3  12
BRANCH   1  23
ATOM     23  C   UNL     1       2.318   7.326  19.479  0.00  0.00    +0.000 C 
BRANCH  23  25
ATOM     24  C   UNL     1       1.697   8.964  17.670  0.00  0.00    +0.000 C 
ATOM     25  C   UNL     1       2.360   7.878  18.087  0.00  0.00    +0.000 C 
ENDBRANCH  23  25
ENDBRANCH   1  23
TORSDOF 6
ENDMDL
MODEL 5
REMARK VINA RESULT:      -6.8      3.519      7.027
REMARK  Name = 
REMARK  6 active torsions:
REMARK  status: ('A' for Active; 'I' for Inactive)
REMARK    1  A    between atoms: C_2  and  C_3
REMARK    2  A    between atoms: C_3  and  N_4
REMARK    3  A    between atoms: N_6  and  C_7
REMARK    4  A    between atoms: C_7  and  C_9
REMARK    5  A    between atoms: C_9  and  O_10
REMARK    6  A    between atoms: O_10  and  C_11
REMARK                            x       y       z     vdW  Elec       q    Type
REMARK                         _______ _______ _______ _____ _____    ______ ____
ROOT
ATOM      1  N   UNL     1       5.804   4.417  16.281  0.00  0.00    +0.000 N 
ATOM      2  C   UNL     1       4.694   5.042  16.802  0.00  0.00    +0.000 C 
ATOM      3  N   UNL     1       3.646   4.423  17.225  0.00  0.00    +0.000 NA
ATOM      4  S   UNL     1       5.004   6.767  16.885  0.00  0.00    +0.000 S 
ATOM      5  C   UNL     1       6.804   6.558  16.912  0.00  0.00    +0.000 C 
ATOM      6  C   UNL     1       7.312   6.882  18.305  0.00  0.00    +0.000 C 
ATOM      7  S   UNL     1       7.503   5.317  19.125  0.00  0.00    +0.000 S 
ATOM      8  O   UNL     1       6.232   4.920  19.676  0.00  0.00    +0.000 OA
ATOM      9  O   UNL     1       8.706   5.371  19.931  0.00  0.00    +0.000 OA
ATOM     10  C   UNL     1       7.829   4.387  17.664  0.00  0.00    +0.000 C 
ATOM     11  C   UNL     1       7.084   5.085  16.528  0.00  0.00    +0.000 C 
ENDROOT
BRANCH   3  12
ATOM     12  C   UNL     1       2.678   5.095  17.940  0.00  0.00    +0.000 C 
ATOM     13  O   UNL     1       1.462   4.934  17.842  0.00  0.00    +0.000 OA
BRANCH  12  14
ATOM     14  C   UNL     1       3.258   6.044  18.987  0.00  0.00    +0.000 C 
BRANCH  14  15
ATOM     15  O   UNL     1       2.157   6.601  19.697  0.00  0.00    +0.000 OA
BRANCH  15  16
ATOM     16  C   UNL     1       1.824   7.896  19.435  0.00  0.00    +0.000 A 
ATOM     17  C   UNL     1       2.026   8.573  18.232  0.00  0.00    +0.000 A 
ATOM     18  C   UNL     1       1.640   9.913  18.113  0.00  0.00    +0.000 A 
ATOM     19  C   UNL     1       1.052  10.571  19.192  0.00  0.00    +0.000 A 
ATOM     20 CL   UNL     1       0.581  12.217  19.038  0.00  0.00    +0.000 Cl
ATOM     21  C   UNL     1       0.845   9.901  20.394  0.00  0.00    +0.000 A 
ATOM     22  C   UNL     1       1.234   8.565  20.511  0.00  0.00    +0.000 A 
ENDBRANCH  15  16
ENDBRANCH  14  15
ENDBRANCH  12  14
ENDBRANCH   3  12
BRANCH   1  23
ATOM     23  C   UNL     1       5.708   3.439  15.208  0.00  0.00    +0.000 C 
BRANCH  23  25
ATOM     24  C   UNL     1       6.093   3.420  12.719  0.00  0.00    +0.000 C 
ATOM     25  C   UNL     1       6.027   4.072  13.888  0.00  0.00    +0.000 C 
ENDBRANCH  23  25
ENDBRANCH   1  23
TORSDOF 6
ENDMDL
MODEL 6
REMARK VINA RESULT:      -6.8      5.131      6.921
REMARK  Name = 
REMARK  6 active torsions:
REMARK  status: ('A' for Active; 'I' for Inactive)
REMARK    1  A    between atoms: C_2  and  C_3
REMARK    2  A    between atoms: C_3  and  N_4
REMARK    3  A    between atoms: N_6  and  C_7
REMARK    4  A    between atoms: C_7  and  C_9
REMARK    5  A    between atoms: C_9  and  O_10
REMARK    6  A    between atoms: O_10  and  C_11
REMARK                            x       y       z     vdW  Elec       q    Type
REMARK                         _______ _______ _______ _____ _____    ______ ____
ROOT
ATOM      1  N   UNL     1       5.445   5.210  16.270  0.00  0.00    +0.000 N 
ATOM      2  C   UNL     1       6.439   5.703  17.084  0.00  0.00    +0.000 C 
ATOM      3  N   UNL     1       6.905   6.902  17.011  0.00  0.00    +0.000 NA
ATOM      4  S   UNL     1       6.860   4.479  18.267  0.00  0.00    +0.000 S 
ATOM      5  C   UNL     1       5.261   3.637  18.133  0.00  0.00    +0.000 C 
ATOM      6  C   UNL     1       4.462   3.903  19.395  0.00  0.00    +0.000 C 
ATOM      7  S   UNL     1       3.358   5.238  18.996  0.00  0.00    +0.000 S 
ATOM      8  O   UNL     1       4.055   6.488  19.168  0.00  0.00    +0.000 OA
ATOM      9  O   UNL     1       2.082   4.977  19.630  0.00  0.00    +0.000 OA
ATOM     10  C   UNL     1       3.237   4.862  17.278  0.00  0.00    +0.000 C 
ATOM     11  C   UNL     1       4.561   4.214  16.879  0.00  0.00    +0.000 C 
ENDROOT
BRANCH   3  12
ATOM     12  C   UNL     1       7.729   7.393  18.001  0.00  0.00    +0.000 C 
ATOM     13  O   UNL     1       8.261   6.735  18.894  0.00  0.00    +0.000 OA
BRANCH  12  14
ATOM     14  C   UNL     1       8.022   8.884  17.852  0.00  0.00    +0.000 C 
BRANCH  14  15
ATOM     15  O   UNL     1       8.884   9.248  18.925  0.00  0.00    +0.000 OA
BRANCH  15  16
ATOM     16  C   UNL     1       9.311  10.541  18.984  0.00  0.00    +0.000 A 
ATOM     17  C   UNL     1       9.431  11.420  17.908  0.00  0.00    +0.000 A 
ATOM     18  C   UNL     1       9.897  12.723  18.120  0.00  0.00    +0.000 A 
ATOM     19  C   UNL     1      10.238  13.143  19.405  0.00  0.00    +0.000 A 
ATOM     20 CL   UNL     1      10.810  14.744  19.659  0.00  0.00    +0.000 Cl
ATOM     21  C   UNL     1      10.120  12.272  20.483  0.00  0.00    +0.000 A 
ATOM     22  C   UNL     1       9.657  10.972  20.268  0.00  0.00    +0.000 A 
ENDBRANCH  15  16
ENDBRANCH  14  15
ENDBRANCH  12  14
ENDBRANCH   3  12
BRANCH   1  23
ATOM     23  C   UNL     1       5.514   5.306  14.820  0.00  0.00    +0.000 C 
BRANCH  23  25
ATOM     24  C   UNL     1       5.969   3.693  12.940  0.00  0.00    +0.000 C 
ATOM     25  C   UNL     1       6.052   4.037  14.232  0.00  0.00    +0.000 C 
ENDBRANCH  23  25
ENDBRANCH   1  23
TORSDOF 6
ENDMDL
MODEL 7
REMARK VINA RESULT:      -6.8      4.724      6.017
REMARK  Name = 
REMARK  6 active torsions:
REMARK  status: ('A' for Active; 'I' for Inactive)
REMARK    1  A    between atoms: C_2  and  C_3
REMARK    2  A    between atoms: C_3  and  N_4
REMARK    3  A    between atoms: N_6  and  C_7
REMARK    4  A    between atoms: C_7  and  C_9
REMARK    5  A    between atoms: C_9  and  O_10
REMARK    6  A    between atoms: O_10  and  C_11
REMARK                            x       y       z     vdW  Elec       q    Type
REMARK                         _______ _______ _______ _____ _____    ______ ____
ROOT
ATOM      1  N   UNL     1       3.694   6.477  17.789  0.00  0.00    +0.000 N 
ATOM      2  C   UNL     1       4.971   6.531  17.277  0.00  0.00    +0.000 C 
ATOM      3  N   UNL     1       5.872   7.365  17.666  0.00  0.00    +0.000 NA
ATOM      4  S   UNL     1       5.169   5.229  16.118  0.00  0.00    +0.000 S 
ATOM      5  C   UNL     1       3.848   4.226  16.846  0.00  0.00    +0.000 C 
ATOM      6  C   UNL     1       4.471   3.044  17.564  0.00  0.00    +0.000 C 
ATOM      7  S   UNL     1       4.542   3.503  19.280  0.00  0.00    +0.000 S 
ATOM      8  O   UNL     1       5.736   4.277  19.507  0.00  0.00    +0.000 OA
ATOM      9  O   UNL     1       4.220   2.336  20.076  0.00  0.00    +0.000 OA
ATOM     10  C   UNL     1       3.144   4.575  19.236  0.00  0.00    +0.000 C 
ATOM     11  C   UNL     1       3.078   5.148  17.822  0.00  0.00    +0.000 C 
ENDROOT
BRANCH   3  12
ATOM     12  C   UNL     1       7.185   7.209  17.275  0.00  0.00    +0.000 C 
ATOM     13  O   UNL     1       7.581   6.557  16.311  0.00  0.00    +0.000 OA
BRANCH  12  14
ATOM     14  C   UNL     1       8.162   8.022  18.121  0.00  0.00    +0.000 C 
BRANCH  14  15
ATOM     15  O   UNL     1       8.051   9.377  17.697  0.00  0.00    +0.000 OA
BRANCH  15  16
ATOM     16  C   UNL     1       8.743  10.318  18.399  0.00  0.00    +0.000 A 
ATOM     17  C   UNL     1       9.386  10.130  19.622  0.00  0.00    +0.000 A 
ATOM     18  C   UNL     1      10.052  11.198  20.233  0.00  0.00    +0.000 A 
ATOM     19  C   UNL     1      10.076  12.450  19.618  0.00  0.00    +0.000 A 
ATOM     20 CL   UNL     1      10.896  13.759  20.374  0.00  0.00    +0.000 Cl
ATOM     21  C   UNL     1       9.439  12.645  18.397  0.00  0.00    +0.000 A 
ATOM     22  C   UNL     1       8.773  11.577  17.792  0.00  0.00    +0.000 A 
ENDBRANCH  15  16
ENDBRANCH  14  15
ENDBRANCH  12  14
ENDBRANCH   3  12
BRANCH   1  23
ATOM     23  C   UNL     1       2.846   7.656  17.876  0.00  0.00    +0.000 C 
BRANCH  23  25
ATOM     24  C   UNL     1       1.450   8.766  19.654  0.00  0.00    +0.000 C 
ATOM     25  C   UNL     1       2.206   7.746  19.228  0.00  0.00    +0.000 C 
ENDBRANCH  23  25
ENDBRANCH   1  23
TORSDOF 6
ENDMDL
MODEL 8
REMARK VINA RESULT:      -6.6      4.753      8.183
REMARK  Name = 
REMARK  6 active torsions:
REMARK  status: ('A' for Active; 'I' for Inactive)
REMARK    1  A    between atoms: C_2  and  C_3
REMARK    2  A    between atoms: C_3  and  N_4
REMARK    3  A    between atoms: N_6  and  C_7
REMARK    4  A    between atoms: C_7  and  C_9
REMARK    5  A    between atoms: C_9  and  O_10
REMARK    6  A    between atoms: O_10  and  C_11
REMARK                            x       y       z     vdW  Elec       q    Type
REMARK                         _______ _______ _______ _____ _____    ______ ____
ROOT
ATOM      1  N   UNL     1       2.959   4.975  19.804  0.00  0.00    +0.000 N 
ATOM      2  C   UNL     1       2.505   6.019  19.029  0.00  0.00    +0.000 C 
ATOM      3  N   UNL     1       2.424   7.239  19.435  0.00  0.00    +0.000 NA
ATOM      4  S   UNL     1       2.175   5.420  17.414  0.00  0.00    +0.000 S 
ATOM      5  C   UNL     1       3.298   4.009  17.583  0.00  0.00    +0.000 C 
ATOM      6  C   UNL     1       4.526   4.256  16.727  0.00  0.00    +0.000 C 
ATOM      7  S   UNL     1       5.768   4.884  17.832  0.00  0.00    +0.000 S 
ATOM      8  O   UNL     1       5.581   6.305  17.983  0.00  0.00    +0.000 OA
ATOM      9  O   UNL     1       7.044   4.313  17.452  0.00  0.00    +0.000 OA
ATOM     10  C   UNL     1       5.168   4.054  19.266  0.00  0.00    +0.000 C 
ATOM     11  C   UNL     1       3.658   3.907  19.085  0.00  0.00    +0.000 C 
ENDROOT
BRANCH   3  12
ATOM     12  C   UNL     1       2.183   8.258  18.539  0.00  0.00    +0.000 C 
ATOM     13  O   UNL     1       2.720   8.402  17.442  0.00  0.00    +0.000 OA
BRANCH  12  14
ATOM     14  C   UNL     1       1.072   9.203  18.992  0.00  0.00    +0.000 C 
BRANCH  14  15
ATOM     15  O   UNL     1       1.049   9.163  20.416  0.00  0.00    +0.000 OA
BRANCH  15  16
ATOM     16  C   UNL     1       0.190  10.004  21.059  0.00  0.00    +0.000 A 
ATOM     17  C   UNL     1      -0.381  11.162  20.531  0.00  0.00    +0.000 A 
ATOM     18  C   UNL     1      -1.243  11.935  21.318  0.00  0.00    +0.000 A 
ATOM     19  C   UNL     1      -1.532  11.548  22.626  0.00  0.00    +0.000 A 
ATOM     20 CL   UNL     1      -2.591  12.503  23.587  0.00  0.00    +0.000 Cl
ATOM     21  C   UNL     1      -0.968  10.393  23.157  0.00  0.00    +0.000 A 
ATOM     22  C   UNL     1      -0.107   9.625  22.371  0.00  0.00    +0.000 A 
ENDBRANCH  15  16
ENDBRANCH  14  15
ENDBRANCH  12  14
ENDBRANCH   3  12
BRANCH   1  23
ATOM     23  C   UNL     1       2.423   4.707  21.130  0.00  0.00    +0.000 C 
BRANCH  23  25
ATOM     24  C   UNL     1       1.453   2.479  21.792  0.00  0.00    +0.000 C 
ATOM     25  C   UNL     1       1.405   3.610  21.075  0.00  0.00    +0.000 C 
ENDBRANCH  23  25
ENDBRANCH   1  23
TORSDOF 6
ENDMDL
MODEL 9
REMARK VINA RESULT:      -6.6      4.372      7.655
REMARK  Name = 
REMARK  6 active torsions:
REMARK  status: ('A' for Active; 'I' for Inactive)
REMARK    1  A    between atoms: C_2  and  C_3
REMARK    2  A    between atoms: C_3  and  N_4
REMARK    3  A    between atoms: N_6  and  C_7
REMARK    4  A    between atoms: C_7  and  C_9
REMARK    5  A    between atoms: C_9  and  O_10
REMARK    6  A    between atoms: O_10  and  C_11
REMARK                            x       y       z     vdW  Elec       q    Type
REMARK                         _______ _______ _______ _____ _____    ______ ____
ROOT
ATOM      1  N   UNL     1       3.012   4.883  19.867  0.00  0.00    +0.000 N 
ATOM      2  C   UNL     1       2.526   5.936  19.126  0.00  0.00    +0.000 C 
ATOM      3  N   UNL     1       2.430   7.144  19.562  0.00  0.00    +0.000 NA
ATOM      4  S   UNL     1       2.181   5.370  17.502  0.00  0.00    +0.000 S 
ATOM      5  C   UNL     1       3.333   3.977  17.619  0.00  0.00    +0.000 C 
ATOM      6  C   UNL     1       4.541   4.267  16.749  0.00  0.00    +0.000 C 
ATOM      7  S   UNL     1       5.789   4.892  17.850  0.00  0.00    +0.000 S 
ATOM      8  O   UNL     1       5.579   6.306  18.039  0.00  0.00    +0.000 OA
ATOM      9  O   UNL     1       7.069   4.354  17.436  0.00  0.00    +0.000 OA
ATOM     10  C   UNL     1       5.228   4.017  19.273  0.00  0.00    +0.000 C 
ATOM     11  C   UNL     1       3.719   3.846  19.112  0.00  0.00    +0.000 C 
ENDROOT
BRANCH   3  12
ATOM     12  C   UNL     1       2.155   8.180  18.695  0.00  0.00    +0.000 C 
ATOM     13  O   UNL     1       2.688   8.373  17.604  0.00  0.00    +0.000 OA
BRANCH  12  14
ATOM     14  C   UNL     1       1.013   9.074  19.174  0.00  0.00    +0.000 C 
BRANCH  14  15
ATOM     15  O   UNL     1       0.556   9.806  18.041  0.00  0.00    +0.000 OA
BRANCH  15  16
ATOM     16  C   UNL     1      -0.731  10.254  18.054  0.00  0.00    +0.000 A 
ATOM     17  C   UNL     1      -1.773   9.793  17.248  0.00  0.00    +0.000 A 
ATOM     18  C   UNL     1      -3.048  10.359  17.366  0.00  0.00    +0.000 A 
ATOM     19  C   UNL     1      -3.278  11.379  18.288  0.00  0.00    +0.000 A 
ATOM     20 CL   UNL     1      -4.846  12.070  18.428  0.00  0.00    +0.000 Cl
ATOM     21  C   UNL     1      -2.244  11.842  19.096  0.00  0.00    +0.000 A 
ATOM     22  C   UNL     1      -0.972  11.278  18.974  0.00  0.00    +0.000 A 
ENDBRANCH  15  16
ENDBRANCH  14  15
ENDBRANCH  12  14
ENDBRANCH   3  12
BRANCH   1  23
ATOM     23  C   UNL     1       2.503   4.573  21.195  0.00  0.00    +0.000 C 
BRANCH  23  25
ATOM     24  C   UNL     1       1.356   2.420  21.824  0.00  0.00    +0.000 C 
ATOM     25  C   UNL     1       1.406   3.556  21.115  0.00  0.00    +0.000 C 
ENDBRANCH  23  25
ENDBRANCH   1  23
TORSDOF 6
ENDMDL
