MODEL 1
REMARK VINA RESULT:      -6.3      0.000      0.000
REMARK  Name = 
REMARK  5 active torsions:
REMARK  status: ('A' for Active; 'I' for Inactive)
REMARK    1  A    between atoms: C_1  and  C_2
REMARK    2  A    between atoms: C_2  and  C_3
REMARK    3  A    between atoms: C_7  and  C_8
REMARK    4  A    between atoms: N_13  and  C_14
REMARK    5  A    between atoms: C_14  and  C_15
REMARK                            x       y       z     vdW  Elec       q    Type
REMARK                         _______ _______ _______ _____ _____    ______ ____
ROOT
ATOM      1  C   UNL     1       5.209   5.136  19.093  0.00  0.00    +0.000 C 
ATOM      2  O   UNL     1       6.079   5.532  19.871  0.00  0.00    +0.000 OA
ATOM      3  N   UNL     1       5.507   5.079  17.727  0.00  0.00    +0.000 N 
ATOM      4  C   UNL     1       6.885   5.308  17.291  0.00  0.00    +0.000 C 
ATOM      5  C   UNL     1       7.318   4.229  16.279  0.00  0.00    +0.000 C 
ATOM      6  N   UNL     1       6.395   3.952  15.148  0.00  0.00    +0.000 NA
ATOM      7  C   UNL     1       4.978   3.968  15.583  0.00  0.00    +0.000 C 
ATOM      8  C   UNL     1       4.572   5.055  16.608  0.00  0.00    +0.000 C 
ENDROOT
BRANCH   1  13
ATOM      9  C   UNL     1       2.701   5.398  19.844  0.00  0.00    +0.000 A 
ATOM     10  C   UNL     1       1.660   4.494  20.260  0.00  0.00    +0.000 A 
ATOM     11  C   UNL     1       2.037   3.176  20.210  0.00  0.00    +0.000 A 
ATOM     12  S   UNL     1       3.670   3.003  19.774  0.00  0.00    +0.000 S 
ATOM     13  C   UNL     1       3.891   4.709  19.595  0.00  0.00    +0.000 A 
BRANCH   9  15
ATOM     14  C   UNL     1       2.392   7.377  18.254  0.00  0.00    +0.000 C 
ATOM     15  C   UNL     1       2.481   6.878  19.686  0.00  0.00    +0.000 C 
ENDBRANCH   9  15
ENDBRANCH   1  13
BRANCH   6  16
ATOM     16  C   UNL     1       6.608   4.848  13.992  0.00  0.00    +0.000 C 
BRANCH  16  17
ATOM     17  C   UNL     1       6.837   4.063  12.695  0.00  0.00    +0.000 C 
ATOM     18  N   UNL     1       6.222   2.843  12.621  0.00  0.00    +0.000 N 
ATOM     19  O   UNL     1       7.474   4.508  11.745  0.00  0.00    +0.000 OA
ATOM     20  H   UNL     1       5.863   2.425  13.471  0.00  0.00    +0.000 HD
ATOM     21  H   UNL     1       6.409   2.261  11.816  0.00  0.00    +0.000 HD
ENDBRANCH  16  17
ENDBRANCH   6  16
TORSDOF 4
ENDMDL
MODEL 2
REMARK VINA RESULT:      -6.2      1.216      2.032
REMARK  Name = 
REMARK  5 active torsions:
REMARK  status: ('A' for Active; 'I' for Inactive)
REMARK    1  A    between atoms: C_1  and  C_2
REMARK    2  A    between atoms: C_2  and  C_3
REMARK    3  A    between atoms: C_7  and  C_8
REMARK    4  A    between atoms: N_13  and  C_14
REMARK    5  A    between atoms: C_14  and  C_15
REMARK                            x       y       z     vdW  Elec       q    Type
REMARK                         _______ _______ _______ _____ _____    ______ ____
ROOT
ATOM      1  C   UNL     1       5.167   5.195  19.050  0.00  0.00    +0.000 C 
ATOM      2  O   UNL     1       6.035   5.550  19.850  0.00  0.00    +0.000 OA
ATOM      3  N   UNL     1       5.494   5.133  17.692  0.00  0.00    +0.000 N 
ATOM      4  C   UNL     1       6.890   5.305  17.289  0.00  0.00    +0.000 C 
ATOM      5  C   UNL     1       7.300   4.214  16.279  0.00  0.00    +0.000 C 
ATOM      6  N   UNL     1       6.393   3.983  15.126  0.00  0.00    +0.000 NA
ATOM      7  C   UNL     1       4.969   4.057  15.529  0.00  0.00    +0.000 C 
ATOM      8  C   UNL     1       4.586   5.155  16.551  0.00  0.00    +0.000 C 
ENDROOT
BRANCH   1  13
ATOM      9  C   UNL     1       3.233   3.597  19.842  0.00  0.00    +0.000 A 
ATOM     10  C   UNL     1       1.892   3.783  20.335  0.00  0.00    +0.000 A 
ATOM     11  C   UNL     1       1.547   5.102  20.476  0.00  0.00    +0.000 A 
ATOM     12  S   UNL     1       2.772   6.139  19.919  0.00  0.00    +0.000 S 
ATOM     13  C   UNL     1       3.821   4.823  19.519  0.00  0.00    +0.000 A 
BRANCH   9  15
ATOM     14  C   UNL     1       3.624   1.494  18.440  0.00  0.00    +0.000 C 
ATOM     15  C   UNL     1       3.883   2.244  19.735  0.00  0.00    +0.000 C 
ENDBRANCH   9  15
ENDBRANCH   1  13
BRANCH   6  16
ATOM     16  C   UNL     1       6.671   4.875  13.981  0.00  0.00    +0.000 C 
BRANCH  16  17
ATOM     17  C   UNL     1       6.865   4.089  12.678  0.00  0.00    +0.000 C 
ATOM     18  N   UNL     1       6.247   2.871  12.621  0.00  0.00    +0.000 N 
ATOM     19  O   UNL     1       7.478   4.533  11.712  0.00  0.00    +0.000 OA
ATOM     20  H   UNL     1       5.909   2.453  13.479  0.00  0.00    +0.000 HD
ATOM     21  H   UNL     1       6.412   2.288  11.811  0.00  0.00    +0.000 HD
ENDBRANCH  16  17
ENDBRANCH   6  16
TORSDOF 4
ENDMDL
MODEL 3
REMARK VINA RESULT:      -5.9      1.162      1.309
REMARK  Name = 
REMARK  5 active torsions:
REMARK  status: ('A' for Active; 'I' for Inactive)
REMARK    1  A    between atoms: C_1  and  C_2
REMARK    2  A    between atoms: C_2  and  C_3
REMARK    3  A    between atoms: C_7  and  C_8
REMARK    4  A    between atoms: N_13  and  C_14
REMARK    5  A    between atoms: C_14  and  C_15
REMARK                            x       y       z     vdW  Elec       q    Type
REMARK                         _______ _______ _______ _____ _____    ______ ____
ROOT
ATOM      1  C   UNL     1       4.706   4.198  19.203  0.00  0.00    +0.000 C 
ATOM      2  O   UNL     1       5.433   4.300  20.193  0.00  0.00    +0.000 OA
ATOM      3  N   UNL     1       5.210   4.587  17.958  0.00  0.00    +0.000 N 
ATOM      4  C   UNL     1       6.630   4.920  17.840  0.00  0.00    +0.000 C 
ATOM      5  C   UNL     1       7.248   4.226  16.610  0.00  0.00    +0.000 C 
ATOM      6  N   UNL     1       6.519   4.354  15.323  0.00  0.00    +0.000 NA
ATOM      7  C   UNL     1       5.052   4.253  15.514  0.00  0.00    +0.000 C 
ATOM      8  C   UNL     1       4.459   4.950  16.762  0.00  0.00    +0.000 C 
ENDROOT
BRANCH   1  13
ATOM      9  C   UNL     1       2.150   4.185  19.828  0.00  0.00    +0.000 A 
ATOM     10  C   UNL     1       1.058   3.264  19.646  0.00  0.00    +0.000 A 
ATOM     11  C   UNL     1       1.410   2.144  18.935  0.00  0.00    +0.000 A 
ATOM     12  S   UNL     1       3.069   2.123  18.572  0.00  0.00    +0.000 S 
ATOM     13  C   UNL     1       3.341   3.655  19.327  0.00  0.00    +0.000 A 
BRANCH   9  15
ATOM     14  C   UNL     1       2.370   6.722  19.585  0.00  0.00    +0.000 C 
ATOM     15  C   UNL     1       1.976   5.542  20.456  0.00  0.00    +0.000 C 
ENDBRANCH   9  15
ENDBRANCH   1  13
BRANCH   6  16
ATOM     16  C   UNL     1       6.875   5.576  14.572  0.00  0.00    +0.000 C 
BRANCH  16  17
ATOM     17  C   UNL     1       7.730   5.259  13.338  0.00  0.00    +0.000 C 
ATOM     18  N   UNL     1       7.227   4.310  12.493  0.00  0.00    +0.000 N 
ATOM     19  O   UNL     1       8.771   5.853  13.073  0.00  0.00    +0.000 OA
ATOM     20  H   UNL     1       6.476   3.713  12.819  0.00  0.00    +0.000 HD
ATOM     21  H   UNL     1       7.795   4.017  11.710  0.00  0.00    +0.000 HD
ENDBRANCH  16  17
ENDBRANCH   6  16
TORSDOF 4
ENDMDL
MODEL 4
REMARK VINA RESULT:      -5.9      1.020      1.060
REMARK  Name = 
REMARK  5 active torsions:
REMARK  status: ('A' for Active; 'I' for Inactive)
REMARK    1  A    between atoms: C_1  and  C_2
REMARK    2  A    between atoms: C_2  and  C_3
REMARK    3  A    between atoms: C_7  and  C_8
REMARK    4  A    between atoms: N_13  and  C_14
REMARK    5  A    between atoms: C_14  and  C_15
REMARK                            x       y       z     vdW  Elec       q    Type
REMARK                         _______ _______ _______ _____ _____    ______ ____
ROOT
ATOM      1  C   UNL     1       5.436   4.785  19.141  0.00  0.00    +0.000 C 
ATOM      2  O   UNL     1       6.336   5.056  19.938  0.00  0.00    +0.000 OA
ATOM      3  N   UNL     1       5.668   4.980  17.776  0.00  0.00    +0.000 N 
ATOM      4  C   UNL     1       7.020   5.313  17.327  0.00  0.00    +0.000 C 
ATOM      5  C   UNL     1       7.420   4.443  16.118  0.00  0.00    +0.000 C 
ATOM      6  N   UNL     1       6.448   4.351  14.999  0.00  0.00    +0.000 NA
ATOM      7  C   UNL     1       5.054   4.257  15.493  0.00  0.00    +0.000 C 
ATOM      8  C   UNL     1       4.682   5.135  16.713  0.00  0.00    +0.000 C 
ENDROOT
BRANCH   1  13
ATOM      9  C   UNL     1       2.920   4.841  19.907  0.00  0.00    +0.000 A 
ATOM     10  C   UNL     1       1.940   3.849  20.269  0.00  0.00    +0.000 A 
ATOM     11  C   UNL     1       2.399   2.563  20.139  0.00  0.00    +0.000 A 
ATOM     12  S   UNL     1       4.038   2.521  19.693  0.00  0.00    +0.000 S 
ATOM     13  C   UNL     1       4.150   4.246  19.617  0.00  0.00    +0.000 A 
BRANCH   9  15
ATOM     14  C   UNL     1       2.250   6.841  18.460  0.00  0.00    +0.000 C 
ATOM     15  C   UNL     1       2.605   6.311  19.838  0.00  0.00    +0.000 C 
ENDBRANCH   9  15
ENDBRANCH   1  13
BRANCH   6  16
ATOM     16  C   UNL     1       6.592   5.444  14.014  0.00  0.00    +0.000 C 
BRANCH  16  17
ATOM     17  C   UNL     1       7.614   5.099  12.923  0.00  0.00    +0.000 C 
ATOM     18  N   UNL     1       8.794   5.787  12.975  0.00  0.00    +0.000 N 
ATOM     19  O   UNL     1       7.430   4.220  12.087  0.00  0.00    +0.000 OA
ATOM     20  H   UNL     1       8.850   6.620  13.547  0.00  0.00    +0.000 HD
ATOM     21  H   UNL     1       9.463   5.645  12.230  0.00  0.00    +0.000 HD
ENDBRANCH  16  17
ENDBRANCH   6  16
TORSDOF 4
ENDMDL
MODEL 5
REMARK VINA RESULT:      -5.8      2.953      3.799
REMARK  Name = 
REMARK  5 active torsions:
REMARK  status: ('A' for Active; 'I' for Inactive)
REMARK    1  A    between atoms: C_1  and  C_2
REMARK    2  A    between atoms: C_2  and  C_3
REMARK    3  A    between atoms: C_7  and  C_8
REMARK    4  A    between atoms: N_13  and  C_14
REMARK    5  A    between atoms: C_14  and  C_15
REMARK                            x       y       z     vdW  Elec       q    Type
REMARK                         _______ _______ _______ _____ _____    ______ ____
ROOT
ATOM      1  C   UNL     1       3.839   2.642  18.347  0.00  0.00    +0.000 C 
ATOM      2  O   UNL     1       3.776   1.634  17.640  0.00  0.00    +0.000 OA
ATOM      3  N   UNL     1       4.768   3.634  18.018  0.00  0.00    +0.000 N 
ATOM      4  C   UNL     1       5.495   3.534  16.752  0.00  0.00    +0.000 C 
ATOM      5  C   UNL     1       5.481   4.886  16.012  0.00  0.00    +0.000 C 
ATOM      6  N   UNL     1       5.854   6.091  16.795  0.00  0.00    +0.000 NA
ATOM      7  C   UNL     1       5.296   6.044  18.167  0.00  0.00    +0.000 C 
ATOM      8  C   UNL     1       5.313   4.672  18.885  0.00  0.00    +0.000 C 
ENDROOT
BRANCH   1  13
ATOM      9  C   UNL     1       1.601   3.196  19.613  0.00  0.00    +0.000 A 
ATOM     10  C   UNL     1       1.154   3.119  20.981  0.00  0.00    +0.000 A 
ATOM     11  C   UNL     1       2.093   2.584  21.825  0.00  0.00    +0.000 A 
ATOM     12  S   UNL     1       3.557   2.270  21.024  0.00  0.00    +0.000 S 
ATOM     13  C   UNL     1       2.937   2.807  19.501  0.00  0.00    +0.000 A 
BRANCH   9  15
ATOM     14  C   UNL     1       1.301   4.612  17.504  0.00  0.00    +0.000 C 
ATOM     15  C   UNL     1       0.700   3.620  18.484  0.00  0.00    +0.000 C 
ENDBRANCH   9  15
ENDBRANCH   1  13
BRANCH   6  16
ATOM     16  C   UNL     1       7.311   6.339  16.821  0.00  0.00    +0.000 C 
BRANCH  16  17
ATOM     17  C   UNL     1       7.667   7.563  17.675  0.00  0.00    +0.000 C 
ATOM     18  N   UNL     1       8.429   7.313  18.783  0.00  0.00    +0.000 N 
ATOM     19  O   UNL     1       7.355   8.709  17.367  0.00  0.00    +0.000 OA
ATOM     20  H   UNL     1       8.517   6.359  19.111  0.00  0.00    +0.000 HD
ATOM     21  H   UNL     1       8.621   8.080  19.413  0.00  0.00    +0.000 HD
ENDBRANCH  16  17
ENDBRANCH   6  16
TORSDOF 4
ENDMDL
MODEL 6
REMARK VINA RESULT:      -5.7      2.803      3.646
REMARK  Name = 
REMARK  5 active torsions:
REMARK  status: ('A' for Active; 'I' for Inactive)
REMARK    1  A    between atoms: C_1  and  C_2
REMARK    2  A    between atoms: C_2  and  C_3
REMARK    3  A    between atoms: C_7  and  C_8
REMARK    4  A    between atoms: N_13  and  C_14
REMARK    5  A    between atoms: C_14  and  C_15
REMARK                            x       y       z     vdW  Elec       q    Type
REMARK                         _______ _______ _______ _____ _____    ______ ____
ROOT
ATOM      1  C   UNL     1       3.801   3.312  18.096  0.00  0.00    +0.000 C 
ATOM      2  O   UNL     1       3.743   2.292  17.407  0.00  0.00    +0.000 OA
ATOM      3  N   UNL     1       4.800   4.252  17.820  0.00  0.00    +0.000 N 
ATOM      4  C   UNL     1       5.615   4.088  16.616  0.00  0.00    +0.000 C 
ATOM      5  C   UNL     1       5.723   5.421  15.850  0.00  0.00    +0.000 C 
ATOM      6  N   UNL     1       6.094   6.625  16.636  0.00  0.00    +0.000 NA
ATOM      7  C   UNL     1       5.432   6.637  17.961  0.00  0.00    +0.000 C 
ATOM      8  C   UNL     1       5.327   5.284  18.705  0.00  0.00    +0.000 C 
ENDROOT
BRANCH   1  13
ATOM      9  C   UNL     1       1.986   4.622  19.479  0.00  0.00    +0.000 A 
ATOM     10  C   UNL     1       1.149   4.319  20.611  0.00  0.00    +0.000 A 
ATOM     11  C   UNL     1       1.284   3.027  21.051  0.00  0.00    +0.000 A 
ATOM     12  S   UNL     1       2.490   2.191  20.195  0.00  0.00    +0.000 S 
ATOM     13  C   UNL     1       2.823   3.547  19.174  0.00  0.00    +0.000 A 
BRANCH   9  15
ATOM     14  C   UNL     1       2.205   7.169  19.564  0.00  0.00    +0.000 C 
ATOM     15  C   UNL     1       1.913   5.929  18.737  0.00  0.00    +0.000 C 
ENDBRANCH   9  15
ENDBRANCH   1  13
BRANCH   6  16
ATOM     16  C   UNL     1       7.555   6.805  16.769  0.00  0.00    +0.000 C 
BRANCH  16  17
ATOM     17  C   UNL     1       7.907   7.868  17.818  0.00  0.00    +0.000 C 
ATOM     18  N   UNL     1       8.501   7.404  18.959  0.00  0.00    +0.000 N 
ATOM     19  O   UNL     1       7.734   9.070  17.639  0.00  0.00    +0.000 OA
ATOM     20  H   UNL     1       8.465   6.412  19.160  0.00  0.00    +0.000 HD
ATOM     21  H   UNL     1       8.678   8.061  19.707  0.00  0.00    +0.000 HD
ENDBRANCH  16  17
ENDBRANCH   6  16
TORSDOF 4
ENDMDL
MODEL 7
REMARK VINA RESULT:      -5.7      3.111      6.625
REMARK  Name = 
REMARK  5 active torsions:
REMARK  status: ('A' for Active; 'I' for Inactive)
REMARK    1  A    between atoms: C_1  and  C_2
REMARK    2  A    between atoms: C_2  and  C_3
REMARK    3  A    between atoms: C_7  and  C_8
REMARK    4  A    between atoms: N_13  and  C_14
REMARK    5  A    between atoms: C_14  and  C_15
REMARK                            x       y       z     vdW  Elec       q    Type
REMARK                         _______ _______ _______ _____ _____    ______ ____
ROOT
ATOM      1  C   UNL     1       4.406   6.511  17.112  0.00  0.00    +0.000 C 
ATOM      2  O   UNL     1       3.913   7.579  16.743  0.00  0.00    +0.000 OA
ATOM      3  N   UNL     1       3.852   5.865  18.221  0.00  0.00    +0.000 N 
ATOM      4  C   UNL     1       2.602   6.372  18.787  0.00  0.00    +0.000 C 
ATOM      5  C   UNL     1       1.613   5.216  19.038  0.00  0.00    +0.000 C 
ATOM      6  N   UNL     1       2.130   4.027  19.761  0.00  0.00    +0.000 NA
ATOM      7  C   UNL     1       3.506   3.683  19.332  0.00  0.00    +0.000 C 
ATOM      8  C   UNL     1       4.476   4.863  19.077  0.00  0.00    +0.000 C 
ENDROOT
BRANCH   1  13
ATOM      9  C   UNL     1       6.925   6.002  16.549  0.00  0.00    +0.000 A 
ATOM     10  C   UNL     1       7.610   5.155  15.607  0.00  0.00    +0.000 A 
ATOM     11  C   UNL     1       6.760   4.388  14.852  0.00  0.00    +0.000 A 
ATOM     12  S   UNL     1       5.131   4.748  15.175  0.00  0.00    +0.000 S 
ATOM     13  C   UNL     1       5.541   5.917  16.383  0.00  0.00    +0.000 A 
BRANCH   9  15
ATOM     14  C   UNL     1       7.892   6.150  18.912  0.00  0.00    +0.000 C 
ATOM     15  C   UNL     1       7.648   6.830  17.576  0.00  0.00    +0.000 C 
ENDBRANCH   9  15
ENDBRANCH   1  13
BRANCH   6  16
ATOM     16  C   UNL     1       2.048   4.160  21.231  0.00  0.00    +0.000 C 
BRANCH  16  17
ATOM     17  C   UNL     1       2.102   2.796  21.932  0.00  0.00    +0.000 C 
ATOM     18  N   UNL     1       0.909   2.321  22.400  0.00  0.00    +0.000 N 
ATOM     19  O   UNL     1       3.128   2.128  22.020  0.00  0.00    +0.000 OA
ATOM     20  H   UNL     1       0.126   2.958  22.480  0.00  0.00    +0.000 HD
ATOM     21  H   UNL     1       0.913   1.463  22.935  0.00  0.00    +0.000 HD
ENDBRANCH  16  17
ENDBRANCH   6  16
TORSDOF 4
ENDMDL
MODEL 8
REMARK VINA RESULT:      -5.7      3.087      6.131
REMARK  Name = 
REMARK  5 active torsions:
REMARK  status: ('A' for Active; 'I' for Inactive)
REMARK    1  A    between atoms: C_1  and  C_2
REMARK    2  A    between atoms: C_2  and  C_3
REMARK    3  A    between atoms: C_7  and  C_8
REMARK    4  A    between atoms: N_13  and  C_14
REMARK    5  A    between atoms: C_14  and  C_15
REMARK                            x       y       z     vdW  Elec       q    Type
REMARK                         _______ _______ _______ _____ _____    ______ ____
ROOT
ATOM      1  C   UNL     1       5.235   4.210  16.638  0.00  0.00    +0.000 C 
ATOM      2  O   UNL     1       5.376   3.676  15.536  0.00  0.00    +0.000 OA
ATOM      3  N   UNL     1       4.282   3.688  17.518  0.00  0.00    +0.000 N 
ATOM      4  C   UNL     1       3.623   2.425  17.185  0.00  0.00    +0.000 C 
ATOM      5  C   UNL     1       3.615   1.481  18.403  0.00  0.00    +0.000 C 
ATOM      6  N   UNL     1       3.152   2.047  19.696  0.00  0.00    +0.000 NA
ATOM      7  C   UNL     1       3.644   3.431  19.893  0.00  0.00    +0.000 C 
ATOM      8  C   UNL     1       3.651   4.356  18.651  0.00  0.00    +0.000 C 
ENDROOT
BRANCH   1  13
ATOM      9  C   UNL     1       5.872   6.741  16.971  0.00  0.00    +0.000 A 
ATOM     10  C   UNL     1       6.981   7.446  17.559  0.00  0.00    +0.000 A 
ATOM     11  C   UNL     1       7.911   6.613  18.128  0.00  0.00    +0.000 A 
ATOM     12  S   UNL     1       7.531   4.977  17.872  0.00  0.00    +0.000 S 
ATOM     13  C   UNL     1       6.071   5.359  17.027  0.00  0.00    +0.000 A 
BRANCH   9  15
ATOM     14  C   UNL     1       3.505   7.624  17.374  0.00  0.00    +0.000 C 
ATOM     15  C   UNL     1       4.664   7.442  16.410  0.00  0.00    +0.000 C 
ENDBRANCH   9  15
ENDBRANCH   1  13
BRANCH   6  16
ATOM     16  C   UNL     1       1.686   1.972  19.871  0.00  0.00    +0.000 C 
BRANCH  16  17
ATOM     17  C   UNL     1       1.183   2.981  20.912  0.00  0.00    +0.000 C 
ATOM     18  N   UNL     1       1.438   2.665  22.217  0.00  0.00    +0.000 N 
ATOM     19  O   UNL     1       0.642   4.040  20.611  0.00  0.00    +0.000 OA
ATOM     20  H   UNL     1       1.714   1.718  22.447  0.00  0.00    +0.000 HD
ATOM     21  H   UNL     1       1.057   3.264  22.937  0.00  0.00    +0.000 HD
ENDBRANCH  16  17
ENDBRANCH   6  16
TORSDOF 4
ENDMDL
MODEL 9
REMARK VINA RESULT:      -5.7      3.103      6.231
REMARK  Name = 
REMARK  5 active torsions:
REMARK  status: ('A' for Active; 'I' for Inactive)
REMARK    1  A    between atoms: C_1  and  C_2
REMARK    2  A    between atoms: C_2  and  C_3
REMARK    3  A    between atoms: C_7  and  C_8
REMARK    4  A    between atoms: N_13  and  C_14
REMARK    5  A    between atoms: C_14  and  C_15
REMARK                            x       y       z     vdW  Elec       q    Type
REMARK                         _______ _______ _______ _____ _____    ______ ____
ROOT
ATOM      1  C   UNL     1       4.351   5.777  17.168  0.00  0.00    +0.000 C 
ATOM      2  O   UNL     1       3.937   6.922  17.364  0.00  0.00    +0.000 OA
ATOM      3  N   UNL     1       3.660   4.707  17.743  0.00  0.00    +0.000 N 
ATOM      4  C   UNL     1       2.374   4.960  18.394  0.00  0.00    +0.000 C 
ATOM      5  C   UNL     1       1.325   3.925  17.941  0.00  0.00    +0.000 C 
ATOM      6  N   UNL     1       1.721   2.495  17.987  0.00  0.00    +0.000 NA
ATOM      7  C   UNL     1       3.123   2.302  17.547  0.00  0.00    +0.000 C 
ATOM      8  C   UNL     1       4.154   3.361  18.007  0.00  0.00    +0.000 C 
ENDROOT
BRANCH   1  13
ATOM      9  C   UNL     1       6.900   5.778  16.517  0.00  0.00    +0.000 A 
ATOM     10  C   UNL     1       7.670   5.289  15.403  0.00  0.00    +0.000 A 
ATOM     11  C   UNL     1       6.913   4.617  14.477  0.00  0.00    +0.000 A 
ATOM     12  S   UNL     1       5.260   4.656  14.866  0.00  0.00    +0.000 S 
ATOM     13  C   UNL     1       5.537   5.543  16.325  0.00  0.00    +0.000 A 
BRANCH   9  15
ATOM     14  C   UNL     1       7.759   7.923  17.614  0.00  0.00    +0.000 C 
ATOM     15  C   UNL     1       7.529   6.426  17.721  0.00  0.00    +0.000 C 
ENDBRANCH   9  15
ENDBRANCH   1  13
BRANCH   6  16
ATOM     16  C   UNL     1       1.487   1.869  19.306  0.00  0.00    +0.000 C 
BRANCH  16  17
ATOM     17  C   UNL     1       1.809   2.829  20.459  0.00  0.00    +0.000 C 
ATOM     18  N   UNL     1       0.757   3.561  20.935  0.00  0.00    +0.000 N 
ATOM     19  O   UNL     1       2.918   2.904  20.978  0.00  0.00    +0.000 OA
ATOM     20  H   UNL     1      -0.089   3.619  20.381  0.00  0.00    +0.000 HD
ATOM     21  H   UNL     1       0.942   4.260  21.642  0.00  0.00    +0.000 HD
ENDBRANCH  16  17
ENDBRANCH   6  16
TORSDOF 4
ENDMDL
