MODEL 1
REMARK VINA RESULT:      -6.7      0.000      0.000
REMARK  Name = 
REMARK  14 active torsions:
REMARK  status: ('A' for Active; 'I' for Inactive)
REMARK    1  A    between atoms: C_1  and  C_2
REMARK    2  A    between atoms: C_2  and  C_3
REMARK    3  A    between atoms: C_2  and  N_24
REMARK    4  A    between atoms: C_3  and  C_4
REMARK    5  A    between atoms: N_6  and  C_7
REMARK    6  A    between atoms: C_10  and  N_11
REMARK    7  A    between atoms: C_12  and  C_14
REMARK    8  A    between atoms: C_14  and  C_15
REMARK    9  A    between atoms: C_15  and  C_16
REMARK   10  A    between atoms: C_15  and  N_17
REMARK   11  A    between atoms: N_18  and  C_19
REMARK   12  A    between atoms: C_19  and  N_20
REMARK   13  A    between atoms: N_25  and  C_26
REMARK   14  A    between atoms: C_26  and  N_27
REMARK                            x       y       z     vdW  Elec       q    Type
REMARK                         _______ _______ _______ _____ _____    ______ ____
ROOT
ATOM      1  C   UNL     1       2.551   6.321  18.643  0.00  0.00    +0.000 A 
ATOM      2  C   UNL     1       2.079   5.976  19.912  0.00  0.00    +0.000 A 
ATOM      3  C   UNL     1       1.511   6.936  20.749  0.00  0.00    +0.000 A 
ATOM      4  C   UNL     1       1.475   8.265  20.349  0.00  0.00    +0.000 A 
ATOM      5  C   UNL     1       1.955   8.631  19.089  0.00  0.00    +0.000 A 
ATOM      6  C   UNL     1       2.485   7.658  18.235  0.00  0.00    +0.000 A 
ENDROOT
BRANCH   1   9
ATOM      7  C   UNL     1       4.108   4.460  18.055  0.00  0.00    +0.000 C 
ATOM      8  O   UNL     1       4.571   4.209  19.166  0.00  0.00    +0.000 OA
ATOM      9  N   UNL     1       3.125   5.387  17.757  0.00  0.00    +0.000 N 
ATOM     10  H   UNL     1       2.746   5.384  16.816  0.00  0.00    +0.000 HD
BRANCH   7  11
ATOM     11  C   UNL     1       4.646   3.748  16.837  0.00  0.00    +0.000 C 
BRANCH  11  13
ATOM     12  C   UNL     1       5.474   4.588  14.607  0.00  0.00    +0.000 C 
ATOM     13  C   UNL     1       5.682   4.628  16.127  0.00  0.00    +0.000 C 
BRANCH  13  14
ATOM     14  N   UNL     1       7.015   4.051  16.379  0.00  0.00    +0.000 NA
ATOM     15  N   UNL     1       7.881   4.593  17.110  0.00  0.00    +0.000 NA
BRANCH  15  16
ATOM     16  C   UNL     1       7.556   5.605  17.979  0.00  0.00    +0.000 C 
ATOM     17  S   UNL     1       7.490   7.234  17.604  0.00  0.00    +0.000 S 
BRANCH  16  18
ATOM     18  N   UNL     1       7.413   5.242  19.287  0.00  0.00    +0.000 N 
ATOM     19  H   UNL     1       6.543   4.847  19.610  0.00  0.00    +0.000 HD
ATOM     20  H   UNL     1       8.225   5.204  19.889  0.00  0.00    +0.000 HD
ENDBRANCH  16  18
ENDBRANCH  15  16
ENDBRANCH  13  14
ENDBRANCH  11  13
ENDBRANCH   7  11
ENDBRANCH   1   9
BRANCH   4  21
ATOM     21  N   UNL     1       0.971   9.222  21.247  0.00  0.00    +0.000 N 
ATOM     22  C   UNL     1      -0.188   9.915  20.950  0.00  0.00    +0.000 C 
ATOM     23  O   UNL     1      -0.786   9.821  19.882  0.00  0.00    +0.000 OA
ATOM     24  H   UNL     1       1.647   9.719  21.811  0.00  0.00    +0.000 HD
BRANCH  22  25
ATOM     25  C   UNL     1      -0.621  10.895  22.025  0.00  0.00    +0.000 C 
BRANCH  25  26
ATOM     26  C   UNL     1      -0.385  12.359  21.628  0.00  0.00    +0.000 C 
ATOM     27  C   UNL     1      -0.808  13.347  22.720  0.00  0.00    +0.000 C 
BRANCH  26  28
ATOM     28  N   UNL     1       1.051  12.546  21.363  0.00  0.00    +0.000 NA
ATOM     29  N   UNL     1       1.530  12.907  20.261  0.00  0.00    +0.000 NA
BRANCH  29  30
ATOM     30  C   UNL     1       0.743  13.218  19.180  0.00  0.00    +0.000 C 
ATOM     31  S   UNL     1      -0.054  14.672  18.953  0.00  0.00    +0.000 S 
BRANCH  30  32
ATOM     32  N   UNL     1       0.491  12.215  18.287  0.00  0.00    +0.000 N 
ATOM     33  H   UNL     1       0.625  11.253  18.559  0.00  0.00    +0.000 HD
ATOM     34  H   UNL     1      -0.043  12.419  17.453  0.00  0.00    +0.000 HD
ENDBRANCH  30  32
ENDBRANCH  29  30
ENDBRANCH  26  28
ENDBRANCH  25  26
ENDBRANCH  22  25
ENDBRANCH   4  21
TORSDOF 12
ENDMDL
MODEL 2
REMARK VINA RESULT:      -6.7      2.174      2.790
REMARK  Name = 
REMARK  14 active torsions:
REMARK  status: ('A' for Active; 'I' for Inactive)
REMARK    1  A    between atoms: C_1  and  C_2
REMARK    2  A    between atoms: C_2  and  C_3
REMARK    3  A    between atoms: C_2  and  N_24
REMARK    4  A    between atoms: C_3  and  C_4
REMARK    5  A    between atoms: N_6  and  C_7
REMARK    6  A    between atoms: C_10  and  N_11
REMARK    7  A    between atoms: C_12  and  C_14
REMARK    8  A    between atoms: C_14  and  C_15
REMARK    9  A    between atoms: C_15  and  C_16
REMARK   10  A    between atoms: C_15  and  N_17
REMARK   11  A    between atoms: N_18  and  C_19
REMARK   12  A    between atoms: C_19  and  N_20
REMARK   13  A    between atoms: N_25  and  C_26
REMARK   14  A    between atoms: C_26  and  N_27
REMARK                            x       y       z     vdW  Elec       q    Type
REMARK                         _______ _______ _______ _____ _____    ______ ____
ROOT
ATOM      1  C   UNL     1       2.494   7.521  18.596  0.00  0.00    +0.000 A 
ATOM      2  C   UNL     1       1.934   8.594  17.897  0.00  0.00    +0.000 A 
ATOM      3  C   UNL     1       1.109   9.515  18.542  0.00  0.00    +0.000 A 
ATOM      4  C   UNL     1       0.780   9.329  19.879  0.00  0.00    +0.000 A 
ATOM      5  C   UNL     1       1.320   8.254  20.590  0.00  0.00    +0.000 A 
ATOM      6  C   UNL     1       2.182   7.356  19.950  0.00  0.00    +0.000 A 
ENDROOT
BRANCH   1   9
ATOM      7  C   UNL     1       3.010   5.269  17.650  0.00  0.00    +0.000 C 
ATOM      8  O   UNL     1       1.896   4.753  17.706  0.00  0.00    +0.000 OA
ATOM      9  N   UNL     1       3.340   6.568  17.993  0.00  0.00    +0.000 N 
ATOM     10  H   UNL     1       4.272   6.893  17.761  0.00  0.00    +0.000 HD
BRANCH   7  11
ATOM     11  C   UNL     1       4.198   4.449  17.207  0.00  0.00    +0.000 C 
BRANCH  11  13
ATOM     12  C   UNL     1       3.919   2.763  19.062  0.00  0.00    +0.000 C 
ATOM     13  C   UNL     1       4.863   3.787  18.420  0.00  0.00    +0.000 C 
BRANCH  13  14
ATOM     14  N   UNL     1       5.095   4.832  19.435  0.00  0.00    +0.000 NA
ATOM     15  N   UNL     1       6.157   5.496  19.520  0.00  0.00    +0.000 NA
BRANCH  15  16
ATOM     16  C   UNL     1       7.070   5.525  18.495  0.00  0.00    +0.000 C 
ATOM     17  S   UNL     1       7.203   6.725  17.337  0.00  0.00    +0.000 S 
BRANCH  16  18
ATOM     18  N   UNL     1       7.834   4.404  18.348  0.00  0.00    +0.000 N 
ATOM     19  H   UNL     1       7.629   3.746  17.610  0.00  0.00    +0.000 HD
ATOM     20  H   UNL     1       8.701   4.317  18.859  0.00  0.00    +0.000 HD
ENDBRANCH  16  18
ENDBRANCH  15  16
ENDBRANCH  13  14
ENDBRANCH  11  13
ENDBRANCH   7  11
ENDBRANCH   1   9
BRANCH   4  21
ATOM     21  N   UNL     1      -0.117  10.228  20.479  0.00  0.00    +0.000 N 
ATOM     22  C   UNL     1       0.350  11.377  21.090  0.00  0.00    +0.000 C 
ATOM     23  O   UNL     1       1.541  11.641  21.232  0.00  0.00    +0.000 OA
ATOM     24  H   UNL     1      -0.962   9.834  20.872  0.00  0.00    +0.000 HD
BRANCH  22  25
ATOM     25  C   UNL     1      -0.739  12.261  21.671  0.00  0.00    +0.000 C 
BRANCH  25  26
ATOM     26  C   UNL     1      -1.804  12.654  20.636  0.00  0.00    +0.000 C 
ATOM     27  C   UNL     1      -2.554  13.935  21.012  0.00  0.00    +0.000 C 
BRANCH  26  28
ATOM     28  N   UNL     1      -1.139  12.868  19.339  0.00  0.00    +0.000 NA
ATOM     29  N   UNL     1      -1.509  12.351  18.258  0.00  0.00    +0.000 NA
BRANCH  29  30
ATOM     30  C   UNL     1      -2.623  11.556  18.161  0.00  0.00    +0.000 C 
ATOM     31  S   UNL     1      -2.614   9.918  17.813  0.00  0.00    +0.000 S 
BRANCH  30  32
ATOM     32  N   UNL     1      -3.838  12.178  18.230  0.00  0.00    +0.000 N 
ATOM     33  H   UNL     1      -4.608  11.730  18.702  0.00  0.00    +0.000 HD
ATOM     34  H   UNL     1      -3.899  13.166  18.021  0.00  0.00    +0.000 HD
ENDBRANCH  30  32
ENDBRANCH  29  30
ENDBRANCH  26  28
ENDBRANCH  25  26
ENDBRANCH  22  25
ENDBRANCH   4  21
TORSDOF 12
ENDMDL
MODEL 3
REMARK VINA RESULT:      -6.7      1.370      1.425
REMARK  Name = 
REMARK  14 active torsions:
REMARK  status: ('A' for Active; 'I' for Inactive)
REMARK    1  A    between atoms: C_1  and  C_2
REMARK    2  A    between atoms: C_2  and  C_3
REMARK    3  A    between atoms: C_2  and  N_24
REMARK    4  A    between atoms: C_3  and  C_4
REMARK    5  A    between atoms: N_6  and  C_7
REMARK    6  A    between atoms: C_10  and  N_11
REMARK    7  A    between atoms: C_12  and  C_14
REMARK    8  A    between atoms: C_14  and  C_15
REMARK    9  A    between atoms: C_15  and  C_16
REMARK   10  A    between atoms: C_15  and  N_17
REMARK   11  A    between atoms: N_18  and  C_19
REMARK   12  A    between atoms: C_19  and  N_20
REMARK   13  A    between atoms: N_25  and  C_26
REMARK   14  A    between atoms: C_26  and  N_27
REMARK                            x       y       z     vdW  Elec       q    Type
REMARK                         _______ _______ _______ _____ _____    ______ ____
ROOT
ATOM      1  C   UNL     1       2.635   6.238  18.621  0.00  0.00    +0.000 A 
ATOM      2  C   UNL     1       2.332   5.906  19.944  0.00  0.00    +0.000 A 
ATOM      3  C   UNL     1       1.792   6.855  20.813  0.00  0.00    +0.000 A 
ATOM      4  C   UNL     1       1.618   8.164  20.384  0.00  0.00    +0.000 A 
ATOM      5  C   UNL     1       1.929   8.517  19.069  0.00  0.00    +0.000 A 
ATOM      6  C   UNL     1       2.430   7.553  18.187  0.00  0.00    +0.000 A 
ENDROOT
BRANCH   1   9
ATOM      7  C   UNL     1       4.015   4.255  17.990  0.00  0.00    +0.000 C 
ATOM      8  O   UNL     1       4.349   3.862  19.107  0.00  0.00    +0.000 OA
ATOM      9  N   UNL     1       3.174   5.315  17.702  0.00  0.00    +0.000 N 
ATOM     10  H   UNL     1       2.880   5.433  16.739  0.00  0.00    +0.000 HD
BRANCH   7  11
ATOM     11  C   UNL     1       4.572   3.582  16.758  0.00  0.00    +0.000 C 
BRANCH  11  13
ATOM     12  C   UNL     1       5.232   4.527  14.515  0.00  0.00    +0.000 C 
ATOM     13  C   UNL     1       5.521   4.534  16.022  0.00  0.00    +0.000 C 
BRANCH  13  14
ATOM     14  N   UNL     1       6.894   4.020  16.184  0.00  0.00    +0.000 NA
ATOM     15  N   UNL     1       7.812   4.658  16.757  0.00  0.00    +0.000 NA
BRANCH  15  16
ATOM     16  C   UNL     1       7.545   5.747  17.548  0.00  0.00    +0.000 C 
ATOM     17  S   UNL     1       7.348   5.726  19.209  0.00  0.00    +0.000 S 
BRANCH  16  18
ATOM     18  N   UNL     1       7.287   6.913  16.887  0.00  0.00    +0.000 N 
ATOM     19  H   UNL     1       7.164   6.909  15.885  0.00  0.00    +0.000 HD
ATOM     20  H   UNL     1       7.049   7.744  17.409  0.00  0.00    +0.000 HD
ENDBRANCH  16  18
ENDBRANCH  15  16
ENDBRANCH  13  14
ENDBRANCH  11  13
ENDBRANCH   7  11
ENDBRANCH   1   9
BRANCH   4  21
ATOM     21  N   UNL     1       1.149   9.114  21.306  0.00  0.00    +0.000 N 
ATOM     22  C   UNL     1      -0.086   8.953  21.907  0.00  0.00    +0.000 C 
ATOM     23  O   UNL     1      -0.874   8.056  21.621  0.00  0.00    +0.000 OA
ATOM     24  H   UNL     1       1.447  10.071  21.167  0.00  0.00    +0.000 HD
BRANCH  22  25
ATOM     25  C   UNL     1      -0.444  10.046  22.897  0.00  0.00    +0.000 C 
BRANCH  25  26
ATOM     26  C   UNL     1      -0.888  11.348  22.215  0.00  0.00    +0.000 C 
ATOM     27  C   UNL     1      -1.453  12.375  23.201  0.00  0.00    +0.000 C 
BRANCH  26  28
ATOM     28  N   UNL     1       0.278  11.943  21.540  0.00  0.00    +0.000 NA
ATOM     29  N   UNL     1       0.321  12.235  20.321  0.00  0.00    +0.000 NA
BRANCH  29  30
ATOM     30  C   UNL     1      -0.754  12.072  19.483  0.00  0.00    +0.000 C 
ATOM     31  S   UNL     1      -1.100  10.682  18.617  0.00  0.00    +0.000 S 
BRANCH  30  32
ATOM     32  N   UNL     1      -1.527  13.173  19.243  0.00  0.00    +0.000 N 
ATOM     33  H   UNL     1      -1.132  14.096  19.338  0.00  0.00    +0.000 HD
ATOM     34  H   UNL     1      -2.404  13.063  18.753  0.00  0.00    +0.000 HD
ENDBRANCH  30  32
ENDBRANCH  29  30
ENDBRANCH  26  28
ENDBRANCH  25  26
ENDBRANCH  22  25
ENDBRANCH   4  21
TORSDOF 12
ENDMDL
MODEL 4
REMARK VINA RESULT:      -6.6      1.141      1.200
REMARK  Name = 
REMARK  14 active torsions:
REMARK  status: ('A' for Active; 'I' for Inactive)
REMARK    1  A    between atoms: C_1  and  C_2
REMARK    2  A    between atoms: C_2  and  C_3
REMARK    3  A    between atoms: C_2  and  N_24
REMARK    4  A    between atoms: C_3  and  C_4
REMARK    5  A    between atoms: N_6  and  C_7
REMARK    6  A    between atoms: C_10  and  N_11
REMARK    7  A    between atoms: C_12  and  C_14
REMARK    8  A    between atoms: C_14  and  C_15
REMARK    9  A    between atoms: C_15  and  C_16
REMARK   10  A    between atoms: C_15  and  N_17
REMARK   11  A    between atoms: N_18  and  C_19
REMARK   12  A    between atoms: C_19  and  N_20
REMARK   13  A    between atoms: N_25  and  C_26
REMARK   14  A    between atoms: C_26  and  N_27
REMARK                            x       y       z     vdW  Elec       q    Type
REMARK                         _______ _______ _______ _____ _____    ______ ____
ROOT
ATOM      1  C   UNL     1       2.524   6.789  18.487  0.00  0.00    +0.000 A 
ATOM      2  C   UNL     1       2.161   6.685  19.832  0.00  0.00    +0.000 A 
ATOM      3  C   UNL     1       1.553   7.753  20.494  0.00  0.00    +0.000 A 
ATOM      4  C   UNL     1       1.367   8.959  19.831  0.00  0.00    +0.000 A 
ATOM      5  C   UNL     1       1.737   9.085  18.490  0.00  0.00    +0.000 A 
ATOM      6  C   UNL     1       2.307   7.999  17.817  0.00  0.00    +0.000 A 
ENDROOT
BRANCH   1   9
ATOM      7  C   UNL     1       4.036   4.815  18.268  0.00  0.00    +0.000 C 
ATOM      8  O   UNL     1       4.380   4.677  19.440  0.00  0.00    +0.000 OA
ATOM      9  N   UNL     1       3.133   5.738  17.772  0.00  0.00    +0.000 N 
ATOM     10  H   UNL     1       2.844   5.640  16.805  0.00  0.00    +0.000 HD
BRANCH   7  11
ATOM     11  C   UNL     1       4.651   3.947  17.196  0.00  0.00    +0.000 C 
BRANCH  11  13
ATOM     12  C   UNL     1       5.486   4.590  14.905  0.00  0.00    +0.000 C 
ATOM     13  C   UNL     1       5.706   4.740  16.416  0.00  0.00    +0.000 C 
BRANCH  13  14
ATOM     14  N   UNL     1       7.025   4.147  16.705  0.00  0.00    +0.000 NA
ATOM     15  N   UNL     1       7.894   4.701  17.423  0.00  0.00    +0.000 NA
BRANCH  15  16
ATOM     16  C   UNL     1       7.581   5.754  18.247  0.00  0.00    +0.000 C 
ATOM     17  S   UNL     1       7.641   7.373  17.831  0.00  0.00    +0.000 S 
BRANCH  16  18
ATOM     18  N   UNL     1       7.337   5.435  19.551  0.00  0.00    +0.000 N 
ATOM     19  H   UNL     1       7.710   4.582  19.941  0.00  0.00    +0.000 HD
ATOM     20  H   UNL     1       6.934   6.125  20.169  0.00  0.00    +0.000 HD
ENDBRANCH  16  18
ENDBRANCH  15  16
ENDBRANCH  13  14
ENDBRANCH  11  13
ENDBRANCH   7  11
ENDBRANCH   1   9
BRANCH   4  21
ATOM     21  N   UNL     1       0.827  10.040  20.547  0.00  0.00    +0.000 N 
ATOM     22  C   UNL     1      -0.438  10.512  20.249  0.00  0.00    +0.000 C 
ATOM     23  O   UNL     1      -1.117  10.103  19.312  0.00  0.00    +0.000 OA
ATOM     24  H   UNL     1       1.481  10.728  20.896  0.00  0.00    +0.000 HD
BRANCH  22  25
ATOM     25  C   UNL     1      -0.894  11.666  21.122  0.00  0.00    +0.000 C 
BRANCH  25  26
ATOM     26  C   UNL     1      -0.119  12.964  20.851  0.00  0.00    +0.000 C 
ATOM     27  C   UNL     1      -0.824  14.206  21.404  0.00  0.00    +0.000 C 
BRANCH  26  28
ATOM     28  N   UNL     1       1.205  12.859  21.486  0.00  0.00    +0.000 NA
ATOM     29  N   UNL     1       2.287  13.165  20.929  0.00  0.00    +0.000 NA
BRANCH  29  30
ATOM     30  C   UNL     1       2.344  13.686  19.660  0.00  0.00    +0.000 C 
ATOM     31  S   UNL     1       2.487  12.789  18.254  0.00  0.00    +0.000 S 
BRANCH  30  32
ATOM     32  N   UNL     1       2.416  15.046  19.551  0.00  0.00    +0.000 N 
ATOM     33  H   UNL     1       1.861  15.630  20.157  0.00  0.00    +0.000 HD
ATOM     34  H   UNL     1       3.183  15.460  19.039  0.00  0.00    +0.000 HD
ENDBRANCH  30  32
ENDBRANCH  29  30
ENDBRANCH  26  28
ENDBRANCH  25  26
ENDBRANCH  22  25
ENDBRANCH   4  21
TORSDOF 12
ENDMDL
MODEL 5
REMARK VINA RESULT:      -6.6      2.509      9.184
REMARK  Name = 
REMARK  14 active torsions:
REMARK  status: ('A' for Active; 'I' for Inactive)
REMARK    1  A    between atoms: C_1  and  C_2
REMARK    2  A    between atoms: C_2  and  C_3
REMARK    3  A    between atoms: C_2  and  N_24
REMARK    4  A    between atoms: C_3  and  C_4
REMARK    5  A    between atoms: N_6  and  C_7
REMARK    6  A    between atoms: C_10  and  N_11
REMARK    7  A    between atoms: C_12  and  C_14
REMARK    8  A    between atoms: C_14  and  C_15
REMARK    9  A    between atoms: C_15  and  C_16
REMARK   10  A    between atoms: C_15  and  N_17
REMARK   11  A    between atoms: N_18  and  C_19
REMARK   12  A    between atoms: C_19  and  N_20
REMARK   13  A    between atoms: N_25  and  C_26
REMARK   14  A    between atoms: C_26  and  N_27
REMARK                            x       y       z     vdW  Elec       q    Type
REMARK                         _______ _______ _______ _____ _____    ______ ____
ROOT
ATOM      1  C   UNL     1       1.207   9.495  19.184  0.00  0.00    +0.000 A 
ATOM      2  C   UNL     1       1.916   8.835  18.177  0.00  0.00    +0.000 A 
ATOM      3  C   UNL     1       2.465   7.572  18.398  0.00  0.00    +0.000 A 
ATOM      4  C   UNL     1       2.370   6.989  19.655  0.00  0.00    +0.000 A 
ATOM      5  C   UNL     1       1.677   7.641  20.678  0.00  0.00    +0.000 A 
ATOM      6  C   UNL     1       1.090   8.888  20.440  0.00  0.00    +0.000 A 
ENDROOT
BRANCH   1   9
ATOM      7  C   UNL     1       0.379  11.707  19.993  0.00  0.00    +0.000 C 
ATOM      8  O   UNL     1       0.723  11.646  21.172  0.00  0.00    +0.000 OA
ATOM      9  N   UNL     1       0.627  10.767  19.008  0.00  0.00    +0.000 N 
ATOM     10  H   UNL     1       0.404  11.019  18.052  0.00  0.00    +0.000 HD
BRANCH   7  11
ATOM     11  C   UNL     1      -0.435  12.882  19.506  0.00  0.00    +0.000 C 
BRANCH  11  13
ATOM     12  C   UNL     1      -2.655  12.735  20.693  0.00  0.00    +0.000 C 
ATOM     13  C   UNL     1      -1.910  12.484  19.376  0.00  0.00    +0.000 C 
BRANCH  13  14
ATOM     14  N   UNL     1      -1.966  11.029  19.137  0.00  0.00    +0.000 NA
ATOM     15  N   UNL     1      -2.660  10.499  18.235  0.00  0.00    +0.000 NA
BRANCH  15  16
ATOM     16  C   UNL     1      -3.181  11.238  17.202  0.00  0.00    +0.000 C 
ATOM     17  S   UNL     1      -4.777  11.716  17.048  0.00  0.00    +0.000 S 
BRANCH  16  18
ATOM     18  N   UNL     1      -2.337  11.473  16.155  0.00  0.00    +0.000 N 
ATOM     19  H   UNL     1      -2.041  10.711  15.564  0.00  0.00    +0.000 HD
ATOM     20  H   UNL     1      -2.147  12.423  15.868  0.00  0.00    +0.000 HD
ENDBRANCH  16  18
ENDBRANCH  15  16
ENDBRANCH  13  14
ENDBRANCH  11  13
ENDBRANCH   7  11
ENDBRANCH   1   9
BRANCH   4  21
ATOM     21  N   UNL     1       3.003   5.753  19.870  0.00  0.00    +0.000 N 
ATOM     22  C   UNL     1       2.254   4.596  19.981  0.00  0.00    +0.000 C 
ATOM     23  O   UNL     1       1.027   4.574  19.994  0.00  0.00    +0.000 OA
ATOM     24  H   UNL     1       3.867   5.769  20.396  0.00  0.00    +0.000 HD
BRANCH  22  25
ATOM     25  C   UNL     1       3.079   3.338  20.186  0.00  0.00    +0.000 C 
BRANCH  25  26
ATOM     26  C   UNL     1       3.829   2.902  18.919  0.00  0.00    +0.000 C 
ATOM     27  C   UNL     1       3.594   1.431  18.565  0.00  0.00    +0.000 C 
BRANCH  26  28
ATOM     28  N   UNL     1       3.367   3.732  17.794  0.00  0.00    +0.000 NA
ATOM     29  N   UNL     1       4.116   4.433  17.072  0.00  0.00    +0.000 NA
BRANCH  29  30
ATOM     30  C   UNL     1       5.479   4.461  17.231  0.00  0.00    +0.000 C 
ATOM     31  S   UNL     1       6.311   5.502  18.245  0.00  0.00    +0.000 S 
BRANCH  30  32
ATOM     32  N   UNL     1       6.217   3.664  16.403  0.00  0.00    +0.000 N 
ATOM     33  H   UNL     1       6.318   3.906  15.430  0.00  0.00    +0.000 HD
ATOM     34  H   UNL     1       6.843   2.979  16.805  0.00  0.00    +0.000 HD
ENDBRANCH  30  32
ENDBRANCH  29  30
ENDBRANCH  26  28
ENDBRANCH  25  26
ENDBRANCH  22  25
ENDBRANCH   4  21
TORSDOF 12
ENDMDL
MODEL 6
REMARK VINA RESULT:      -6.5      2.327      2.788
REMARK  Name = 
REMARK  14 active torsions:
REMARK  status: ('A' for Active; 'I' for Inactive)
REMARK    1  A    between atoms: C_1  and  C_2
REMARK    2  A    between atoms: C_2  and  C_3
REMARK    3  A    between atoms: C_2  and  N_24
REMARK    4  A    between atoms: C_3  and  C_4
REMARK    5  A    between atoms: N_6  and  C_7
REMARK    6  A    between atoms: C_10  and  N_11
REMARK    7  A    between atoms: C_12  and  C_14
REMARK    8  A    between atoms: C_14  and  C_15
REMARK    9  A    between atoms: C_15  and  C_16
REMARK   10  A    between atoms: C_15  and  N_17
REMARK   11  A    between atoms: N_18  and  C_19
REMARK   12  A    between atoms: C_19  and  N_20
REMARK   13  A    between atoms: N_25  and  C_26
REMARK   14  A    between atoms: C_26  and  N_27
REMARK                            x       y       z     vdW  Elec       q    Type
REMARK                         _______ _______ _______ _____ _____    ______ ____
ROOT
ATOM      1  C   UNL     1       2.672   7.421  18.638  0.00  0.00    +0.000 A 
ATOM      2  C   UNL     1       2.215   8.473  17.842  0.00  0.00    +0.000 A 
ATOM      3  C   UNL     1       1.349   9.438  18.358  0.00  0.00    +0.000 A 
ATOM      4  C   UNL     1       0.877   9.315  19.659  0.00  0.00    +0.000 A 
ATOM      5  C   UNL     1       1.313   8.261  20.465  0.00  0.00    +0.000 A 
ATOM      6  C   UNL     1       2.215   7.320  19.957  0.00  0.00    +0.000 A 
ENDROOT
BRANCH   1   9
ATOM      7  C   UNL     1       3.215   5.149  17.756  0.00  0.00    +0.000 C 
ATOM      8  O   UNL     1       2.081   4.694  17.623  0.00  0.00    +0.000 OA
ATOM      9  N   UNL     1       3.553   6.427  18.166  0.00  0.00    +0.000 N 
ATOM     10  H   UNL     1       4.526   6.702  18.093  0.00  0.00    +0.000 HD
BRANCH   7  11
ATOM     11  C   UNL     1       4.415   4.268  17.500  0.00  0.00    +0.000 C 
BRANCH  11  13
ATOM     12  C   UNL     1       5.273   5.178  15.310  0.00  0.00    +0.000 C 
ATOM     13  C   UNL     1       5.526   5.075  16.820  0.00  0.00    +0.000 C 
BRANCH  13  14
ATOM     14  N   UNL     1       6.789   4.331  16.979  0.00  0.00    +0.000 NA
ATOM     15  N   UNL     1       7.796   4.788  17.575  0.00  0.00    +0.000 NA
BRANCH  15  16
ATOM     16  C   UNL     1       7.710   5.888  18.391  0.00  0.00    +0.000 C 
ATOM     17  S   UNL     1       7.765   7.484  17.892  0.00  0.00    +0.000 S 
BRANCH  16  18
ATOM     18  N   UNL     1       7.718   5.634  19.732  0.00  0.00    +0.000 N 
ATOM     19  H   UNL     1       8.592   5.479  20.211  0.00  0.00    +0.000 HD
ATOM     20  H   UNL     1       6.876   5.772  20.274  0.00  0.00    +0.000 HD
ENDBRANCH  16  18
ENDBRANCH  15  16
ENDBRANCH  13  14
ENDBRANCH  11  13
ENDBRANCH   7  11
ENDBRANCH   1   9
BRANCH   4  21
ATOM     21  N   UNL     1      -0.057  10.256  20.124  0.00  0.00    +0.000 N 
ATOM     22  C   UNL     1       0.370  11.395  20.784  0.00  0.00    +0.000 C 
ATOM     23  O   UNL     1       1.540  11.613  21.084  0.00  0.00    +0.000 OA
ATOM     24  H   UNL     1      -0.962   9.901  20.402  0.00  0.00    +0.000 HD
BRANCH  22  25
ATOM     25  C   UNL     1      -0.751  12.327  21.204  0.00  0.00    +0.000 C 
BRANCH  25  26
ATOM     26  C   UNL     1      -1.374  13.083  20.021  0.00  0.00    +0.000 C 
ATOM     27  C   UNL     1      -0.333  13.559  19.004  0.00  0.00    +0.000 C 
BRANCH  26  28
ATOM     28  N   UNL     1      -2.316  12.182  19.335  0.00  0.00    +0.000 NA
ATOM     29  N   UNL     1      -3.557  12.176  19.521  0.00  0.00    +0.000 NA
BRANCH  29  30
ATOM     30  C   UNL     1      -4.182  13.060  20.365  0.00  0.00    +0.000 C 
ATOM     31  S   UNL     1      -4.449  12.811  21.999  0.00  0.00    +0.000 S 
BRANCH  30  32
ATOM     32  N   UNL     1      -4.740  14.170  19.798  0.00  0.00    +0.000 N 
ATOM     33  H   UNL     1      -4.310  15.073  19.927  0.00  0.00    +0.000 HD
ATOM     34  H   UNL     1      -5.433  14.058  19.069  0.00  0.00    +0.000 HD
ENDBRANCH  30  32
ENDBRANCH  29  30
ENDBRANCH  26  28
ENDBRANCH  25  26
ENDBRANCH  22  25
ENDBRANCH   4  21
TORSDOF 12
ENDMDL
MODEL 7
REMARK VINA RESULT:      -6.5      2.320      9.092
REMARK  Name = 
REMARK  14 active torsions:
REMARK  status: ('A' for Active; 'I' for Inactive)
REMARK    1  A    between atoms: C_1  and  C_2
REMARK    2  A    between atoms: C_2  and  C_3
REMARK    3  A    between atoms: C_2  and  N_24
REMARK    4  A    between atoms: C_3  and  C_4
REMARK    5  A    between atoms: N_6  and  C_7
REMARK    6  A    between atoms: C_10  and  N_11
REMARK    7  A    between atoms: C_12  and  C_14
REMARK    8  A    between atoms: C_14  and  C_15
REMARK    9  A    between atoms: C_15  and  C_16
REMARK   10  A    between atoms: C_15  and  N_17
REMARK   11  A    between atoms: N_18  and  C_19
REMARK   12  A    between atoms: C_19  and  N_20
REMARK   13  A    between atoms: N_25  and  C_26
REMARK   14  A    between atoms: C_26  and  N_27
REMARK                            x       y       z     vdW  Elec       q    Type
REMARK                         _______ _______ _______ _____ _____    ______ ____
ROOT
ATOM      1  C   UNL     1       1.313   9.311  19.429  0.00  0.00    +0.000 A 
ATOM      2  C   UNL     1       1.684   9.291  18.082  0.00  0.00    +0.000 A 
ATOM      3  C   UNL     1       2.328   8.181  17.534  0.00  0.00    +0.000 A 
ATOM      4  C   UNL     1       2.669   7.110  18.349  0.00  0.00    +0.000 A 
ATOM      5  C   UNL     1       2.319   7.119  19.701  0.00  0.00    +0.000 A 
ATOM      6  C   UNL     1       1.635   8.215  20.238  0.00  0.00    +0.000 A 
ENDROOT
BRANCH   1   9
ATOM      7  C   UNL     1      -0.655  10.797  19.816  0.00  0.00    +0.000 C 
ATOM      8  O   UNL     1      -1.506  10.202  19.158  0.00  0.00    +0.000 OA
ATOM      9  N   UNL     1       0.654  10.404  20.028  0.00  0.00    +0.000 N 
ATOM     10  H   UNL     1       1.197  10.925  20.707  0.00  0.00    +0.000 HD
BRANCH   7  11
ATOM     11  C   UNL     1      -0.991  12.123  20.456  0.00  0.00    +0.000 C 
BRANCH  11  13
ATOM     12  C   UNL     1       0.354  13.818  21.752  0.00  0.00    +0.000 C 
ATOM     13  C   UNL     1       0.234  13.045  20.432  0.00  0.00    +0.000 C 
BRANCH  13  14
ATOM     14  N   UNL     1       0.019  14.055  19.378  0.00  0.00    +0.000 NA
ATOM     15  N   UNL     1       0.936  14.498  18.643  0.00  0.00    +0.000 NA
BRANCH  15  16
ATOM     16  C   UNL     1       2.149  13.864  18.546  0.00  0.00    +0.000 C 
ATOM     17  S   UNL     1       3.553  14.308  19.340  0.00  0.00    +0.000 S 
BRANCH  16  18
ATOM     18  N   UNL     1       2.228  12.872  17.611  0.00  0.00    +0.000 N 
ATOM     19  H   UNL     1       2.760  13.016  16.766  0.00  0.00    +0.000 HD
ATOM     20  H   UNL     1       1.904  11.942  17.837  0.00  0.00    +0.000 HD
ENDBRANCH  16  18
ENDBRANCH  15  16
ENDBRANCH  13  14
ENDBRANCH  11  13
ENDBRANCH   7  11
ENDBRANCH   1   9
BRANCH   4  21
ATOM     21  N   UNL     1       3.389   6.042  17.786  0.00  0.00    +0.000 N 
ATOM     22  C   UNL     1       4.663   6.246  17.289  0.00  0.00    +0.000 C 
ATOM     23  O   UNL     1       5.202   7.347  17.219  0.00  0.00    +0.000 OA
ATOM     24  H   UNL     1       2.849   5.320  17.328  0.00  0.00    +0.000 HD
BRANCH  22  25
ATOM     25  C   UNL     1       5.323   4.996  16.737  0.00  0.00    +0.000 C 
BRANCH  25  26
ATOM     26  C   UNL     1       6.155   4.246  17.787  0.00  0.00    +0.000 C 
ATOM     27  C   UNL     1       7.648   4.579  17.712  0.00  0.00    +0.000 C 
BRANCH  26  28
ATOM     28  N   UNL     1       5.663   4.615  19.125  0.00  0.00    +0.000 NA
ATOM     29  N   UNL     1       4.902   3.903  19.823  0.00  0.00    +0.000 NA
BRANCH  29  30
ATOM     30  C   UNL     1       4.482   2.659  19.425  0.00  0.00    +0.000 C 
ATOM     31  S   UNL     1       3.149   2.354  18.458  0.00  0.00    +0.000 S 
BRANCH  30  32
ATOM     32  N   UNL     1       5.128   1.583  19.964  0.00  0.00    +0.000 N 
ATOM     33  H   UNL     1       4.611   0.749  20.196  0.00  0.00    +0.000 HD
ATOM     34  H   UNL     1       6.136   1.535  19.912  0.00  0.00    +0.000 HD
ENDBRANCH  30  32
ENDBRANCH  29  30
ENDBRANCH  26  28
ENDBRANCH  25  26
ENDBRANCH  22  25
ENDBRANCH   4  21
TORSDOF 12
ENDMDL
MODEL 8
REMARK VINA RESULT:      -6.4      2.166      2.904
REMARK  Name = 
REMARK  14 active torsions:
REMARK  status: ('A' for Active; 'I' for Inactive)
REMARK    1  A    between atoms: C_1  and  C_2
REMARK    2  A    between atoms: C_2  and  C_3
REMARK    3  A    between atoms: C_2  and  N_24
REMARK    4  A    between atoms: C_3  and  C_4
REMARK    5  A    between atoms: N_6  and  C_7
REMARK    6  A    between atoms: C_10  and  N_11
REMARK    7  A    between atoms: C_12  and  C_14
REMARK    8  A    between atoms: C_14  and  C_15
REMARK    9  A    between atoms: C_15  and  C_16
REMARK   10  A    between atoms: C_15  and  N_17
REMARK   11  A    between atoms: N_18  and  C_19
REMARK   12  A    between atoms: C_19  and  N_20
REMARK   13  A    between atoms: N_25  and  C_26
REMARK   14  A    between atoms: C_26  and  N_27
REMARK                            x       y       z     vdW  Elec       q    Type
REMARK                         _______ _______ _______ _____ _____    ______ ____
ROOT
ATOM      1  C   UNL     1       2.187   7.069  19.656  0.00  0.00    +0.000 A 
ATOM      2  C   UNL     1       1.607   7.762  20.721  0.00  0.00    +0.000 A 
ATOM      3  C   UNL     1       1.054   9.029  20.533  0.00  0.00    +0.000 A 
ATOM      4  C   UNL     1       1.140   9.642  19.290  0.00  0.00    +0.000 A 
ATOM      5  C   UNL     1       1.729   8.969  18.217  0.00  0.00    +0.000 A 
ATOM      6  C   UNL     1       2.245   7.681  18.398  0.00  0.00    +0.000 A 
ENDROOT
BRANCH   1   9
ATOM      7  C   UNL     1       2.092   4.625  20.159  0.00  0.00    +0.000 C 
ATOM      8  O   UNL     1       0.881   4.487  20.321  0.00  0.00    +0.000 OA
ATOM      9  N   UNL     1       2.752   5.785  19.792  0.00  0.00    +0.000 N 
ATOM     10  H   UNL     1       3.736   5.712  19.561  0.00  0.00    +0.000 HD
BRANCH   7  11
ATOM     11  C   UNL     1       3.022   3.462  20.407  0.00  0.00    +0.000 C 
BRANCH  11  13
ATOM     12  C   UNL     1       3.877   1.716  18.800  0.00  0.00    +0.000 C 
ATOM     13  C   UNL     1       3.887   3.205  19.168  0.00  0.00    +0.000 C 
BRANCH  13  14
ATOM     14  N   UNL     1       5.282   3.539  19.513  0.00  0.00    +0.000 NA
ATOM     15  N   UNL     1       6.072   4.122  18.730  0.00  0.00    +0.000 NA
BRANCH  15  16
ATOM     16  C   UNL     1       5.622   4.774  17.609  0.00  0.00    +0.000 C 
ATOM     17  S   UNL     1       5.389   4.083  16.103  0.00  0.00    +0.000 S 
BRANCH  16  18
ATOM     18  N   UNL     1       5.490   6.127  17.721  0.00  0.00    +0.000 N 
ATOM     19  H   UNL     1       5.983   6.624  18.448  0.00  0.00    +0.000 HD
ATOM     20  H   UNL     1       5.045   6.651  16.980  0.00  0.00    +0.000 HD
ENDBRANCH  16  18
ENDBRANCH  15  16
ENDBRANCH  13  14
ENDBRANCH  11  13
ENDBRANCH   7  11
ENDBRANCH   1   9
BRANCH   4  21
ATOM     21  N   UNL     1       0.647  10.951  19.152  0.00  0.00    +0.000 N 
ATOM     22  C   UNL     1      -0.695  11.166  18.896  0.00  0.00    +0.000 C 
ATOM     23  O   UNL     1      -1.504  10.268  18.685  0.00  0.00    +0.000 OA
ATOM     24  H   UNL     1       1.282  11.640  18.772  0.00  0.00    +0.000 HD
BRANCH  22  25
ATOM     25  C   UNL     1      -1.083  12.630  18.799  0.00  0.00    +0.000 C 
BRANCH  25  26
ATOM     26  C   UNL     1      -1.440  13.246  20.159  0.00  0.00    +0.000 C 
ATOM     27  C   UNL     1      -2.945  13.232  20.443  0.00  0.00    +0.000 C 
BRANCH  26  28
ATOM     28  N   UNL     1      -0.760  12.475  21.214  0.00  0.00    +0.000 NA
ATOM     29  N   UNL     1       0.299  12.829  21.784  0.00  0.00    +0.000 NA
BRANCH  29  30
ATOM     30  C   UNL     1       0.921  14.022  21.511  0.00  0.00    +0.000 C 
ATOM     31  S   UNL     1       2.155  14.236  20.400  0.00  0.00    +0.000 S 
BRANCH  30  32
ATOM     32  N   UNL     1       0.591  15.088  22.300  0.00  0.00    +0.000 N 
ATOM     33  H   UNL     1       0.747  16.028  21.968  0.00  0.00    +0.000 HD
ATOM     34  H   UNL     1      -0.012  14.944  23.098  0.00  0.00    +0.000 HD
ENDBRANCH  30  32
ENDBRANCH  29  30
ENDBRANCH  26  28
ENDBRANCH  25  26
ENDBRANCH  22  25
ENDBRANCH   4  21
TORSDOF 12
ENDMDL
MODEL 9
REMARK VINA RESULT:      -6.4      1.889      2.038
REMARK  Name = 
REMARK  14 active torsions:
REMARK  status: ('A' for Active; 'I' for Inactive)
REMARK    1  A    between atoms: C_1  and  C_2
REMARK    2  A    between atoms: C_2  and  C_3
REMARK    3  A    between atoms: C_2  and  N_24
REMARK    4  A    between atoms: C_3  and  C_4
REMARK    5  A    between atoms: N_6  and  C_7
REMARK    6  A    between atoms: C_10  and  N_11
REMARK    7  A    between atoms: C_12  and  C_14
REMARK    8  A    between atoms: C_14  and  C_15
REMARK    9  A    between atoms: C_15  and  C_16
REMARK   10  A    between atoms: C_15  and  N_17
REMARK   11  A    between atoms: N_18  and  C_19
REMARK   12  A    between atoms: C_19  and  N_20
REMARK   13  A    between atoms: N_25  and  C_26
REMARK   14  A    between atoms: C_26  and  N_27
REMARK                            x       y       z     vdW  Elec       q    Type
REMARK                         _______ _______ _______ _____ _____    ______ ____
ROOT
ATOM      1  C   UNL     1       2.831   7.126  18.447  0.00  0.00    +0.000 A 
ATOM      2  C   UNL     1       2.321   7.081  19.747  0.00  0.00    +0.000 A 
ATOM      3  C   UNL     1       1.479   8.087  20.220  0.00  0.00    +0.000 A 
ATOM      4  C   UNL     1       1.195   9.184  19.417  0.00  0.00    +0.000 A 
ATOM      5  C   UNL     1       1.708   9.253  18.119  0.00  0.00    +0.000 A 
ATOM      6  C   UNL     1       2.518   8.221  17.633  0.00  0.00    +0.000 A 
ENDROOT
BRANCH   1   9
ATOM      7  C   UNL     1       3.323   4.841  17.570  0.00  0.00    +0.000 C 
ATOM      8  O   UNL     1       2.188   4.369  17.551  0.00  0.00    +0.000 OA
ATOM      9  N   UNL     1       3.679   6.132  17.919  0.00  0.00    +0.000 N 
ATOM     10  H   UNL     1       4.638   6.416  17.751  0.00  0.00    +0.000 HD
BRANCH   7  11
ATOM     11  C   UNL     1       4.506   3.968  17.225  0.00  0.00    +0.000 C 
BRANCH  11  13
ATOM     12  C   UNL     1       5.351   4.721  14.972  0.00  0.00    +0.000 C 
ATOM     13  C   UNL     1       5.571   4.789  16.488  0.00  0.00    +0.000 C 
BRANCH  13  14
ATOM     14  N   UNL     1       6.882   4.167  16.747  0.00  0.00    +0.000 NA
ATOM     15  N   UNL     1       7.790   4.712  17.422  0.00  0.00    +0.000 NA
BRANCH  15  16
ATOM     16  C   UNL     1       7.535   5.791  18.231  0.00  0.00    +0.000 C 
ATOM     17  S   UNL     1       7.584   7.397  17.766  0.00  0.00    +0.000 S 
BRANCH  16  18
ATOM     18  N   UNL     1       7.362   5.511  19.556  0.00  0.00    +0.000 N 
ATOM     19  H   UNL     1       6.458   5.223  19.898  0.00  0.00    +0.000 HD
ATOM     20  H   UNL     1       8.169   5.424  20.159  0.00  0.00    +0.000 HD
ENDBRANCH  16  18
ENDBRANCH  15  16
ENDBRANCH  13  14
ENDBRANCH  11  13
ENDBRANCH   7  11
ENDBRANCH   1   9
BRANCH   4  21
ATOM     21  N   UNL     1       0.410  10.220  19.950  0.00  0.00    +0.000 N 
ATOM     22  C   UNL     1       0.615  10.654  21.247  0.00  0.00    +0.000 C 
ATOM     23  O   UNL     1       1.401  10.126  22.028  0.00  0.00    +0.000 OA
ATOM     24  H   UNL     1      -0.539  10.296  19.607  0.00  0.00    +0.000 HD
BRANCH  22  25
ATOM     25  C   UNL     1      -0.292  11.794  21.673  0.00  0.00    +0.000 C 
BRANCH  25  26
ATOM     26  C   UNL     1      -1.535  11.932  20.782  0.00  0.00    +0.000 C 
ATOM     27  C   UNL     1      -2.660  12.729  21.450  0.00  0.00    +0.000 C 
BRANCH  26  28
ATOM     28  N   UNL     1      -1.147  12.625  19.542  0.00  0.00    +0.000 NA
ATOM     29  N   UNL     1      -1.589  12.344  18.402  0.00  0.00    +0.000 NA
BRANCH  29  30
ATOM     30  C   UNL     1      -2.537  11.373  18.197  0.00  0.00    +0.000 C 
ATOM     31  S   UNL     1      -4.192  11.600  18.309  0.00  0.00    +0.000 S 
BRANCH  30  32
ATOM     32  N   UNL     1      -2.087  10.096  18.011  0.00  0.00    +0.000 N 
ATOM     33  H   UNL     1      -1.103   9.892  18.088  0.00  0.00    +0.000 HD
ATOM     34  H   UNL     1      -2.749   9.331  18.032  0.00  0.00    +0.000 HD
ENDBRANCH  30  32
ENDBRANCH  29  30
ENDBRANCH  26  28
ENDBRANCH  25  26
ENDBRANCH  22  25
ENDBRANCH   4  21
TORSDOF 12
ENDMDL
