MODEL 1
REMARK VINA RESULT:      -7.6      0.000      0.000
REMARK  Name = 
REMARK  5 active torsions:
REMARK  status: ('A' for Active; 'I' for Inactive)
REMARK    1  A    between atoms: C_2  and  C_3
REMARK    2  A    between atoms: C_3  and  O_4
REMARK    3  A    between atoms: C_3  and  C_5
REMARK    4  A    between atoms: C_11  and  C_12
REMARK    5  A    between atoms: C_14  and  C_15
REMARK                            x       y       z     vdW  Elec       q    Type
REMARK                         _______ _______ _______ _____ _____    ______ ____
ROOT
ATOM      1  O   UNL     1       8.005   4.107  16.549  0.00  0.00    +0.000 OA
ATOM      2  C   UNL     1       6.985   4.614  16.073  0.00  0.00    +0.000 C 
ATOM      3  N   UNL     1       5.893   4.953  16.864  0.00  0.00    +0.000 N 
ATOM      4  C   UNL     1       4.592   5.403  16.364  0.00  0.00    +0.000 C 
ATOM      5  C   UNL     1       4.065   6.593  17.164  0.00  0.00    +0.000 C 
ATOM      6  C   UNL     1       4.098   6.367  18.681  0.00  0.00    +0.000 C 
ATOM      7  C   UNL     1       5.472   5.833  19.120  0.00  0.00    +0.000 C 
ATOM      8  C   UNL     1       5.932   4.635  18.290  0.00  0.00    +0.000 C 
ENDROOT
BRANCH   6   9
ATOM      9  C   UNL     1       2.999   5.438  19.135  0.00  0.00    +0.000 A 
ATOM     10  N   UNL     1       2.725   4.289  18.560  0.00  0.00    +0.000 NA
ATOM     11  C   UNL     1       1.752   3.590  19.273  0.00  0.00    +0.000 A 
ATOM     12  C   UNL     1       1.262   4.283  20.366  0.00  0.00    +0.000 A 
ATOM     13  S   UNL     1       2.045   5.801  20.517  0.00  0.00    +0.000 S 
BRANCH  11  14
ATOM     14  C   UNL     1       1.343   2.208  18.852  0.00  0.00    +0.000 C 
ATOM     15  F   UNL     1       1.594   1.266  19.798  0.00  0.00    +0.000 F 
ATOM     16  F   UNL     1       0.011   2.146  18.580  0.00  0.00    +0.000 F 
ATOM     17  F   UNL     1       1.988   1.814  17.723  0.00  0.00    +0.000 F 
ENDBRANCH  11  14
ENDBRANCH   6   9
BRANCH   2  18
ATOM     18  C   UNL     1       6.928   4.987  14.571  0.00  0.00    +0.000 C 
BRANCH  18  19
ATOM     19  C   UNL     1       6.693   3.808  13.658  0.00  0.00    +0.000 C 
ATOM     20  C   UNL     1       5.386   3.726  12.905  0.00  0.00    +0.000 C 
ATOM     21  C   UNL     1       6.674   3.884  12.148  0.00  0.00    +0.000 C 
ENDBRANCH  18  19
BRANCH  18  22
ATOM     22  O   UNL     1       8.132   5.664  14.221  0.00  0.00    +0.000 OA
ATOM     23  H   UNL     1       8.854   5.082  14.525  0.00  0.00    +0.000 HD
ENDBRANCH  18  22
ENDBRANCH   2  18
TORSDOF 5
ENDMDL
MODEL 2
REMARK VINA RESULT:      -7.3      1.500      1.876
REMARK  Name = 
REMARK  5 active torsions:
REMARK  status: ('A' for Active; 'I' for Inactive)
REMARK    1  A    between atoms: C_2  and  C_3
REMARK    2  A    between atoms: C_3  and  O_4
REMARK    3  A    between atoms: C_3  and  C_5
REMARK    4  A    between atoms: C_11  and  C_12
REMARK    5  A    between atoms: C_14  and  C_15
REMARK                            x       y       z     vdW  Elec       q    Type
REMARK                         _______ _______ _______ _____ _____    ______ ____
ROOT
ATOM      1  O   UNL     1       8.135   4.212  16.414  0.00  0.00    +0.000 OA
ATOM      2  C   UNL     1       7.055   4.588  15.949  0.00  0.00    +0.000 C 
ATOM      3  N   UNL     1       5.944   4.813  16.753  0.00  0.00    +0.000 N 
ATOM      4  C   UNL     1       4.591   5.099  16.270  0.00  0.00    +0.000 C 
ATOM      5  C   UNL     1       3.943   6.235  17.058  0.00  0.00    +0.000 C 
ATOM      6  C   UNL     1       4.027   6.044  18.578  0.00  0.00    +0.000 C 
ATOM      7  C   UNL     1       5.460   5.683  19.001  0.00  0.00    +0.000 C 
ATOM      8  C   UNL     1       6.044   4.530  18.184  0.00  0.00    +0.000 C 
ENDROOT
BRANCH   6   9
ATOM      9  C   UNL     1       3.050   5.004  19.069  0.00  0.00    +0.000 A 
ATOM     10  N   UNL     1       3.153   4.390  20.226  0.00  0.00    +0.000 NA
ATOM     11  C   UNL     1       2.041   3.583  20.467  0.00  0.00    +0.000 A 
ATOM     12  C   UNL     1       1.134   3.567  19.422  0.00  0.00    +0.000 A 
ATOM     13  S   UNL     1       1.660   4.587  18.150  0.00  0.00    +0.000 S 
BRANCH  11  14
ATOM     14  C   UNL     1       1.896   2.852  21.770  0.00  0.00    +0.000 C 
ATOM     15  F   UNL     1       0.619   2.467  22.026  0.00  0.00    +0.000 F 
ATOM     16  F   UNL     1       2.658   1.725  21.795  0.00  0.00    +0.000 F 
ATOM     17  F   UNL     1       2.296   3.613  22.821  0.00  0.00    +0.000 F 
ENDBRANCH  11  14
ENDBRANCH   6   9
BRANCH   2  18
ATOM     18  C   UNL     1       6.931   4.923  14.441  0.00  0.00    +0.000 C 
BRANCH  18  19
ATOM     19  C   UNL     1       6.622   3.726  13.575  0.00  0.00    +0.000 C 
ATOM     20  C   UNL     1       5.317   3.701  12.814  0.00  0.00    +0.000 C 
ATOM     21  C   UNL     1       6.617   3.741  12.062  0.00  0.00    +0.000 C 
ENDBRANCH  18  19
BRANCH  18  22
ATOM     22  O   UNL     1       8.130   5.560  14.013  0.00  0.00    +0.000 OA
ATOM     23  H   UNL     1       8.635   4.871  13.540  0.00  0.00    +0.000 HD
ENDBRANCH  18  22
ENDBRANCH   2  18
TORSDOF 5
ENDMDL
MODEL 3
REMARK VINA RESULT:      -7.3      4.730      7.155
REMARK  Name = 
REMARK  5 active torsions:
REMARK  status: ('A' for Active; 'I' for Inactive)
REMARK    1  A    between atoms: C_2  and  C_3
REMARK    2  A    between atoms: C_3  and  O_4
REMARK    3  A    between atoms: C_3  and  C_5
REMARK    4  A    between atoms: C_11  and  C_12
REMARK    5  A    between atoms: C_14  and  C_15
REMARK                            x       y       z     vdW  Elec       q    Type
REMARK                         _______ _______ _______ _____ _____    ______ ____
ROOT
ATOM      1  O   UNL     1       2.296   6.988  19.240  0.00  0.00    +0.000 OA
ATOM      2  C   UNL     1       2.885   5.904  19.256  0.00  0.00    +0.000 C 
ATOM      3  N   UNL     1       3.980   5.648  18.437  0.00  0.00    +0.000 N 
ATOM      4  C   UNL     1       4.631   4.346  18.275  0.00  0.00    +0.000 C 
ATOM      5  C   UNL     1       6.152   4.473  18.302  0.00  0.00    +0.000 C 
ATOM      6  C   UNL     1       6.689   5.553  17.354  0.00  0.00    +0.000 C 
ATOM      7  C   UNL     1       5.914   6.868  17.537  0.00  0.00    +0.000 C 
ATOM      8  C   UNL     1       4.398   6.673  17.484  0.00  0.00    +0.000 C 
ENDROOT
BRANCH   6   9
ATOM      9  C   UNL     1       6.645   5.108  15.913  0.00  0.00    +0.000 A 
ATOM     10  N   UNL     1       7.377   5.639  14.959  0.00  0.00    +0.000 NA
ATOM     11  C   UNL     1       7.225   4.940  13.762  0.00  0.00    +0.000 A 
ATOM     12  C   UNL     1       6.306   3.908  13.837  0.00  0.00    +0.000 A 
ATOM     13  S   UNL     1       5.655   3.794  15.418  0.00  0.00    +0.000 S 
BRANCH  11  14
ATOM     14  C   UNL     1       8.033   5.312  12.553  0.00  0.00    +0.000 C 
ATOM     15  F   UNL     1       9.356   5.466  12.823  0.00  0.00    +0.000 F 
ATOM     16  F   UNL     1       7.939   4.365  11.581  0.00  0.00    +0.000 F 
ATOM     17  F   UNL     1       7.607   6.478  12.001  0.00  0.00    +0.000 F 
ENDBRANCH  11  14
ENDBRANCH   6   9
BRANCH   2  18
ATOM     18  C   UNL     1       2.479   4.810  20.276  0.00  0.00    +0.000 C 
BRANCH  18  19
ATOM     19  C   UNL     1       1.208   4.081  19.915  0.00  0.00    +0.000 C 
ATOM     20  C   UNL     1       1.120   3.405  18.566  0.00  0.00    +0.000 C 
ATOM     21  C   UNL     1       1.080   2.577  19.819  0.00  0.00    +0.000 C 
ENDBRANCH  18  19
BRANCH  18  22
ATOM     22  O   UNL     1       2.372   5.405  21.566  0.00  0.00    +0.000 OA
ATOM     23  H   UNL     1       2.166   6.345  21.401  0.00  0.00    +0.000 HD
ENDBRANCH  18  22
ENDBRANCH   2  18
TORSDOF 5
ENDMDL
MODEL 4
REMARK VINA RESULT:      -6.9      1.012      1.267
REMARK  Name = 
REMARK  5 active torsions:
REMARK  status: ('A' for Active; 'I' for Inactive)
REMARK    1  A    between atoms: C_2  and  C_3
REMARK    2  A    between atoms: C_3  and  O_4
REMARK    3  A    between atoms: C_3  and  C_5
REMARK    4  A    between atoms: C_11  and  C_12
REMARK    5  A    between atoms: C_14  and  C_15
REMARK                            x       y       z     vdW  Elec       q    Type
REMARK                         _______ _______ _______ _____ _____    ______ ____
ROOT
ATOM      1  O   UNL     1       7.891   4.040  16.373  0.00  0.00    +0.000 OA
ATOM      2  C   UNL     1       6.845   4.580  16.004  0.00  0.00    +0.000 C 
ATOM      3  N   UNL     1       5.884   5.020  16.908  0.00  0.00    +0.000 N 
ATOM      4  C   UNL     1       4.552   5.517  16.554  0.00  0.00    +0.000 C 
ATOM      5  C   UNL     1       4.195   6.774  17.345  0.00  0.00    +0.000 C 
ATOM      6  C   UNL     1       4.416   6.623  18.856  0.00  0.00    +0.000 C 
ATOM      7  C   UNL     1       5.807   6.035  19.144  0.00  0.00    +0.000 C 
ATOM      8  C   UNL     1       6.094   4.772  18.332  0.00  0.00    +0.000 C 
ENDROOT
BRANCH   6   9
ATOM      9  C   UNL     1       3.341   5.783  19.500  0.00  0.00    +0.000 A 
ATOM     10  N   UNL     1       3.444   4.488  19.701  0.00  0.00    +0.000 NA
ATOM     11  C   UNL     1       2.358   4.006  20.432  0.00  0.00    +0.000 A 
ATOM     12  C   UNL     1       1.410   4.973  20.716  0.00  0.00    +0.000 A 
ATOM     13  S   UNL     1       1.894   6.494  20.093  0.00  0.00    +0.000 S 
BRANCH  11  14
ATOM     14  C   UNL     1       2.304   2.568  20.857  0.00  0.00    +0.000 C 
ATOM     15  F   UNL     1       3.478   2.119  21.373  0.00  0.00    +0.000 F 
ATOM     16  F   UNL     1       1.354   2.366  21.811  0.00  0.00    +0.000 F 
ATOM     17  F   UNL     1       1.991   1.747  19.820  0.00  0.00    +0.000 F 
ENDBRANCH  11  14
ENDBRANCH   6   9
BRANCH   2  18
ATOM     18  C   UNL     1       6.609   4.879  14.502  0.00  0.00    +0.000 C 
BRANCH  18  19
ATOM     19  C   UNL     1       6.314   3.651  13.675  0.00  0.00    +0.000 C 
ATOM     20  C   UNL     1       5.248   3.738  12.607  0.00  0.00    +0.000 C 
ATOM     21  C   UNL     1       6.677   3.493  12.215  0.00  0.00    +0.000 C 
ENDBRANCH  18  19
BRANCH  18  22
ATOM     22  O   UNL     1       7.743   5.572  13.990  0.00  0.00    +0.000 OA
ATOM     23  H   UNL     1       7.992   5.095  13.176  0.00  0.00    +0.000 HD
ENDBRANCH  18  22
ENDBRANCH   2  18
TORSDOF 5
ENDMDL
MODEL 5
REMARK VINA RESULT:      -6.9      5.121      7.369
REMARK  Name = 
REMARK  5 active torsions:
REMARK  status: ('A' for Active; 'I' for Inactive)
REMARK    1  A    between atoms: C_2  and  C_3
REMARK    2  A    between atoms: C_3  and  O_4
REMARK    3  A    between atoms: C_3  and  C_5
REMARK    4  A    between atoms: C_11  and  C_12
REMARK    5  A    between atoms: C_14  and  C_15
REMARK                            x       y       z     vdW  Elec       q    Type
REMARK                         _______ _______ _______ _____ _____    ______ ____
ROOT
ATOM      1  O   UNL     1       3.587   2.434  18.576  0.00  0.00    +0.000 OA
ATOM      2  C   UNL     1       3.304   3.625  18.417  0.00  0.00    +0.000 C 
ATOM      3  N   UNL     1       4.248   4.559  18.007  0.00  0.00    +0.000 N 
ATOM      4  C   UNL     1       4.039   6.008  17.951  0.00  0.00    +0.000 C 
ATOM      5  C   UNL     1       4.593   6.605  16.660  0.00  0.00    +0.000 C 
ATOM      6  C   UNL     1       6.037   6.178  16.364  0.00  0.00    +0.000 C 
ATOM      7  C   UNL     1       6.192   4.655  16.506  0.00  0.00    +0.000 C 
ATOM      8  C   UNL     1       5.632   4.125  17.826  0.00  0.00    +0.000 C 
ENDROOT
BRANCH   6   9
ATOM      9  C   UNL     1       7.028   6.897  17.247  0.00  0.00    +0.000 A 
ATOM     10  N   UNL     1       7.373   8.155  17.088  0.00  0.00    +0.000 NA
ATOM     11  C   UNL     1       8.200   8.583  18.127  0.00  0.00    +0.000 A 
ATOM     12  C   UNL     1       8.510   7.585  19.034  0.00  0.00    +0.000 A 
ATOM     13  S   UNL     1       7.742   6.116  18.601  0.00  0.00    +0.000 S 
BRANCH  11  14
ATOM     14  C   UNL     1       8.649  10.013  18.204  0.00  0.00    +0.000 C 
ATOM     15  F   UNL     1       8.778  10.464  19.479  0.00  0.00    +0.000 F 
ATOM     16  F   UNL     1       9.857  10.188  17.601  0.00  0.00    +0.000 F 
ATOM     17  F   UNL     1       7.779  10.849  17.578  0.00  0.00    +0.000 F 
ENDBRANCH  11  14
ENDBRANCH   6   9
BRANCH   2  18
ATOM     18  C   UNL     1       1.839   4.105  18.574  0.00  0.00    +0.000 C 
BRANCH  18  19
ATOM     19  C   UNL     1       1.388   4.225  20.010  0.00  0.00    +0.000 C 
ATOM     20  C   UNL     1       2.425   4.499  21.074  0.00  0.00    +0.000 C 
ATOM     21  C   UNL     1       1.357   5.518  20.794  0.00  0.00    +0.000 C 
ENDBRANCH  18  19
BRANCH  18  22
ATOM     22  O   UNL     1       0.987   3.224  17.849  0.00  0.00    +0.000 OA
ATOM     23  H   UNL     1       0.329   3.799  17.415  0.00  0.00    +0.000 HD
ENDBRANCH  18  22
ENDBRANCH   2  18
TORSDOF 5
ENDMDL
MODEL 6
REMARK VINA RESULT:      -6.8      5.016      7.302
REMARK  Name = 
REMARK  5 active torsions:
REMARK  status: ('A' for Active; 'I' for Inactive)
REMARK    1  A    between atoms: C_2  and  C_3
REMARK    2  A    between atoms: C_3  and  O_4
REMARK    3  A    between atoms: C_3  and  C_5
REMARK    4  A    between atoms: C_11  and  C_12
REMARK    5  A    between atoms: C_14  and  C_15
REMARK                            x       y       z     vdW  Elec       q    Type
REMARK                         _______ _______ _______ _____ _____    ______ ____
ROOT
ATOM      1  O   UNL     1       3.711   1.867  17.539  0.00  0.00    +0.000 OA
ATOM      2  C   UNL     1       3.386   2.960  18.012  0.00  0.00    +0.000 C 
ATOM      3  N   UNL     1       4.104   4.121  17.747  0.00  0.00    +0.000 N 
ATOM      4  C   UNL     1       3.888   5.417  18.393  0.00  0.00    +0.000 C 
ATOM      5  C   UNL     1       3.911   6.559  17.379  0.00  0.00    +0.000 C 
ATOM      6  C   UNL     1       5.137   6.526  16.456  0.00  0.00    +0.000 C 
ATOM      7  C   UNL     1       5.336   5.119  15.870  0.00  0.00    +0.000 C 
ATOM      8  C   UNL     1       5.318   4.026  16.938  0.00  0.00    +0.000 C 
ENDROOT
BRANCH   6   9
ATOM      9  C   UNL     1       6.387   6.988  17.164  0.00  0.00    +0.000 A 
ATOM     10  N   UNL     1       6.841   8.220  17.121  0.00  0.00    +0.000 NA
ATOM     11  C   UNL     1       7.932   8.383  17.975  0.00  0.00    +0.000 A 
ATOM     12  C   UNL     1       8.316   7.214  18.609  0.00  0.00    +0.000 A 
ATOM     13  S   UNL     1       7.290   5.918  18.159  0.00  0.00    +0.000 S 
BRANCH  11  14
ATOM     14  C   UNL     1       8.562   9.732  18.158  0.00  0.00    +0.000 C 
ATOM     15  F   UNL     1       9.716   9.882  17.455  0.00  0.00    +0.000 F 
ATOM     16  F   UNL     1       7.728  10.730  17.759  0.00  0.00    +0.000 F 
ATOM     17  F   UNL     1       8.862   9.976  19.461  0.00  0.00    +0.000 F 
ENDBRANCH  11  14
ENDBRANCH   6   9
BRANCH   2  18
ATOM     18  C   UNL     1       2.090   3.092  18.850  0.00  0.00    +0.000 C 
BRANCH  18  19
ATOM     19  C   UNL     1       2.288   2.838  20.325  0.00  0.00    +0.000 C 
ATOM     20  C   UNL     1       2.148   3.997  21.284  0.00  0.00    +0.000 C 
ATOM     21  C   UNL     1       1.179   2.851  21.354  0.00  0.00    +0.000 C 
ENDBRANCH  18  19
BRANCH  18  22
ATOM     22  O   UNL     1       1.106   2.213  18.314  0.00  0.00    +0.000 OA
ATOM     23  H   UNL     1       0.249   2.568  18.617  0.00  0.00    +0.000 HD
ENDBRANCH  18  22
ENDBRANCH   2  18
TORSDOF 5
ENDMDL
MODEL 7
REMARK VINA RESULT:      -6.7      3.897      6.622
REMARK  Name = 
REMARK  5 active torsions:
REMARK  status: ('A' for Active; 'I' for Inactive)
REMARK    1  A    between atoms: C_2  and  C_3
REMARK    2  A    between atoms: C_3  and  O_4
REMARK    3  A    between atoms: C_3  and  C_5
REMARK    4  A    between atoms: C_11  and  C_12
REMARK    5  A    between atoms: C_14  and  C_15
REMARK                            x       y       z     vdW  Elec       q    Type
REMARK                         _______ _______ _______ _____ _____    ______ ____
ROOT
ATOM      1  O   UNL     1       3.131   7.086  18.011  0.00  0.00    +0.000 OA
ATOM      2  C   UNL     1       3.559   5.929  17.975  0.00  0.00    +0.000 C 
ATOM      3  N   UNL     1       4.556   5.539  17.086  0.00  0.00    +0.000 N 
ATOM      4  C   UNL     1       5.003   4.162  16.865  0.00  0.00    +0.000 C 
ATOM      5  C   UNL     1       6.526   4.072  16.800  0.00  0.00    +0.000 C 
ATOM      6  C   UNL     1       7.154   5.087  15.835  0.00  0.00    +0.000 C 
ATOM      7  C   UNL     1       6.587   6.494  16.085  0.00  0.00    +0.000 C 
ATOM      8  C   UNL     1       5.059   6.517  16.123  0.00  0.00    +0.000 C 
ENDROOT
BRANCH   6   9
ATOM      9  C   UNL     1       6.961   4.685  14.394  0.00  0.00    +0.000 A 
ATOM     10  N   UNL     1       5.957   3.956  13.964  0.00  0.00    +0.000 NA
ATOM     11  C   UNL     1       5.967   3.857  12.572  0.00  0.00    +0.000 A 
ATOM     12  C   UNL     1       7.050   4.485  11.982  0.00  0.00    +0.000 A 
ATOM     13  S   UNL     1       8.039   5.226  13.169  0.00  0.00    +0.000 S 
BRANCH  11  14
ATOM     14  C   UNL     1       4.862   3.144  11.849  0.00  0.00    +0.000 C 
ATOM     15  F   UNL     1       5.206   1.890  11.455  0.00  0.00    +0.000 F 
ATOM     16  F   UNL     1       3.755   3.020  12.631  0.00  0.00    +0.000 F 
ATOM     17  F   UNL     1       4.475   3.815  10.733  0.00  0.00    +0.000 F 
ENDBRANCH  11  14
ENDBRANCH   6   9
BRANCH   2  18
ATOM     18  C   UNL     1       3.063   4.882  19.003  0.00  0.00    +0.000 C 
BRANCH  18  19
ATOM     19  C   UNL     1       1.711   4.297  18.673  0.00  0.00    +0.000 C 
ATOM     20  C   UNL     1       1.644   2.886  18.136  0.00  0.00    +0.000 C 
ATOM     21  C   UNL     1       1.032   3.206  19.470  0.00  0.00    +0.000 C 
ENDBRANCH  18  19
BRANCH  18  22
ATOM     22  O   UNL     1       3.054   5.478  20.296  0.00  0.00    +0.000 OA
ATOM     23  H   UNL     1       3.398   6.382  20.166  0.00  0.00    +0.000 HD
ENDBRANCH  18  22
ENDBRANCH   2  18
TORSDOF 5
ENDMDL
MODEL 8
REMARK VINA RESULT:      -6.6      5.149      7.406
REMARK  Name = 
REMARK  5 active torsions:
REMARK  status: ('A' for Active; 'I' for Inactive)
REMARK    1  A    between atoms: C_2  and  C_3
REMARK    2  A    between atoms: C_3  and  O_4
REMARK    3  A    between atoms: C_3  and  C_5
REMARK    4  A    between atoms: C_11  and  C_12
REMARK    5  A    between atoms: C_14  and  C_15
REMARK                            x       y       z     vdW  Elec       q    Type
REMARK                         _______ _______ _______ _____ _____    ______ ____
ROOT
ATOM      1  O   UNL     1       3.686   2.361  18.381  0.00  0.00    +0.000 OA
ATOM      2  C   UNL     1       3.365   3.553  18.395  0.00  0.00    +0.000 C 
ATOM      3  N   UNL     1       4.241   4.557  17.996  0.00  0.00    +0.000 N 
ATOM      4  C   UNL     1       4.001   5.995  18.135  0.00  0.00    +0.000 C 
ATOM      5  C   UNL     1       4.395   6.753  16.869  0.00  0.00    +0.000 C 
ATOM      6  C   UNL     1       5.804   6.408  16.368  0.00  0.00    +0.000 C 
ATOM      7  C   UNL     1       6.001   4.885  16.313  0.00  0.00    +0.000 C 
ATOM      8  C   UNL     1       5.603   4.190  17.615  0.00  0.00    +0.000 C 
ENDROOT
BRANCH   6   9
ATOM      9  C   UNL     1       6.875   7.051  17.215  0.00  0.00    +0.000 A 
ATOM     10  N   UNL     1       7.253   8.304  17.092  0.00  0.00    +0.000 NA
ATOM     11  C   UNL     1       8.160   8.655  18.092  0.00  0.00    +0.000 A 
ATOM     12  C   UNL     1       8.494   7.604  18.929  0.00  0.00    +0.000 A 
ATOM     13  S   UNL     1       7.648   6.183  18.480  0.00  0.00    +0.000 S 
BRANCH  11  14
ATOM     14  C   UNL     1       8.663  10.064  18.205  0.00  0.00    +0.000 C 
ATOM     15  F   UNL     1       7.794  10.982  17.707  0.00  0.00    +0.000 F 
ATOM     16  F   UNL     1       8.895  10.407  19.501  0.00  0.00    +0.000 F 
ATOM     17  F   UNL     1       9.837  10.234  17.543  0.00  0.00    +0.000 F 
ENDBRANCH  11  14
ENDBRANCH   6   9
BRANCH   2  18
ATOM     18  C   UNL     1       1.920   3.966  18.768  0.00  0.00    +0.000 C 
BRANCH  18  19
ATOM     19  C   UNL     1       1.703   4.156  20.250  0.00  0.00    +0.000 C 
ATOM     20  C   UNL     1       1.122   3.011  21.048  0.00  0.00    +0.000 C 
ATOM     21  C   UNL     1       2.521   3.481  21.329  0.00  0.00    +0.000 C 
ENDBRANCH  18  19
BRANCH  18  22
ATOM     22  O   UNL     1       1.017   2.997  18.245  0.00  0.00    +0.000 OA
ATOM     23  H   UNL     1       0.449   3.484  17.618  0.00  0.00    +0.000 HD
ENDBRANCH  18  22
ENDBRANCH   2  18
TORSDOF 5
ENDMDL
MODEL 9
REMARK VINA RESULT:      -6.3      1.508      1.793
REMARK  Name = 
REMARK  5 active torsions:
REMARK  status: ('A' for Active; 'I' for Inactive)
REMARK    1  A    between atoms: C_2  and  C_3
REMARK    2  A    between atoms: C_3  and  O_4
REMARK    3  A    between atoms: C_3  and  C_5
REMARK    4  A    between atoms: C_11  and  C_12
REMARK    5  A    between atoms: C_14  and  C_15
REMARK                            x       y       z     vdW  Elec       q    Type
REMARK                         _______ _______ _______ _____ _____    ______ ____
ROOT
ATOM      1  O   UNL     1       8.330   4.488  15.524  0.00  0.00    +0.000 OA
ATOM      2  C   UNL     1       7.127   4.667  15.318  0.00  0.00    +0.000 C 
ATOM      3  N   UNL     1       6.213   4.803  16.356  0.00  0.00    +0.000 N 
ATOM      4  C   UNL     1       4.757   4.853  16.204  0.00  0.00    +0.000 C 
ATOM      5  C   UNL     1       4.140   5.951  17.067  0.00  0.00    +0.000 C 
ATOM      6  C   UNL     1       4.606   5.907  18.529  0.00  0.00    +0.000 C 
ATOM      7  C   UNL     1       6.136   5.788  18.607  0.00  0.00    +0.000 C 
ATOM      8  C   UNL     1       6.687   4.661  17.732  0.00  0.00    +0.000 C 
ENDROOT
BRANCH   6   9
ATOM      9  C   UNL     1       3.947   4.786  19.295  0.00  0.00    +0.000 A 
ATOM     10  N   UNL     1       2.670   4.761  19.605  0.00  0.00    +0.000 NA
ATOM     11  C   UNL     1       2.320   3.546  20.194  0.00  0.00    +0.000 A 
ATOM     12  C   UNL     1       3.392   2.689  20.371  0.00  0.00    +0.000 A 
ATOM     13  S   UNL     1       4.834   3.393  19.770  0.00  0.00    +0.000 S 
BRANCH  11  14
ATOM     14  C   UNL     1       0.892   3.256  20.552  0.00  0.00    +0.000 C 
ATOM     15  F   UNL     1       0.124   4.373  20.630  0.00  0.00    +0.000 F 
ATOM     16  F   UNL     1       0.305   2.440  19.635  0.00  0.00    +0.000 F 
ATOM     17  F   UNL     1       0.792   2.625  21.752  0.00  0.00    +0.000 F 
ENDBRANCH  11  14
ENDBRANCH   6   9
BRANCH   2  18
ATOM     18  C   UNL     1       6.603   4.847  13.871  0.00  0.00    +0.000 C 
BRANCH  18  19
ATOM     19  C   UNL     1       6.140   3.564  13.225  0.00  0.00    +0.000 C 
ATOM     20  C   UNL     1       5.160   3.643  12.077  0.00  0.00    +0.000 C 
ATOM     21  C   UNL     1       6.543   3.107  11.841  0.00  0.00    +0.000 C 
ENDBRANCH  18  19
BRANCH  18  22
ATOM     22  O   UNL     1       7.619   5.468  13.090  0.00  0.00    +0.000 OA
ATOM     23  H   UNL     1       7.317   5.392  12.165  0.00  0.00    +0.000 HD
ENDBRANCH  18  22
ENDBRANCH   2  18
TORSDOF 5
ENDMDL
