MODEL 1
REMARK VINA RESULT:      -7.3      0.000      0.000
REMARK  Name = 
REMARK  6 active torsions:
REMARK  status: ('A' for Active; 'I' for Inactive)
REMARK    1  A    between atoms: C_1  and  O_2
REMARK    2  A    between atoms: O_2  and  C_3
REMARK    3  A    between atoms: N_11  and  C_12
REMARK    4  A    between atoms: C_12  and  C_13
REMARK    5  A    between atoms: C_26  and  O_27
REMARK    6  A    between atoms: O_27  and  C_28
REMARK                            x       y       z     vdW  Elec       q    Type
REMARK                         _______ _______ _______ _____ _____    ______ ____
ROOT
ATOM      1  C   UNL     1       2.559   3.604  20.376  0.00  0.00    +0.000 A 
ATOM      2  C   UNL     1       1.886   4.723  20.887  0.00  0.00    +0.000 A 
ATOM      3  C   UNL     1       1.979   5.968  20.298  0.00  0.00    +0.000 A 
ATOM      4  N   UNL     1       1.256   6.964  20.811  0.00  0.00    +0.000 NA
ATOM      5  C   UNL     1       1.270   8.140  20.175  0.00  0.00    +0.000 A 
ATOM      6  N   UNL     1       0.444   9.139  20.626  0.00  0.00    +0.000 N 
ATOM      7  C   UNL     1      -0.066   9.145  21.997  0.00  0.00    +0.000 C 
ATOM      8  C   UNL     1       0.273  10.486  22.711  0.00  0.00    +0.000 C 
ATOM      9  N   UNL     1       0.006  11.728  21.932  0.00  0.00    +0.000 NA
ATOM     10  C   UNL     1       0.704  11.579  20.631  0.00  0.00    +0.000 C 
ATOM     11  C   UNL     1       0.270  10.344  19.823  0.00  0.00    +0.000 C 
ATOM     12  N   UNL     1       2.023   8.368  19.095  0.00  0.00    +0.000 NA
ATOM     13  C   UNL     1       2.789   7.384  18.627  0.00  0.00    +0.000 A 
ATOM     14  N   UNL     1       3.514   7.690  17.470  0.00  0.00    +0.000 N 
ATOM     15  C   UNL     1       2.800   6.110  19.187  0.00  0.00    +0.000 A 
ATOM     16  C   UNL     1       3.550   5.015  18.700  0.00  0.00    +0.000 A 
ATOM     17  C   UNL     1       3.443   3.757  19.295  0.00  0.00    +0.000 A 
ATOM     18  H   UNL     1       3.361   8.682  17.289  0.00  0.00    +0.000 HD
ATOM     19  H   UNL     1       4.498   7.477  17.574  0.00  0.00    +0.000 HD
ENDROOT
BRANCH   1  21
ATOM     20  C   UNL     1       1.476   2.301  22.016  0.00  0.00    +0.000 C 
ATOM     21  O   UNL     1       2.392   2.350  20.919  0.00  0.00    +0.000 OA
ENDBRANCH   1  21
BRANCH  17  22
ATOM     22  O   UNL     1       4.138   2.653  18.868  0.00  0.00    +0.000 OA
ATOM     23  C   UNL     1       3.488   1.800  17.926  0.00  0.00    +0.000 C 
ENDBRANCH  17  22
BRANCH   9  24
ATOM     24  C   UNL     1      -1.449  11.933  21.786  0.00  0.00    +0.000 C 
BRANCH  24  25
ATOM     25  C   UNL     1      -2.105  12.752  22.882  0.00  0.00    +0.000 A 
ATOM     26  C   UNL     1      -1.443  13.867  23.424  0.00  0.00    +0.000 A 
ATOM     27  C   UNL     1      -2.053  14.652  24.404  0.00  0.00    +0.000 A 
ATOM     28  C   UNL     1      -3.336  14.341  24.849  0.00  0.00    +0.000 A 
ATOM     29  C   UNL     1      -4.006  13.240  24.315  0.00  0.00    +0.000 A 
ATOM     30  C   UNL     1      -3.393  12.448  23.341  0.00  0.00    +0.000 A 
ENDBRANCH  24  25
ENDBRANCH   9  24
TORSDOF 4
ENDMDL
MODEL 2
REMARK VINA RESULT:      -7.2      0.920      1.297
REMARK  Name = 
REMARK  6 active torsions:
REMARK  status: ('A' for Active; 'I' for Inactive)
REMARK    1  A    between atoms: C_1  and  O_2
REMARK    2  A    between atoms: O_2  and  C_3
REMARK    3  A    between atoms: N_11  and  C_12
REMARK    4  A    between atoms: C_12  and  C_13
REMARK    5  A    between atoms: C_26  and  O_27
REMARK    6  A    between atoms: O_27  and  C_28
REMARK                            x       y       z     vdW  Elec       q    Type
REMARK                         _______ _______ _______ _____ _____    ______ ____
ROOT
ATOM      1  C   UNL     1       2.748   3.990  19.896  0.00  0.00    +0.000 A 
ATOM      2  C   UNL     1       2.011   4.939  20.619  0.00  0.00    +0.000 A 
ATOM      3  C   UNL     1       1.901   6.253  20.208  0.00  0.00    +0.000 A 
ATOM      4  N   UNL     1       1.128   7.073  20.920  0.00  0.00    +0.000 NA
ATOM      5  C   UNL     1       0.942   8.315  20.460  0.00  0.00    +0.000 A 
ATOM      6  N   UNL     1       0.061   9.134  21.121  0.00  0.00    +0.000 N 
ATOM      7  C   UNL     1      -0.298   8.897  22.519  0.00  0.00    +0.000 C 
ATOM      8  C   UNL     1      -0.037  10.165  23.383  0.00  0.00    +0.000 C 
ATOM      9  N   UNL     1      -0.524  11.454  22.816  0.00  0.00    +0.000 NA
ATOM     10  C   UNL     1       0.043  11.566  21.449  0.00  0.00    +0.000 C 
ATOM     11  C   UNL     1      -0.332  10.401  20.516  0.00  0.00    +0.000 C 
ATOM     12  N   UNL     1       1.545   8.775  19.360  0.00  0.00    +0.000 NA
ATOM     13  C   UNL     1       2.363   7.965  18.689  0.00  0.00    +0.000 A 
ATOM     14  N   UNL     1       2.922   8.509  17.527  0.00  0.00    +0.000 N 
ATOM     15  C   UNL     1       2.577   6.640  19.059  0.00  0.00    +0.000 A 
ATOM     16  C   UNL     1       3.390   5.722  18.356  0.00  0.00    +0.000 A 
ATOM     17  C   UNL     1       3.489   4.394  18.772  0.00  0.00    +0.000 A 
ATOM     18  H   UNL     1       2.640   9.489  17.504  0.00  0.00    +0.000 HD
ATOM     19  H   UNL     1       3.929   8.410  17.511  0.00  0.00    +0.000 HD
ENDROOT
BRANCH   1  21
ATOM     20  C   UNL     1       2.304   2.414  21.591  0.00  0.00    +0.000 C 
ATOM     21  O   UNL     1       2.782   2.666  20.267  0.00  0.00    +0.000 OA
ENDBRANCH   1  21
BRANCH  17  22
ATOM     22  O   UNL     1       4.254   3.452  18.132  0.00  0.00    +0.000 OA
ATOM     23  C   UNL     1       4.807   3.812  16.867  0.00  0.00    +0.000 C 
ENDBRANCH  17  22
BRANCH   9  24
ATOM     24  C   UNL     1      -2.001  11.491  22.832  0.00  0.00    +0.000 C 
BRANCH  24  25
ATOM     25  C   UNL     1      -2.614  12.793  23.312  0.00  0.00    +0.000 A 
ATOM     26  C   UNL     1      -4.005  12.896  23.493  0.00  0.00    +0.000 A 
ATOM     27  C   UNL     1      -4.577  14.075  23.972  0.00  0.00    +0.000 A 
ATOM     28  C   UNL     1      -3.769  15.164  24.289  0.00  0.00    +0.000 A 
ATOM     29  C   UNL     1      -2.387  15.074  24.119  0.00  0.00    +0.000 A 
ATOM     30  C   UNL     1      -1.814  13.898  23.629  0.00  0.00    +0.000 A 
ENDBRANCH  24  25
ENDBRANCH   9  24
TORSDOF 4
ENDMDL
MODEL 3
REMARK VINA RESULT:      -7.2      0.937      1.384
REMARK  Name = 
REMARK  6 active torsions:
REMARK  status: ('A' for Active; 'I' for Inactive)
REMARK    1  A    between atoms: C_1  and  O_2
REMARK    2  A    between atoms: O_2  and  C_3
REMARK    3  A    between atoms: N_11  and  C_12
REMARK    4  A    between atoms: C_12  and  C_13
REMARK    5  A    between atoms: C_26  and  O_27
REMARK    6  A    between atoms: O_27  and  C_28
REMARK                            x       y       z     vdW  Elec       q    Type
REMARK                         _______ _______ _______ _____ _____    ______ ____
ROOT
ATOM      1  C   UNL     1       2.797   3.743  20.346  0.00  0.00    +0.000 A 
ATOM      2  C   UNL     1       2.192   4.968  20.663  0.00  0.00    +0.000 A 
ATOM      3  C   UNL     1       2.360   6.093  19.882  0.00  0.00    +0.000 A 
ATOM      4  N   UNL     1       1.697   7.200  20.220  0.00  0.00    +0.000 NA
ATOM      5  C   UNL     1       1.782   8.255  19.403  0.00  0.00    +0.000 A 
ATOM      6  N   UNL     1       1.017   9.360  19.678  0.00  0.00    +0.000 N 
ATOM      7  C   UNL     1       0.508   9.619  21.025  0.00  0.00    +0.000 C 
ATOM      8  C   UNL     1       0.927  11.036  21.516  0.00  0.00    +0.000 C 
ATOM      9  N   UNL     1       0.735  12.148  20.544  0.00  0.00    +0.000 NA
ATOM     10  C   UNL     1       1.422  11.749  19.290  0.00  0.00    +0.000 C 
ATOM     11  C   UNL     1       0.915  10.428  18.689  0.00  0.00    +0.000 C 
ATOM     12  N   UNL     1       2.547   8.260  18.307  0.00  0.00    +0.000 NA
ATOM     13  C   UNL     1       3.253   7.170  18.011  0.00  0.00    +0.000 A 
ATOM     14  N   UNL     1       3.995   7.241  16.827  0.00  0.00    +0.000 N 
ATOM     15  C   UNL     1       3.187   6.005  18.770  0.00  0.00    +0.000 A 
ATOM     16  C   UNL     1       3.871   4.803  18.474  0.00  0.00    +0.000 A 
ATOM     17  C   UNL     1       3.689   3.667  19.263  0.00  0.00    +0.000 A 
ATOM     18  H   UNL     1       3.902   8.198  16.487  0.00  0.00    +0.000 HD
ATOM     19  H   UNL     1       4.964   6.990  16.974  0.00  0.00    +0.000 HD
ENDROOT
BRANCH   1  21
ATOM     20  C   UNL     1       1.335   2.636  21.829  0.00  0.00    +0.000 C 
ATOM     21  O   UNL     1       2.555   2.606  21.083  0.00  0.00    +0.000 OA
ENDBRANCH   1  21
BRANCH  17  22
ATOM     22  O   UNL     1       4.316   2.469  19.027  0.00  0.00    +0.000 OA
ATOM     23  C   UNL     1       3.661   1.554  18.150  0.00  0.00    +0.000 C 
ENDBRANCH  17  22
BRANCH   9  24
ATOM     24  C   UNL     1      -0.706  12.413  20.352  0.00  0.00    +0.000 C 
BRANCH  24  25
ATOM     25  C   UNL     1      -1.448  12.898  21.583  0.00  0.00    +0.000 A 
ATOM     26  C   UNL     1      -2.690  12.336  21.928  0.00  0.00    +0.000 A 
ATOM     27  C   UNL     1      -3.364  12.746  23.079  0.00  0.00    +0.000 A 
ATOM     28  C   UNL     1      -2.803  13.715  23.907  0.00  0.00    +0.000 A 
ATOM     29  C   UNL     1      -1.569  14.278  23.580  0.00  0.00    +0.000 A 
ATOM     30  C   UNL     1      -0.898  13.876  22.422  0.00  0.00    +0.000 A 
ENDBRANCH  24  25
ENDBRANCH   9  24
TORSDOF 4
ENDMDL
MODEL 4
REMARK VINA RESULT:      -7.1      3.937      5.646
REMARK  Name = 
REMARK  6 active torsions:
REMARK  status: ('A' for Active; 'I' for Inactive)
REMARK    1  A    between atoms: C_1  and  O_2
REMARK    2  A    between atoms: O_2  and  C_3
REMARK    3  A    between atoms: N_11  and  C_12
REMARK    4  A    between atoms: C_12  and  C_13
REMARK    5  A    between atoms: C_26  and  O_27
REMARK    6  A    between atoms: O_27  and  C_28
REMARK                            x       y       z     vdW  Elec       q    Type
REMARK                         _______ _______ _______ _____ _____    ______ ____
ROOT
ATOM      1  C   UNL     1       2.399   7.198  18.692  0.00  0.00    +0.000 A 
ATOM      2  C   UNL     1       2.114   8.561  18.526  0.00  0.00    +0.000 A 
ATOM      3  C   UNL     1       1.570   9.326  19.537  0.00  0.00    +0.000 A 
ATOM      4  N   UNL     1       1.391  10.629  19.315  0.00  0.00    +0.000 NA
ATOM      5  C   UNL     1       0.960  11.384  20.332  0.00  0.00    +0.000 A 
ATOM      6  N   UNL     1       0.879  12.741  20.151  0.00  0.00    +0.000 N 
ATOM      7  C   UNL     1       0.776  13.328  18.815  0.00  0.00    +0.000 C 
ATOM      8  C   UNL     1      -0.470  14.256  18.710  0.00  0.00    +0.000 C 
ATOM      9  N   UNL     1      -0.672  15.210  19.836  0.00  0.00    +0.000 NA
ATOM     10  C   UNL     1      -0.657  14.412  21.086  0.00  0.00    +0.000 C 
ATOM     11  C   UNL     1       0.636  13.605  21.301  0.00  0.00    +0.000 C 
ATOM     12  N   UNL     1       0.648  10.875  21.528  0.00  0.00    +0.000 NA
ATOM     13  C   UNL     1       0.773   9.562  21.720  0.00  0.00    +0.000 A 
ATOM     14  N   UNL     1       0.466   9.115  23.010  0.00  0.00    +0.000 N 
ATOM     15  C   UNL     1       1.265   8.704  20.741  0.00  0.00    +0.000 A 
ATOM     16  C   UNL     1       1.469   7.315  20.906  0.00  0.00    +0.000 A 
ATOM     17  C   UNL     1       2.029   6.550  19.882  0.00  0.00    +0.000 A 
ATOM     18  H   UNL     1       0.102   9.923  23.515  0.00  0.00    +0.000 HD
ATOM     19  H   UNL     1      -0.199   8.353  22.996  0.00  0.00    +0.000 HD
ENDROOT
BRANCH   1  21
ATOM     20  C   UNL     1       4.415   6.740  17.558  0.00  0.00    +0.000 C 
ATOM     21  O   UNL     1       3.020   6.464  17.707  0.00  0.00    +0.000 OA
ENDBRANCH   1  21
BRANCH  17  22
ATOM     22  O   UNL     1       2.259   5.200  19.980  0.00  0.00    +0.000 OA
ATOM     23  C   UNL     1       1.196   4.394  20.485  0.00  0.00    +0.000 C 
ENDBRANCH  17  22
BRANCH   9  24
ATOM     24  C   UNL     1       0.371  16.257  19.808  0.00  0.00    +0.000 C 
BRANCH  24  25
ATOM     25  C   UNL     1       0.454  17.060  18.524  0.00  0.00    +0.000 A 
ATOM     26  C   UNL     1      -0.677  17.743  18.042  0.00  0.00    +0.000 A 
ATOM     27  C   UNL     1      -0.603  18.518  16.883  0.00  0.00    +0.000 A 
ATOM     28  C   UNL     1       0.603  18.630  16.195  0.00  0.00    +0.000 A 
ATOM     29  C   UNL     1       1.734  17.962  16.665  0.00  0.00    +0.000 A 
ATOM     30  C   UNL     1       1.659  17.178  17.819  0.00  0.00    +0.000 A 
ENDBRANCH  24  25
ENDBRANCH   9  24
TORSDOF 4
ENDMDL
MODEL 5
REMARK VINA RESULT:      -7.1      3.818      5.467
REMARK  Name = 
REMARK  6 active torsions:
REMARK  status: ('A' for Active; 'I' for Inactive)
REMARK    1  A    between atoms: C_1  and  O_2
REMARK    2  A    between atoms: O_2  and  C_3
REMARK    3  A    between atoms: N_11  and  C_12
REMARK    4  A    between atoms: C_12  and  C_13
REMARK    5  A    between atoms: C_26  and  O_27
REMARK    6  A    between atoms: O_27  and  C_28
REMARK                            x       y       z     vdW  Elec       q    Type
REMARK                         _______ _______ _______ _____ _____    ______ ____
ROOT
ATOM      1  C   UNL     1       2.505   6.925  19.105  0.00  0.00    +0.000 A 
ATOM      2  C   UNL     1       2.241   8.284  18.882  0.00  0.00    +0.000 A 
ATOM      3  C   UNL     1       1.480   9.037  19.753  0.00  0.00    +0.000 A 
ATOM      4  N   UNL     1       1.332  10.338  19.498  0.00  0.00    +0.000 NA
ATOM      5  C   UNL     1       0.681  11.082  20.399  0.00  0.00    +0.000 A 
ATOM      6  N   UNL     1       0.619  12.439  20.206  0.00  0.00    +0.000 N 
ATOM      7  C   UNL     1       0.795  13.029  18.879  0.00  0.00    +0.000 C 
ATOM      8  C   UNL     1      -0.413  13.938  18.508  0.00  0.00    +0.000 C 
ATOM      9  N   UNL     1      -0.867  14.885  19.565  0.00  0.00    +0.000 NA
ATOM     10  C   UNL     1      -1.108  14.082  20.789  0.00  0.00    +0.000 C 
ATOM     11  C   UNL     1       0.120  13.295  21.276  0.00  0.00    +0.000 C 
ATOM     12  N   UNL     1       0.127  10.564  21.500  0.00  0.00    +0.000 NA
ATOM     13  C   UNL     1       0.230   9.253  21.714  0.00  0.00    +0.000 A 
ATOM     14  N   UNL     1      -0.340   8.797  22.908  0.00  0.00    +0.000 N 
ATOM     15  C   UNL     1       0.933   8.406  20.863  0.00  0.00    +0.000 A 
ATOM     16  C   UNL     1       1.119   7.020  21.068  0.00  0.00    +0.000 A 
ATOM     17  C   UNL     1       1.898   6.267  20.188  0.00  0.00    +0.000 A 
ATOM     18  H   UNL     1      -0.817   9.597  23.323  0.00  0.00    +0.000 HD
ATOM     19  H   UNL     1      -0.975   8.024  22.751  0.00  0.00    +0.000 HD
ENDROOT
BRANCH   1  21
ATOM     20  C   UNL     1       4.063   7.000  17.337  0.00  0.00    +0.000 C 
ATOM     21  O   UNL     1       3.335   6.204  18.276  0.00  0.00    +0.000 OA
ENDBRANCH   1  21
BRANCH  17  22
ATOM     22  O   UNL     1       2.123   4.921  20.333  0.00  0.00    +0.000 OA
ATOM     23  C   UNL     1       0.978   4.080  20.466  0.00  0.00    +0.000 C 
ENDBRANCH  17  22
BRANCH   9  24
ATOM     24  C   UNL     1       0.140  15.947  19.762  0.00  0.00    +0.000 C 
BRANCH  24  25
ATOM     25  C   UNL     1       0.302  16.914  18.604  0.00  0.00    +0.000 A 
ATOM     26  C   UNL     1       1.559  17.091  18.000  0.00  0.00    +0.000 A 
ATOM     27  C   UNL     1       1.712  17.948  16.908  0.00  0.00    +0.000 A 
ATOM     28  C   UNL     1       0.611  18.630  16.398  0.00  0.00    +0.000 A 
ATOM     29  C   UNL     1      -0.643  18.460  16.984  0.00  0.00    +0.000 A 
ATOM     30  C   UNL     1      -0.796  17.611  18.083  0.00  0.00    +0.000 A 
ENDBRANCH  24  25
ENDBRANCH   9  24
TORSDOF 4
ENDMDL
MODEL 6
REMARK VINA RESULT:      -7.0      3.942      9.610
REMARK  Name = 
REMARK  6 active torsions:
REMARK  status: ('A' for Active; 'I' for Inactive)
REMARK    1  A    between atoms: C_1  and  O_2
REMARK    2  A    between atoms: O_2  and  C_3
REMARK    3  A    between atoms: N_11  and  C_12
REMARK    4  A    between atoms: C_12  and  C_13
REMARK    5  A    between atoms: C_26  and  O_27
REMARK    6  A    between atoms: O_27  and  C_28
REMARK                            x       y       z     vdW  Elec       q    Type
REMARK                         _______ _______ _______ _____ _____    ______ ____
ROOT
ATOM      1  C   UNL     1      -2.015  12.376  22.315  0.00  0.00    +0.000 A 
ATOM      2  C   UNL     1      -1.121  11.307  22.158  0.00  0.00    +0.000 A 
ATOM      3  C   UNL     1      -0.743  10.842  20.915  0.00  0.00    +0.000 A 
ATOM      4  N   UNL     1       0.162   9.864  20.855  0.00  0.00    +0.000 NA
ATOM      5  C   UNL     1       0.601   9.489  19.649  0.00  0.00    +0.000 A 
ATOM      6  N   UNL     1       1.612   8.565  19.578  0.00  0.00    +0.000 N 
ATOM      7  C   UNL     1       1.887   7.649  20.684  0.00  0.00    +0.000 C 
ATOM      8  C   UNL     1       1.865   6.169  20.201  0.00  0.00    +0.000 C 
ATOM      9  N   UNL     1       2.610   5.881  18.943  0.00  0.00    +0.000 NA
ATOM     10  C   UNL     1       2.105   6.827  17.917  0.00  0.00    +0.000 C 
ATOM     11  C   UNL     1       2.262   8.309  18.297  0.00  0.00    +0.000 C 
ATOM     12  N   UNL     1       0.124  10.009  18.513  0.00  0.00    +0.000 NA
ATOM     13  C   UNL     1      -0.824  10.943  18.583  0.00  0.00    +0.000 A 
ATOM     14  N   UNL     1      -1.239  11.465  17.352  0.00  0.00    +0.000 N 
ATOM     15  C   UNL     1      -1.304  11.437  19.792  0.00  0.00    +0.000 A 
ATOM     16  C   UNL     1      -2.268  12.462  19.925  0.00  0.00    +0.000 A 
ATOM     17  C   UNL     1      -2.638  12.933  21.185  0.00  0.00    +0.000 A 
ATOM     18  H   UNL     1      -0.767  10.916  16.634  0.00  0.00    +0.000 HD
ATOM     19  H   UNL     1      -2.245  11.431  17.249  0.00  0.00    +0.000 HD
ENDROOT
BRANCH   1  21
ATOM     20  C   UNL     1      -3.522  12.366  24.128  0.00  0.00    +0.000 C 
ATOM     21  O   UNL     1      -2.320  12.887  23.556  0.00  0.00    +0.000 OA
ENDBRANCH   1  21
BRANCH  17  22
ATOM     22  O   UNL     1      -3.561  13.930  21.384  0.00  0.00    +0.000 OA
ATOM     23  C   UNL     1      -4.885  13.693  20.909  0.00  0.00    +0.000 C 
ENDBRANCH  17  22
BRANCH   9  24
ATOM     24  C   UNL     1       4.064   6.004  19.173  0.00  0.00    +0.000 C 
BRANCH  24  25
ATOM     25  C   UNL     1       4.946   5.560  18.021  0.00  0.00    +0.000 A 
ATOM     26  C   UNL     1       6.085   6.306  17.674  0.00  0.00    +0.000 A 
ATOM     27  C   UNL     1       6.926   5.887  16.642  0.00  0.00    +0.000 A 
ATOM     28  C   UNL     1       6.647   4.712  15.949  0.00  0.00    +0.000 A 
ATOM     29  C   UNL     1       5.522   3.959  16.286  0.00  0.00    +0.000 A 
ATOM     30  C   UNL     1       4.674   4.383  17.312  0.00  0.00    +0.000 A 
ENDBRANCH  24  25
ENDBRANCH   9  24
TORSDOF 4
ENDMDL
MODEL 7
REMARK VINA RESULT:      -7.0      4.241     10.252
REMARK  Name = 
REMARK  6 active torsions:
REMARK  status: ('A' for Active; 'I' for Inactive)
REMARK    1  A    between atoms: C_1  and  O_2
REMARK    2  A    between atoms: O_2  and  C_3
REMARK    3  A    between atoms: N_11  and  C_12
REMARK    4  A    between atoms: C_12  and  C_13
REMARK    5  A    between atoms: C_26  and  O_27
REMARK    6  A    between atoms: O_27  and  C_28
REMARK                            x       y       z     vdW  Elec       q    Type
REMARK                         _______ _______ _______ _____ _____    ______ ____
ROOT
ATOM      1  C   UNL     1      -0.735  10.949  18.404  0.00  0.00    +0.000 A 
ATOM      2  C   UNL     1       0.240  10.117  17.836  0.00  0.00    +0.000 A 
ATOM      3  C   UNL     1       0.993   9.244  18.596  0.00  0.00    +0.000 A 
ATOM      4  N   UNL     1       1.854   8.443  17.967  0.00  0.00    +0.000 NA
ATOM      5  C   UNL     1       2.505   7.528  18.695  0.00  0.00    +0.000 A 
ATOM      6  N   UNL     1       3.307   6.624  18.046  0.00  0.00    +0.000 N 
ATOM      7  C   UNL     1       3.847   6.902  16.715  0.00  0.00    +0.000 C 
ATOM      8  C   UNL     1       5.397   6.760  16.702  0.00  0.00    +0.000 C 
ATOM      9  N   UNL     1       5.949   5.546  17.366  0.00  0.00    +0.000 NA
ATOM     10  C   UNL     1       5.381   5.509  18.737  0.00  0.00    +0.000 C 
ATOM     11  C   UNL     1       3.844   5.484  18.780  0.00  0.00    +0.000 C 
ATOM     12  N   UNL     1       2.372   7.434  20.021  0.00  0.00    +0.000 NA
ATOM     13  C   UNL     1       1.555   8.280  20.647  0.00  0.00    +0.000 A 
ATOM     14  N   UNL     1       1.440   8.087  22.028  0.00  0.00    +0.000 N 
ATOM     15  C   UNL     1       0.794   9.228  19.970  0.00  0.00    +0.000 A 
ATOM     16  C   UNL     1      -0.127  10.113  20.575  0.00  0.00    +0.000 A 
ATOM     17  C   UNL     1      -0.892  10.986  19.800  0.00  0.00    +0.000 A 
ATOM     18  H   UNL     1       2.117   7.366  22.275  0.00  0.00    +0.000 HD
ATOM     19  H   UNL     1       1.601   8.944  22.543  0.00  0.00    +0.000 HD
ENDROOT
BRANCH   1  21
ATOM     20  C   UNL     1      -2.595  11.059  16.958  0.00  0.00    +0.000 C 
ATOM     21  O   UNL     1      -1.539  11.753  17.628  0.00  0.00    +0.000 OA
ENDBRANCH   1  21
BRANCH  17  22
ATOM     22  O   UNL     1      -1.807  11.865  20.323  0.00  0.00    +0.000 OA
ATOM     23  C   UNL     1      -1.295  13.035  20.960  0.00  0.00    +0.000 C 
ENDBRANCH  17  22
BRANCH   9  24
ATOM     24  C   UNL     1       5.623   4.342  16.576  0.00  0.00    +0.000 C 
BRANCH  24  25
ATOM     25  C   UNL     1       6.082   4.368  15.130  0.00  0.00    +0.000 A 
ATOM     26  C   UNL     1       7.308   4.964  14.787  0.00  0.00    +0.000 A 
ATOM     27  C   UNL     1       7.760   4.960  13.466  0.00  0.00    +0.000 A 
ATOM     28  C   UNL     1       7.000   4.350  12.472  0.00  0.00    +0.000 A 
ATOM     29  C   UNL     1       5.784   3.750  12.798  0.00  0.00    +0.000 A 
ATOM     30  C   UNL     1       5.325   3.763  14.118  0.00  0.00    +0.000 A 
ENDBRANCH  24  25
ENDBRANCH   9  24
TORSDOF 4
ENDMDL
MODEL 8
REMARK VINA RESULT:      -7.0      3.983      9.721
REMARK  Name = 
REMARK  6 active torsions:
REMARK  status: ('A' for Active; 'I' for Inactive)
REMARK    1  A    between atoms: C_1  and  O_2
REMARK    2  A    between atoms: O_2  and  C_3
REMARK    3  A    between atoms: N_11  and  C_12
REMARK    4  A    between atoms: C_12  and  C_13
REMARK    5  A    between atoms: C_26  and  O_27
REMARK    6  A    between atoms: O_27  and  C_28
REMARK                            x       y       z     vdW  Elec       q    Type
REMARK                         _______ _______ _______ _____ _____    ______ ____
ROOT
ATOM      1  C   UNL     1      -1.987  12.555  22.165  0.00  0.00    +0.000 A 
ATOM      2  C   UNL     1      -1.082  11.493  22.023  0.00  0.00    +0.000 A 
ATOM      3  C   UNL     1      -0.749  10.972  20.789  0.00  0.00    +0.000 A 
ATOM      4  N   UNL     1       0.168  10.005  20.740  0.00  0.00    +0.000 NA
ATOM      5  C   UNL     1       0.562   9.576  19.535  0.00  0.00    +0.000 A 
ATOM      6  N   UNL     1       1.584   8.664  19.467  0.00  0.00    +0.000 N 
ATOM      7  C   UNL     1       1.920   7.808  20.605  0.00  0.00    +0.000 C 
ATOM      8  C   UNL     1       1.902   6.306  20.196  0.00  0.00    +0.000 C 
ATOM      9  N   UNL     1       2.598   5.966  18.924  0.00  0.00    +0.000 NA
ATOM     10  C   UNL     1       2.036   6.852  17.874  0.00  0.00    +0.000 C 
ATOM     11  C   UNL     1       2.184   8.354  18.174  0.00  0.00    +0.000 C 
ATOM     12  N   UNL     1       0.029  10.032  18.397  0.00  0.00    +0.000 NA
ATOM     13  C   UNL     1      -0.930  10.954  18.461  0.00  0.00    +0.000 A 
ATOM     14  N   UNL     1      -1.405  11.408  17.225  0.00  0.00    +0.000 N 
ATOM     15  C   UNL     1      -1.367  11.501  19.663  0.00  0.00    +0.000 A 
ATOM     16  C   UNL     1      -2.341  12.518  19.787  0.00  0.00    +0.000 A 
ATOM     17  C   UNL     1      -2.665  13.047  21.037  0.00  0.00    +0.000 A 
ATOM     18  H   UNL     1      -0.955  10.830  16.515  0.00  0.00    +0.000 HD
ATOM     19  H   UNL     1      -2.413  11.354  17.166  0.00  0.00    +0.000 HD
ENDROOT
BRANCH   1  21
ATOM     20  C   UNL     1      -1.296  14.112  23.795  0.00  0.00    +0.000 C 
ATOM     21  O   UNL     1      -2.247  13.124  23.391  0.00  0.00    +0.000 OA
ENDBRANCH   1  21
BRANCH  17  22
ATOM     22  O   UNL     1      -3.596  14.038  21.225  0.00  0.00    +0.000 OA
ATOM     23  C   UNL     1      -4.941  13.748  20.850  0.00  0.00    +0.000 C 
ENDBRANCH  17  22
BRANCH   9  24
ATOM     24  C   UNL     1       4.058   6.121  19.085  0.00  0.00    +0.000 C 
BRANCH  24  25
ATOM     25  C   UNL     1       4.901   5.577  17.946  0.00  0.00    +0.000 A 
ATOM     26  C   UNL     1       4.503   4.415  17.263  0.00  0.00    +0.000 A 
ATOM     27  C   UNL     1       5.248   3.928  16.188  0.00  0.00    +0.000 A 
ATOM     28  C   UNL     1       6.394   4.601  15.773  0.00  0.00    +0.000 A 
ATOM     29  C   UNL     1       6.799   5.758  16.439  0.00  0.00    +0.000 A 
ATOM     30  C   UNL     1       6.059   6.241  17.522  0.00  0.00    +0.000 A 
ENDBRANCH  24  25
ENDBRANCH   9  24
TORSDOF 4
ENDMDL
MODEL 9
REMARK VINA RESULT:      -6.9      4.376     10.528
REMARK  Name = 
REMARK  6 active torsions:
REMARK  status: ('A' for Active; 'I' for Inactive)
REMARK    1  A    between atoms: C_1  and  O_2
REMARK    2  A    between atoms: O_2  and  C_3
REMARK    3  A    between atoms: N_11  and  C_12
REMARK    4  A    between atoms: C_12  and  C_13
REMARK    5  A    between atoms: C_26  and  O_27
REMARK    6  A    between atoms: O_27  and  C_28
REMARK                            x       y       z     vdW  Elec       q    Type
REMARK                         _______ _______ _______ _____ _____    ______ ____
ROOT
ATOM      1  C   UNL     1       0.850  11.604  18.931  0.00  0.00    +0.000 A 
ATOM      2  C   UNL     1       1.637  10.675  18.235  0.00  0.00    +0.000 A 
ATOM      3  C   UNL     1       1.909   9.419  18.739  0.00  0.00    +0.000 A 
ATOM      4  N   UNL     1       2.612   8.575  17.983  0.00  0.00    +0.000 NA
ATOM      5  C   UNL     1       2.785   7.327  18.432  0.00  0.00    +0.000 A 
ATOM      6  N   UNL     1       3.407   6.417  17.615  0.00  0.00    +0.000 N 
ATOM      7  C   UNL     1       4.287   6.846  16.528  0.00  0.00    +0.000 C 
ATOM      8  C   UNL     1       5.688   6.178  16.650  0.00  0.00    +0.000 C 
ATOM      9  N   UNL     1       5.694   4.715  16.927  0.00  0.00    +0.000 NA
ATOM     10  C   UNL     1       4.850   4.500  18.129  0.00  0.00    +0.000 C 
ATOM     11  C   UNL     1       3.405   5.005  17.981  0.00  0.00    +0.000 C 
ATOM     12  N   UNL     1       2.338   6.920  19.624  0.00  0.00    +0.000 NA
ATOM     13  C   UNL     1       1.689   7.790  20.397  0.00  0.00    +0.000 A 
ATOM     14  N   UNL     1       1.218   7.274  21.610  0.00  0.00    +0.000 N 
ATOM     15  C   UNL     1       1.413   9.093  19.994  0.00  0.00    +0.000 A 
ATOM     16  C   UNL     1       0.685  10.040  20.750  0.00  0.00    +0.000 A 
ATOM     17  C   UNL     1       0.405  11.304  20.230  0.00  0.00    +0.000 A 
ATOM     18  H   UNL     1       1.579   6.323  21.678  0.00  0.00    +0.000 HD
ATOM     19  H   UNL     1       1.506   7.840  22.398  0.00  0.00    +0.000 HD
ENDROOT
BRANCH   1  21
ATOM     20  C   UNL     1       1.607  13.735  18.265  0.00  0.00    +0.000 C 
ATOM     21  O   UNL     1       0.514  12.821  18.383  0.00  0.00    +0.000 OA
ENDBRANCH   1  21
BRANCH  17  22
ATOM     22  O   UNL     1      -0.302  12.266  20.907  0.00  0.00    +0.000 OA
ATOM     23  C   UNL     1      -1.712  12.078  21.021  0.00  0.00    +0.000 C 
ENDBRANCH  17  22
BRANCH   9  24
ATOM     24  C   UNL     1       5.212   3.971  15.745  0.00  0.00    +0.000 C 
BRANCH  24  25
ATOM     25  C   UNL     1       6.029   4.158  14.480  0.00  0.00    +0.000 A 
ATOM     26  C   UNL     1       5.648   3.514  13.290  0.00  0.00    +0.000 A 
ATOM     27  C   UNL     1       6.369   3.709  12.110  0.00  0.00    +0.000 A 
ATOM     28  C   UNL     1       7.472   4.558  12.100  0.00  0.00    +0.000 A 
ATOM     29  C   UNL     1       7.858   5.208  13.273  0.00  0.00    +0.000 A 
ATOM     30  C   UNL     1       7.144   5.005  14.457  0.00  0.00    +0.000 A 
ENDBRANCH  24  25
ENDBRANCH   9  24
TORSDOF 4
ENDMDL
