MODEL 1
REMARK VINA RESULT:      -8.4      0.000      0.000
REMARK  Name = 
REMARK  7 active torsions:
REMARK  status: ('A' for Active; 'I' for Inactive)
REMARK    1  A    between atoms: C_1  and  C_2
REMARK    2  A    between atoms: C_5  and  C_6
REMARK    3  A    between atoms: C_6  and  C_8
REMARK    4  A    between atoms: C_8  and  C_9
REMARK    5  A    between atoms: C_9  and  O_10
REMARK    6  A    between atoms: N_13  and  C_14
REMARK    7  A    between atoms: C_14  and  C_15
REMARK                            x       y       z     vdW  Elec       q    Type
REMARK                         _______ _______ _______ _____ _____    ______ ____
ROOT
ATOM      1  C   UNL     1       6.684   6.480  17.805  0.00  0.00    +0.000 C 
ATOM      2  C   UNL     1       6.303   5.357  18.816  0.00  0.00    +0.000 C 
ATOM      3  O   UNL     1       6.611   5.306  19.998  0.00  0.00    +0.000 OA
ATOM      4  N   UNL     1       5.394   4.495  18.119  0.00  0.00    +0.000 N 
ATOM      5  C   UNL     1       5.789   4.588  16.745  0.00  0.00    +0.000 A 
ATOM      6  C   UNL     1       5.553   3.662  15.745  0.00  0.00    +0.000 A 
ATOM      7  C   UNL     1       6.241   3.817  14.535  0.00  0.00    +0.000 A 
ATOM      8  C   UNL     1       7.130   4.888  14.341  0.00  0.00    +0.000 A 
ATOM      9  C   UNL     1       7.321   5.840  15.341  0.00  0.00    +0.000 A 
ATOM     10  C   UNL     1       6.641   5.681  16.539  0.00  0.00    +0.000 A 
ENDROOT
BRANCH   1  11
ATOM     11  O   UNL     1       5.554   7.371  17.842  0.00  0.00    +0.000 OA
ATOM     12  H   UNL     1       5.017   7.194  17.050  0.00  0.00    +0.000 HD
ENDBRANCH   1  11
BRANCH   1  13
ATOM     13  C   UNL     1       7.962   7.216  18.150  0.00  0.00    +0.000 C 
BRANCH  13  14
ATOM     14  C   UNL     1       7.885   8.681  17.751  0.00  0.00    +0.000 C 
ATOM     15  O   UNL     1       7.093   9.111  16.919  0.00  0.00    +0.000 OA
BRANCH  14  20
ATOM     16  C   UNL     1      11.292  12.636  20.231  0.00  0.00    +0.000 C 
ATOM     17  C   UNL     1      10.448  11.582  19.577  0.00  0.00    +0.000 A 
ATOM     18  C   UNL     1      10.302  11.536  18.188  0.00  0.00    +0.000 A 
ATOM     19  C   UNL     1       9.471  10.576  17.605  0.00  0.00    +0.000 A 
ATOM     20  C   UNL     1       8.786   9.657  18.410  0.00  0.00    +0.000 A 
ATOM     21  C   UNL     1       8.941   9.695  19.796  0.00  0.00    +0.000 A 
ATOM     22  C   UNL     1       9.775  10.651  20.377  0.00  0.00    +0.000 A 
ENDBRANCH  14  20
ENDBRANCH  13  14
ENDBRANCH   1  13
BRANCH   4  23
ATOM     23  C   UNL     1       4.011   4.936  18.381  0.00  0.00    +0.000 C 
BRANCH  23  24
ATOM     24  C   UNL     1       3.168   4.129  19.323  0.00  0.00    +0.000 A 
ATOM     25  C   UNL     1       2.827   4.516  20.622  0.00  0.00    +0.000 A 
ATOM     26  C   UNL     1       1.887   3.775  21.348  0.00  0.00    +0.000 A 
ATOM     27  C   UNL     1       1.272   2.653  20.786  0.00  0.00    +0.000 A 
ATOM     28  C   UNL     1       1.602   2.261  19.494  0.00  0.00    +0.000 A 
ATOM     29  C   UNL     1       2.540   2.996  18.781  0.00  0.00    +0.000 A 
ATOM     30  F   UNL     1       2.805   2.636  17.515  0.00  0.00    +0.000 F 
ENDBRANCH  23  24
ENDBRANCH   4  23
TORSDOF 6
ENDMDL
MODEL 2
REMARK VINA RESULT:      -8.3      1.004      1.132
REMARK  Name = 
REMARK  7 active torsions:
REMARK  status: ('A' for Active; 'I' for Inactive)
REMARK    1  A    between atoms: C_1  and  C_2
REMARK    2  A    between atoms: C_5  and  C_6
REMARK    3  A    between atoms: C_6  and  C_8
REMARK    4  A    between atoms: C_8  and  C_9
REMARK    5  A    between atoms: C_9  and  O_10
REMARK    6  A    between atoms: N_13  and  C_14
REMARK    7  A    between atoms: C_14  and  C_15
REMARK                            x       y       z     vdW  Elec       q    Type
REMARK                         _______ _______ _______ _____ _____    ______ ____
ROOT
ATOM      1  C   UNL     1       6.927   6.529  18.012  0.00  0.00    +0.000 C 
ATOM      2  C   UNL     1       6.755   5.411  19.085  0.00  0.00    +0.000 C 
ATOM      3  O   UNL     1       7.242   5.398  20.206  0.00  0.00    +0.000 OA
ATOM      4  N   UNL     1       5.790   4.498  18.548  0.00  0.00    +0.000 N 
ATOM      5  C   UNL     1       5.965   4.580  17.128  0.00  0.00    +0.000 A 
ATOM      6  C   UNL     1       5.620   3.624  16.190  0.00  0.00    +0.000 A 
ATOM      7  C   UNL     1       6.107   3.782  14.886  0.00  0.00    +0.000 A 
ATOM      8  C   UNL     1       6.907   4.886  14.543  0.00  0.00    +0.000 A 
ATOM      9  C   UNL     1       7.206   5.865  15.488  0.00  0.00    +0.000 A 
ATOM     10  C   UNL     1       6.726   5.703  16.779  0.00  0.00    +0.000 A 
ENDROOT
BRANCH   1  11
ATOM     11  O   UNL     1       5.778   7.372  18.210  0.00  0.00    +0.000 OA
ATOM     12  H   UNL     1       5.397   7.147  19.078  0.00  0.00    +0.000 HD
ENDBRANCH   1  11
BRANCH   1  13
ATOM     13  C   UNL     1       8.209   7.324  18.146  0.00  0.00    +0.000 C 
BRANCH  13  14
ATOM     14  C   UNL     1       7.988   8.793  17.821  0.00  0.00    +0.000 C 
ATOM     15  O   UNL     1       7.097   9.190  17.076  0.00  0.00    +0.000 OA
BRANCH  14  20
ATOM     16  C   UNL     1      11.305  12.906  20.162  0.00  0.00    +0.000 C 
ATOM     17  C   UNL     1      10.484  11.811  19.546  0.00  0.00    +0.000 A 
ATOM     18  C   UNL     1      10.359  11.699  18.159  0.00  0.00    +0.000 A 
ATOM     19  C   UNL     1       9.550  10.701  17.609  0.00  0.00    +0.000 A 
ATOM     20  C   UNL     1       8.865   9.811  18.446  0.00  0.00    +0.000 A 
ATOM     21  C   UNL     1       9.000   9.915  19.831  0.00  0.00    +0.000 A 
ATOM     22  C   UNL     1       9.812  10.908  20.379  0.00  0.00    +0.000 A 
ENDBRANCH  14  20
ENDBRANCH  13  14
ENDBRANCH   1  13
BRANCH   4  23
ATOM     23  C   UNL     1       4.445   4.886  19.014  0.00  0.00    +0.000 C 
BRANCH  23  24
ATOM     24  C   UNL     1       3.320   3.907  18.850  0.00  0.00    +0.000 A 
ATOM     25  C   UNL     1       3.302   2.613  19.379  0.00  0.00    +0.000 A 
ATOM     26  C   UNL     1       2.130   1.851  19.322  0.00  0.00    +0.000 A 
ATOM     27  C   UNL     1       0.965   2.371  18.750  0.00  0.00    +0.000 A 
ATOM     28  C   UNL     1       0.972   3.657  18.223  0.00  0.00    +0.000 A 
ATOM     29  C   UNL     1       2.139   4.407  18.277  0.00  0.00    +0.000 A 
ATOM     30  F   UNL     1       2.111   5.666  17.814  0.00  0.00    +0.000 F 
ENDBRANCH  23  24
ENDBRANCH   4  23
TORSDOF 6
ENDMDL
MODEL 3
REMARK VINA RESULT:      -8.3      3.931      5.165
REMARK  Name = 
REMARK  7 active torsions:
REMARK  status: ('A' for Active; 'I' for Inactive)
REMARK    1  A    between atoms: C_1  and  C_2
REMARK    2  A    between atoms: C_5  and  C_6
REMARK    3  A    between atoms: C_6  and  C_8
REMARK    4  A    between atoms: C_8  and  C_9
REMARK    5  A    between atoms: C_9  and  O_10
REMARK    6  A    between atoms: N_13  and  C_14
REMARK    7  A    between atoms: C_14  and  C_15
REMARK                            x       y       z     vdW  Elec       q    Type
REMARK                         _______ _______ _______ _____ _____    ______ ____
ROOT
ATOM      1  C   UNL     1       3.961   6.043  17.684  0.00  0.00    +0.000 C 
ATOM      2  C   UNL     1       4.451   5.018  18.751  0.00  0.00    +0.000 C 
ATOM      3  O   UNL     1       4.449   5.173  19.964  0.00  0.00    +0.000 OA
ATOM      4  N   UNL     1       4.745   3.814  18.031  0.00  0.00    +0.000 N 
ATOM      5  C   UNL     1       5.152   4.261  16.732  0.00  0.00    +0.000 A 
ATOM      6  C   UNL     1       5.940   3.576  15.824  0.00  0.00    +0.000 A 
ATOM      7  C   UNL     1       6.436   4.286  14.723  0.00  0.00    +0.000 A 
ATOM      8  C   UNL     1       6.128   5.645  14.541  0.00  0.00    +0.000 A 
ATOM      9  C   UNL     1       5.294   6.308  15.439  0.00  0.00    +0.000 A 
ATOM     10  C   UNL     1       4.808   5.603  16.530  0.00  0.00    +0.000 A 
ENDROOT
BRANCH   1  11
ATOM     11  O   UNL     1       2.595   5.659  17.444  0.00  0.00    +0.000 OA
ATOM     12  H   UNL     1       2.418   4.863  17.974  0.00  0.00    +0.000 HD
ENDBRANCH   1  11
BRANCH   1  13
ATOM     13  C   UNL     1       4.044   7.489  18.130  0.00  0.00    +0.000 C 
BRANCH  13  14
ATOM     14  C   UNL     1       2.716   8.205  17.944  0.00  0.00    +0.000 C 
ATOM     15  O   UNL     1       2.283   8.543  16.847  0.00  0.00    +0.000 OA
BRANCH  14  20
ATOM     16  C   UNL     1      -0.380   9.320  22.694  0.00  0.00    +0.000 C 
ATOM     17  C   UNL     1       0.387   9.000  21.446  0.00  0.00    +0.000 A 
ATOM     18  C   UNL     1       1.165   7.842  21.356  0.00  0.00    +0.000 A 
ATOM     19  C   UNL     1       1.911   7.589  20.202  0.00  0.00    +0.000 A 
ATOM     20  C   UNL     1       1.879   8.494  19.132  0.00  0.00    +0.000 A 
ATOM     21  C   UNL     1       1.094   9.644  19.218  0.00  0.00    +0.000 A 
ATOM     22  C   UNL     1       0.346   9.892  20.368  0.00  0.00    +0.000 A 
ENDBRANCH  14  20
ENDBRANCH  13  14
ENDBRANCH   1  13
BRANCH   4  23
ATOM     23  C   UNL     1       3.551   2.949  18.026  0.00  0.00    +0.000 C 
BRANCH  23  24
ATOM     24  C   UNL     1       2.808   2.745  19.313  0.00  0.00    +0.000 A 
ATOM     25  C   UNL     1       3.402   2.422  20.536  0.00  0.00    +0.000 A 
ATOM     26  C   UNL     1       2.638   2.435  21.709  0.00  0.00    +0.000 A 
ATOM     27  C   UNL     1       1.284   2.781  21.678  0.00  0.00    +0.000 A 
ATOM     28  C   UNL     1       0.684   3.106  20.467  0.00  0.00    +0.000 A 
ATOM     29  C   UNL     1       1.445   3.085  19.305  0.00  0.00    +0.000 A 
ATOM     30  F   UNL     1       0.863   3.457  18.154  0.00  0.00    +0.000 F 
ENDBRANCH  23  24
ENDBRANCH   4  23
TORSDOF 6
ENDMDL
MODEL 4
REMARK VINA RESULT:      -8.2      3.936      5.177
REMARK  Name = 
REMARK  7 active torsions:
REMARK  status: ('A' for Active; 'I' for Inactive)
REMARK    1  A    between atoms: C_1  and  C_2
REMARK    2  A    between atoms: C_5  and  C_6
REMARK    3  A    between atoms: C_6  and  C_8
REMARK    4  A    between atoms: C_8  and  C_9
REMARK    5  A    between atoms: C_9  and  O_10
REMARK    6  A    between atoms: N_13  and  C_14
REMARK    7  A    between atoms: C_14  and  C_15
REMARK                            x       y       z     vdW  Elec       q    Type
REMARK                         _______ _______ _______ _____ _____    ______ ____
ROOT
ATOM      1  C   UNL     1       4.017   6.073  17.681  0.00  0.00    +0.000 C 
ATOM      2  C   UNL     1       4.585   5.106  18.764  0.00  0.00    +0.000 C 
ATOM      3  O   UNL     1       4.632   5.310  19.968  0.00  0.00    +0.000 OA
ATOM      4  N   UNL     1       4.884   3.883  18.079  0.00  0.00    +0.000 N 
ATOM      5  C   UNL     1       5.219   4.288  16.746  0.00  0.00    +0.000 A 
ATOM      6  C   UNL     1       5.987   3.590  15.831  0.00  0.00    +0.000 A 
ATOM      7  C   UNL     1       6.412   4.269  14.681  0.00  0.00    +0.000 A 
ATOM      8  C   UNL     1       6.054   5.610  14.461  0.00  0.00    +0.000 A 
ATOM      9  C   UNL     1       5.240   6.285  15.369  0.00  0.00    +0.000 A 
ATOM     10  C   UNL     1       4.825   5.611  16.507  0.00  0.00    +0.000 A 
ENDROOT
BRANCH   1  11
ATOM     11  O   UNL     1       2.654   5.640  17.518  0.00  0.00    +0.000 OA
ATOM     12  H   UNL     1       2.471   5.606  16.563  0.00  0.00    +0.000 HD
ENDBRANCH   1  11
BRANCH   1  13
ATOM     13  C   UNL     1       4.076   7.537  18.066  0.00  0.00    +0.000 C 
BRANCH  13  14
ATOM     14  C   UNL     1       2.722   8.210  17.901  0.00  0.00    +0.000 C 
ATOM     15  O   UNL     1       2.252   8.516  16.809  0.00  0.00    +0.000 OA
BRANCH  14  20
ATOM     16  C   UNL     1      -0.296   9.295  22.708  0.00  0.00    +0.000 C 
ATOM     17  C   UNL     1       0.451   8.983  21.445  0.00  0.00    +0.000 A 
ATOM     18  C   UNL     1       1.213   7.818  21.328  0.00  0.00    +0.000 A 
ATOM     19  C   UNL     1       1.940   7.572  20.161  0.00  0.00    +0.000 A 
ATOM     20  C   UNL     1       1.905   8.492  19.104  0.00  0.00    +0.000 A 
ATOM     21  C   UNL     1       1.135   9.650  19.216  0.00  0.00    +0.000 A 
ATOM     22  C   UNL     1       0.405   9.891  20.380  0.00  0.00    +0.000 A 
ENDBRANCH  14  20
ENDBRANCH  13  14
ENDBRANCH   1  13
BRANCH   4  23
ATOM     23  C   UNL     1       3.717   2.984  18.161  0.00  0.00    +0.000 C 
BRANCH  23  24
ATOM     24  C   UNL     1       2.850   3.046  19.384  0.00  0.00    +0.000 A 
ATOM     25  C   UNL     1       1.518   3.469  19.400  0.00  0.00    +0.000 A 
ATOM     26  C   UNL     1       0.749   3.314  20.558  0.00  0.00    +0.000 A 
ATOM     27  C   UNL     1       1.292   2.728  21.705  0.00  0.00    +0.000 A 
ATOM     28  C   UNL     1       2.615   2.301  21.699  0.00  0.00    +0.000 A 
ATOM     29  C   UNL     1       3.376   2.464  20.549  0.00  0.00    +0.000 A 
ATOM     30  F   UNL     1       4.634   1.995  20.544  0.00  0.00    +0.000 F 
ENDBRANCH  23  24
ENDBRANCH   4  23
TORSDOF 6
ENDMDL
MODEL 5
REMARK VINA RESULT:      -8.1      3.000      5.111
REMARK  Name = 
REMARK  7 active torsions:
REMARK  status: ('A' for Active; 'I' for Inactive)
REMARK    1  A    between atoms: C_1  and  C_2
REMARK    2  A    between atoms: C_5  and  C_6
REMARK    3  A    between atoms: C_6  and  C_8
REMARK    4  A    between atoms: C_8  and  C_9
REMARK    5  A    between atoms: C_9  and  O_10
REMARK    6  A    between atoms: N_13  and  C_14
REMARK    7  A    between atoms: C_14  and  C_15
REMARK                            x       y       z     vdW  Elec       q    Type
REMARK                         _______ _______ _______ _____ _____    ______ ____
ROOT
ATOM      1  C   UNL     1       4.132   4.429  18.135  0.00  0.00    +0.000 C 
ATOM      2  C   UNL     1       4.146   5.401  19.354  0.00  0.00    +0.000 C 
ATOM      3  O   UNL     1       5.126   5.950  19.835  0.00  0.00    +0.000 OA
ATOM      4  N   UNL     1       2.771   5.637  19.682  0.00  0.00    +0.000 N 
ATOM      5  C   UNL     1       2.096   4.431  19.301  0.00  0.00    +0.000 A 
ATOM      6  C   UNL     1       0.888   3.964  19.786  0.00  0.00    +0.000 A 
ATOM      7  C   UNL     1       0.527   2.645  19.479  0.00  0.00    +0.000 A 
ATOM      8  C   UNL     1       1.360   1.833  18.691  0.00  0.00    +0.000 A 
ATOM      9  C   UNL     1       2.551   2.335  18.170  0.00  0.00    +0.000 A 
ATOM     10  C   UNL     1       2.907   3.638  18.479  0.00  0.00    +0.000 A 
ENDROOT
BRANCH   1  11
ATOM     11  O   UNL     1       3.843   5.288  17.018  0.00  0.00    +0.000 OA
ATOM     12  H   UNL     1       3.611   4.718  16.264  0.00  0.00    +0.000 HD
ENDBRANCH   1  11
BRANCH   1  13
ATOM     13  C   UNL     1       5.434   3.685  17.921  0.00  0.00    +0.000 C 
BRANCH  13  14
ATOM     14  C   UNL     1       6.353   4.435  16.969  0.00  0.00    +0.000 C 
ATOM     15  O   UNL     1       6.546   4.088  15.809  0.00  0.00    +0.000 OA
BRANCH  14  20
ATOM     16  C   UNL     1       8.831   9.317  18.821  0.00  0.00    +0.000 C 
ATOM     17  C   UNL     1       8.224   8.044  18.307  0.00  0.00    +0.000 A 
ATOM     18  C   UNL     1       7.438   8.036  17.152  0.00  0.00    +0.000 A 
ATOM     19  C   UNL     1       6.843   6.848  16.720  0.00  0.00    +0.000 A 
ATOM     20  C   UNL     1       7.035   5.663  17.442  0.00  0.00    +0.000 A 
ATOM     21  C   UNL     1       7.829   5.668  18.589  0.00  0.00    +0.000 A 
ATOM     22  C   UNL     1       8.427   6.854  19.016  0.00  0.00    +0.000 A 
ENDBRANCH  14  20
ENDBRANCH  13  14
ENDBRANCH   1  13
BRANCH   4  23
ATOM     23  C   UNL     1       2.303   6.841  18.971  0.00  0.00    +0.000 C 
BRANCH  23  24
ATOM     24  C   UNL     1       1.652   7.935  19.765  0.00  0.00    +0.000 A 
ATOM     25  C   UNL     1       1.501   7.932  21.155  0.00  0.00    +0.000 A 
ATOM     26  C   UNL     1       1.046   9.082  21.810  0.00  0.00    +0.000 A 
ATOM     27  C   UNL     1       0.748  10.244  21.094  0.00  0.00    +0.000 A 
ATOM     28  C   UNL     1       0.897  10.258  19.712  0.00  0.00    +0.000 A 
ATOM     29  C   UNL     1       1.343   9.112  19.066  0.00  0.00    +0.000 A 
ATOM     30  F   UNL     1       1.535   9.162  17.738  0.00  0.00    +0.000 F 
ENDBRANCH  23  24
ENDBRANCH   4  23
TORSDOF 6
ENDMDL
MODEL 6
REMARK VINA RESULT:      -8.1      0.916      1.079
REMARK  Name = 
REMARK  7 active torsions:
REMARK  status: ('A' for Active; 'I' for Inactive)
REMARK    1  A    between atoms: C_1  and  C_2
REMARK    2  A    between atoms: C_5  and  C_6
REMARK    3  A    between atoms: C_6  and  C_8
REMARK    4  A    between atoms: C_8  and  C_9
REMARK    5  A    between atoms: C_9  and  O_10
REMARK    6  A    between atoms: N_13  and  C_14
REMARK    7  A    between atoms: C_14  and  C_15
REMARK                            x       y       z     vdW  Elec       q    Type
REMARK                         _______ _______ _______ _____ _____    ______ ____
ROOT
ATOM      1  C   UNL     1       6.728   6.454  17.776  0.00  0.00    +0.000 C 
ATOM      2  C   UNL     1       6.398   5.300  18.771  0.00  0.00    +0.000 C 
ATOM      3  O   UNL     1       6.729   5.236  19.946  0.00  0.00    +0.000 OA
ATOM      4  N   UNL     1       5.502   4.425  18.073  0.00  0.00    +0.000 N 
ATOM      5  C   UNL     1       5.869   4.557  16.694  0.00  0.00    +0.000 A 
ATOM      6  C   UNL     1       5.642   3.644  15.680  0.00  0.00    +0.000 A 
ATOM      7  C   UNL     1       6.303   3.843  14.461  0.00  0.00    +0.000 A 
ATOM      8  C   UNL     1       7.156   4.944  14.273  0.00  0.00    +0.000 A 
ATOM      9  C   UNL     1       7.337   5.881  15.288  0.00  0.00    +0.000 A 
ATOM     10  C   UNL     1       6.684   5.679  16.495  0.00  0.00    +0.000 A 
ENDROOT
BRANCH   1  11
ATOM     11  O   UNL     1       5.573   7.309  17.851  0.00  0.00    +0.000 OA
ATOM     12  H   UNL     1       5.817   8.082  18.390  0.00  0.00    +0.000 HD
ENDBRANCH   1  11
BRANCH   1  13
ATOM     13  C   UNL     1       7.990   7.220  18.113  0.00  0.00    +0.000 C 
BRANCH  13  14
ATOM     14  C   UNL     1       7.864   8.689  17.740  0.00  0.00    +0.000 C 
ATOM     15  O   UNL     1       7.039   9.111  16.936  0.00  0.00    +0.000 OA
BRANCH  14  20
ATOM     16  C   UNL     1      11.230  12.693  20.197  0.00  0.00    +0.000 C 
ATOM     17  C   UNL     1      10.397  11.628  19.547  0.00  0.00    +0.000 A 
ATOM     18  C   UNL     1      10.199  11.613  18.164  0.00  0.00    +0.000 A 
ATOM     19  C   UNL     1       9.379  10.640  17.586  0.00  0.00    +0.000 A 
ATOM     20  C   UNL     1       8.756   9.678  18.391  0.00  0.00    +0.000 A 
ATOM     21  C   UNL     1       8.963   9.686  19.771  0.00  0.00    +0.000 A 
ATOM     22  C   UNL     1       9.786  10.654  20.346  0.00  0.00    +0.000 A 
ENDBRANCH  14  20
ENDBRANCH  13  14
ENDBRANCH   1  13
BRANCH   4  23
ATOM     23  C   UNL     1       4.112   4.820  18.368  0.00  0.00    +0.000 C 
BRANCH  23  24
ATOM     24  C   UNL     1       3.350   4.041  19.399  0.00  0.00    +0.000 A 
ATOM     25  C   UNL     1       3.794   2.858  19.997  0.00  0.00    +0.000 A 
ATOM     26  C   UNL     1       3.090   2.314  21.077  0.00  0.00    +0.000 A 
ATOM     27  C   UNL     1       1.947   2.945  21.578  0.00  0.00    +0.000 A 
ATOM     28  C   UNL     1       1.499   4.123  20.992  0.00  0.00    +0.000 A 
ATOM     29  C   UNL     1       2.198   4.655  19.917  0.00  0.00    +0.000 A 
ATOM     30  F   UNL     1       1.782   5.822  19.400  0.00  0.00    +0.000 F 
ENDBRANCH  23  24
ENDBRANCH   4  23
TORSDOF 6
ENDMDL
MODEL 7
REMARK VINA RESULT:      -8.1      8.487     10.797
REMARK  Name = 
REMARK  7 active torsions:
REMARK  status: ('A' for Active; 'I' for Inactive)
REMARK    1  A    between atoms: C_1  and  C_2
REMARK    2  A    between atoms: C_5  and  C_6
REMARK    3  A    between atoms: C_6  and  C_8
REMARK    4  A    between atoms: C_8  and  C_9
REMARK    5  A    between atoms: C_9  and  O_10
REMARK    6  A    between atoms: N_13  and  C_14
REMARK    7  A    between atoms: C_14  and  C_15
REMARK                            x       y       z     vdW  Elec       q    Type
REMARK                         _______ _______ _______ _____ _____    ______ ____
ROOT
ATOM      1  C   UNL     1      -0.844  11.876  20.526  0.00  0.00    +0.000 C 
ATOM      2  C   UNL     1       0.600  11.744  19.954  0.00  0.00    +0.000 C 
ATOM      3  O   UNL     1       1.577  12.400  20.284  0.00  0.00    +0.000 OA
ATOM      4  N   UNL     1       0.576  10.599  19.092  0.00  0.00    +0.000 N 
ATOM      5  C   UNL     1      -0.766  10.551  18.591  0.00  0.00    +0.000 A 
ATOM      6  C   UNL     1      -1.200   9.944  17.427  0.00  0.00    +0.000 A 
ATOM      7  C   UNL     1      -2.499  10.230  16.985  0.00  0.00    +0.000 A 
ATOM      8  C   UNL     1      -3.335  11.094  17.712  0.00  0.00    +0.000 A 
ATOM      9  C   UNL     1      -2.899  11.660  18.909  0.00  0.00    +0.000 A 
ATOM     10  C   UNL     1      -1.613  11.378  19.341  0.00  0.00    +0.000 A 
ENDROOT
BRANCH   1  11
ATOM     11  O   UNL     1      -0.889  10.887  21.570  0.00  0.00    +0.000 OA
ATOM     12  H   UNL     1      -0.062  10.960  22.078  0.00  0.00    +0.000 HD
ENDBRANCH   1  11
BRANCH   1  13
ATOM     13  C   UNL     1      -1.170  13.251  21.071  0.00  0.00    +0.000 C 
BRANCH  13  14
ATOM     14  C   UNL     1      -1.586  13.185  22.532  0.00  0.00    +0.000 C 
ATOM     15  O   UNL     1      -0.787  13.238  23.462  0.00  0.00    +0.000 OA
BRANCH  14  20
ATOM     16  C   UNL     1      -7.166  12.895  24.006  0.00  0.00    +0.000 C 
ATOM     17  C   UNL     1      -5.718  12.921  23.614  0.00  0.00    +0.000 A 
ATOM     18  C   UNL     1      -4.721  12.539  24.515  0.00  0.00    +0.000 A 
ATOM     19  C   UNL     1      -3.376  12.619  24.144  0.00  0.00    +0.000 A 
ATOM     20  C   UNL     1      -3.025  13.080  22.869  0.00  0.00    +0.000 A 
ATOM     21  C   UNL     1      -4.021  13.451  21.965  0.00  0.00    +0.000 A 
ATOM     22  C   UNL     1      -5.364  13.366  22.334  0.00  0.00    +0.000 A 
ENDBRANCH  14  20
ENDBRANCH  13  14
ENDBRANCH   1  13
BRANCH   4  23
ATOM     23  C   UNL     1       0.976   9.405  19.861  0.00  0.00    +0.000 C 
BRANCH  23  24
ATOM     24  C   UNL     1       1.794   8.352  19.173  0.00  0.00    +0.000 A 
ATOM     25  C   UNL     1       2.463   8.525  17.958  0.00  0.00    +0.000 A 
ATOM     26  C   UNL     1       3.345   7.540  17.500  0.00  0.00    +0.000 A 
ATOM     27  C   UNL     1       3.577   6.382  18.247  0.00  0.00    +0.000 A 
ATOM     28  C   UNL     1       2.919   6.201  19.458  0.00  0.00    +0.000 A 
ATOM     29  C   UNL     1       2.040   7.179  19.906  0.00  0.00    +0.000 A 
ATOM     30  F   UNL     1       1.456   7.013  21.103  0.00  0.00    +0.000 F 
ENDBRANCH  23  24
ENDBRANCH   4  23
TORSDOF 6
ENDMDL
MODEL 8
REMARK VINA RESULT:      -8.0      4.235      6.400
REMARK  Name = 
REMARK  7 active torsions:
REMARK  status: ('A' for Active; 'I' for Inactive)
REMARK    1  A    between atoms: C_1  and  C_2
REMARK    2  A    between atoms: C_5  and  C_6
REMARK    3  A    between atoms: C_6  and  C_8
REMARK    4  A    between atoms: C_8  and  C_9
REMARK    5  A    between atoms: C_9  and  O_10
REMARK    6  A    between atoms: N_13  and  C_14
REMARK    7  A    between atoms: C_14  and  C_15
REMARK                            x       y       z     vdW  Elec       q    Type
REMARK                         _______ _______ _______ _____ _____    ______ ____
ROOT
ATOM      1  C   UNL     1       4.479   4.627  17.914  0.00  0.00    +0.000 C 
ATOM      2  C   UNL     1       4.577   5.495  19.205  0.00  0.00    +0.000 C 
ATOM      3  O   UNL     1       5.598   5.951  19.699  0.00  0.00    +0.000 OA
ATOM      4  N   UNL     1       3.226   5.777  19.590  0.00  0.00    +0.000 N 
ATOM      5  C   UNL     1       2.476   4.644  19.135  0.00  0.00    +0.000 A 
ATOM      6  C   UNL     1       1.256   4.204  19.616  0.00  0.00    +0.000 A 
ATOM      7  C   UNL     1       0.815   2.935  19.216  0.00  0.00    +0.000 A 
ATOM      8  C   UNL     1       1.582   2.146  18.342  0.00  0.00    +0.000 A 
ATOM      9  C   UNL     1       2.786   2.624  17.829  0.00  0.00    +0.000 A 
ATOM     10  C   UNL     1       3.221   3.878  18.230  0.00  0.00    +0.000 A 
ENDROOT
BRANCH   1  11
ATOM     11  O   UNL     1       4.211   5.588  16.876  0.00  0.00    +0.000 OA
ATOM     12  H   UNL     1       4.433   5.169  16.026  0.00  0.00    +0.000 HD
ENDBRANCH   1  11
BRANCH   1  13
ATOM     13  C   UNL     1       5.732   3.834  17.604  0.00  0.00    +0.000 C 
BRANCH  13  14
ATOM     14  C   UNL     1       6.714   4.648  16.776  0.00  0.00    +0.000 C 
ATOM     15  O   UNL     1       7.523   5.429  17.267  0.00  0.00    +0.000 OA
BRANCH  14  20
ATOM     16  C   UNL     1       6.961   3.954  11.044  0.00  0.00    +0.000 C 
ATOM     17  C   UNL     1       6.869   4.175  12.525  0.00  0.00    +0.000 A 
ATOM     18  C   UNL     1       7.717   5.079  13.172  0.00  0.00    +0.000 A 
ATOM     19  C   UNL     1       7.647   5.232  14.559  0.00  0.00    +0.000 A 
ATOM     20  C   UNL     1       6.727   4.482  15.303  0.00  0.00    +0.000 A 
ATOM     21  C   UNL     1       5.873   3.589  14.656  0.00  0.00    +0.000 A 
ATOM     22  C   UNL     1       5.940   3.441  13.271  0.00  0.00    +0.000 A 
ENDBRANCH  14  20
ENDBRANCH  13  14
ENDBRANCH   1  13
BRANCH   4  23
ATOM     23  C   UNL     1       2.808   7.058  18.990  0.00  0.00    +0.000 C 
BRANCH  23  24
ATOM     24  C   UNL     1       1.810   7.902  19.726  0.00  0.00    +0.000 A 
ATOM     25  C   UNL     1       1.437   7.718  21.061  0.00  0.00    +0.000 A 
ATOM     26  C   UNL     1       0.637   8.672  21.700  0.00  0.00    +0.000 A 
ATOM     27  C   UNL     1       0.211   9.819  21.024  0.00  0.00    +0.000 A 
ATOM     28  C   UNL     1       0.578  10.012  19.698  0.00  0.00    +0.000 A 
ATOM     29  C   UNL     1       1.367   9.059  19.066  0.00  0.00    +0.000 A 
ATOM     30  F   UNL     1       1.758   9.291  17.803  0.00  0.00    +0.000 F 
ENDBRANCH  23  24
ENDBRANCH   4  23
TORSDOF 6
ENDMDL
MODEL 9
REMARK VINA RESULT:      -7.9      1.098      1.257
REMARK  Name = 
REMARK  7 active torsions:
REMARK  status: ('A' for Active; 'I' for Inactive)
REMARK    1  A    between atoms: C_1  and  C_2
REMARK    2  A    between atoms: C_5  and  C_6
REMARK    3  A    between atoms: C_6  and  C_8
REMARK    4  A    between atoms: C_8  and  C_9
REMARK    5  A    between atoms: C_9  and  O_10
REMARK    6  A    between atoms: N_13  and  C_14
REMARK    7  A    between atoms: C_14  and  C_15
REMARK                            x       y       z     vdW  Elec       q    Type
REMARK                         _______ _______ _______ _____ _____    ______ ____
ROOT
ATOM      1  C   UNL     1       6.921   6.591  18.110  0.00  0.00    +0.000 C 
ATOM      2  C   UNL     1       6.855   5.516  19.236  0.00  0.00    +0.000 C 
ATOM      3  O   UNL     1       7.448   5.543  20.304  0.00  0.00    +0.000 OA
ATOM      4  N   UNL     1       5.841   4.587  18.831  0.00  0.00    +0.000 N 
ATOM      5  C   UNL     1       5.878   4.614  17.398  0.00  0.00    +0.000 A 
ATOM      6  C   UNL     1       5.443   3.625  16.535  0.00  0.00    +0.000 A 
ATOM      7  C   UNL     1       5.801   3.732  15.185  0.00  0.00    +0.000 A 
ATOM      8  C   UNL     1       6.564   4.819  14.724  0.00  0.00    +0.000 A 
ATOM      9  C   UNL     1       6.954   5.832  15.598  0.00  0.00    +0.000 A 
ATOM     10  C   UNL     1       6.601   5.720  16.934  0.00  0.00    +0.000 A 
ENDROOT
BRANCH   1  11
ATOM     11  O   UNL     1       5.797   7.445  18.387  0.00  0.00    +0.000 OA
ATOM     12  H   UNL     1       5.087   6.886  18.747  0.00  0.00    +0.000 HD
ENDBRANCH   1  11
BRANCH   1  13
ATOM     13  C   UNL     1       8.210   7.387  18.088  0.00  0.00    +0.000 C 
BRANCH  13  14
ATOM     14  C   UNL     1       7.961   8.839  17.712  0.00  0.00    +0.000 C 
ATOM     15  O   UNL     1       7.157   9.181  16.850  0.00  0.00    +0.000 OA
BRANCH  14  20
ATOM     16  C   UNL     1      10.673  13.128  20.476  0.00  0.00    +0.000 C 
ATOM     17  C   UNL     1      10.012  12.003  19.736  0.00  0.00    +0.000 A 
ATOM     18  C   UNL     1       9.583  12.163  18.416  0.00  0.00    +0.000 A 
ATOM     19  C   UNL     1       8.925  11.117  17.763  0.00  0.00    +0.000 A 
ATOM     20  C   UNL     1       8.697   9.906  18.429  0.00  0.00    +0.000 A 
ATOM     21  C   UNL     1       9.135   9.742  19.743  0.00  0.00    +0.000 A 
ATOM     22  C   UNL     1       9.797  10.785  20.393  0.00  0.00    +0.000 A 
ENDBRANCH  14  20
ENDBRANCH  13  14
ENDBRANCH   1  13
BRANCH   4  23
ATOM     23  C   UNL     1       4.548   4.997  19.410  0.00  0.00    +0.000 C 
BRANCH  23  24
ATOM     24  C   UNL     1       3.337   4.159  19.123  0.00  0.00    +0.000 A 
ATOM     25  C   UNL     1       2.288   4.533  18.279  0.00  0.00    +0.000 A 
ATOM     26  C   UNL     1       1.299   3.602  17.940  0.00  0.00    +0.000 A 
ATOM     27  C   UNL     1       1.351   2.293  18.426  0.00  0.00    +0.000 A 
ATOM     28  C   UNL     1       2.391   1.911  19.264  0.00  0.00    +0.000 A 
ATOM     29  C   UNL     1       3.367   2.840  19.603  0.00  0.00    +0.000 A 
ATOM     30  F   UNL     1       4.394   2.437  20.368  0.00  0.00    +0.000 F 
ENDBRANCH  23  24
ENDBRANCH   4  23
TORSDOF 6
ENDMDL
