MODEL 1
REMARK VINA RESULT:      -7.6      0.000      0.000
REMARK  Name = 
REMARK  12 active torsions:
REMARK  status: ('A' for Active; 'I' for Inactive)
REMARK    1  A    between atoms: C_1  and  O_2
REMARK    2  A    between atoms: O_2  and  C_3
REMARK    3  A    between atoms: C_9  and  N_10
REMARK    4  A    between atoms: C_11  and  C_13
REMARK    5  A    between atoms: C_15  and  O_16
REMARK    6  A    between atoms: O_16  and  C_17
REMARK    7  A    between atoms: C_18  and  O_19
REMARK    8  A    between atoms: O_19  and  C_20
REMARK    9  A    between atoms: C_21  and  O_22
REMARK   10  A    between atoms: O_22  and  C_23
REMARK   11  A    between atoms: C_28  and  O_29
REMARK   12  A    between atoms: O_29  and  C_30
REMARK                            x       y       z     vdW  Elec       q    Type
REMARK                         _______ _______ _______ _____ _____    ______ ____
ROOT
ATOM      1  N   UNL     1       2.163   7.173  19.001  0.00  0.00    +0.000 N 
ATOM      2  C   UNL     1       1.815   8.328  18.336  0.00  0.00    +0.000 C 
ATOM      3  O   UNL     1       1.721   8.466  17.119  0.00  0.00    +0.000 OA
ATOM      4  H   UNL     1       2.159   7.211  20.011  0.00  0.00    +0.000 HD
ENDROOT
BRANCH   1  11
ATOM      5  C   UNL     1       6.231   5.642  16.204  0.00  0.00    +0.000 A 
ATOM      6  C   UNL     1       5.318   4.586  16.269  0.00  0.00    +0.000 A 
ATOM      7  C   UNL     1       4.134   4.682  17.017  0.00  0.00    +0.000 A 
ATOM      8  C   UNL     1       3.308   3.559  17.126  0.00  0.00    +0.000 A 
ATOM      9  C   UNL     1       2.144   3.603  17.881  0.00  0.00    +0.000 A 
ATOM     10  C   UNL     1       1.776   4.792  18.502  0.00  0.00    +0.000 A 
ATOM     11  C   UNL     1       2.570   5.946  18.408  0.00  0.00    +0.000 A 
ATOM     12  C   UNL     1       3.795   5.890  17.677  0.00  0.00    +0.000 A 
ATOM     13  C   UNL     1       4.727   6.947  17.581  0.00  0.00    +0.000 A 
ATOM     14  C   UNL     1       5.914   6.842  16.844  0.00  0.00    +0.000 A 
BRANCH   5  16
ATOM     15  C   UNL     1       7.375   5.029  14.228  0.00  0.00    +0.000 C 
ATOM     16  O   UNL     1       7.436   5.538  15.559  0.00  0.00    +0.000 OA
ENDBRANCH   5  16
BRANCH  14  17
ATOM     17  O   UNL     1       6.718   7.950  16.932  0.00  0.00    +0.000 OA
ATOM     18  C   UNL     1       7.781   7.878  17.874  0.00  0.00    +0.000 C 
ENDBRANCH  14  17
ENDBRANCH   1  11
BRANCH   2  19
ATOM     19  C   UNL     1       1.406   9.495  19.160  0.00  0.00    +0.000 A 
ATOM     20  C   UNL     1       1.620  10.709  18.503  0.00  0.00    +0.000 A 
ATOM     21  C   UNL     1       1.480  11.916  19.165  0.00  0.00    +0.000 A 
ATOM     22  C   UNL     1       1.015  11.935  20.498  0.00  0.00    +0.000 A 
ATOM     23  C   UNL     1       0.770  10.709  21.181  0.00  0.00    +0.000 A 
ATOM     24  C   UNL     1       0.995   9.477  20.504  0.00  0.00    +0.000 A 
ATOM     25 BR   UNL     1       0.937   7.796  21.413  0.00  0.00    +0.000 Br
BRANCH  21  26
ATOM     26  O   UNL     1       1.783  13.111  18.549  0.00  0.00    +0.000 OA
ATOM     27  C   UNL     1       3.161  13.290  18.202  0.00  0.00    +0.000 C 
ENDBRANCH  21  26
BRANCH  22  28
ATOM     28  O   UNL     1       0.906  13.210  20.999  0.00  0.00    +0.000 OA
ATOM     29  C   UNL     1      -0.353  13.846  21.092  0.00  0.00    +0.000 C 
ENDBRANCH  22  28
BRANCH  23  30
ATOM     30  O   UNL     1       0.530  10.785  22.533  0.00  0.00    +0.000 OA
ATOM     31  C   UNL     1      -0.816  10.676  22.988  0.00  0.00    +0.000 C 
ENDBRANCH  23  30
ENDBRANCH   2  19
TORSDOF 7
ENDMDL
MODEL 2
REMARK VINA RESULT:      -7.6      1.647      2.917
REMARK  Name = 
REMARK  12 active torsions:
REMARK  status: ('A' for Active; 'I' for Inactive)
REMARK    1  A    between atoms: C_1  and  O_2
REMARK    2  A    between atoms: O_2  and  C_3
REMARK    3  A    between atoms: C_9  and  N_10
REMARK    4  A    between atoms: C_11  and  C_13
REMARK    5  A    between atoms: C_15  and  O_16
REMARK    6  A    between atoms: O_16  and  C_17
REMARK    7  A    between atoms: C_18  and  O_19
REMARK    8  A    between atoms: O_19  and  C_20
REMARK    9  A    between atoms: C_21  and  O_22
REMARK   10  A    between atoms: O_22  and  C_23
REMARK   11  A    between atoms: C_28  and  O_29
REMARK   12  A    between atoms: O_29  and  C_30
REMARK                            x       y       z     vdW  Elec       q    Type
REMARK                         _______ _______ _______ _____ _____    ______ ____
ROOT
ATOM      1  N   UNL     1       2.161   7.380  19.857  0.00  0.00    +0.000 N 
ATOM      2  C   UNL     1       1.183   7.953  20.640  0.00  0.00    +0.000 C 
ATOM      3  O   UNL     1       0.467   7.371  21.450  0.00  0.00    +0.000 OA
ATOM      4  H   UNL     1       2.692   8.004  19.264  0.00  0.00    +0.000 HD
ENDROOT
BRANCH   1  11
ATOM      5  C   UNL     1       5.446   4.545  17.048  0.00  0.00    +0.000 A 
ATOM      6  C   UNL     1       4.639   3.679  17.791  0.00  0.00    +0.000 A 
ATOM      7  C   UNL     1       3.685   4.161  18.702  0.00  0.00    +0.000 A 
ATOM      8  C   UNL     1       2.978   3.247  19.490  0.00  0.00    +0.000 A 
ATOM      9  C   UNL     1       2.049   3.684  20.424  0.00  0.00    +0.000 A 
ATOM     10  C   UNL     1       1.789   5.045  20.546  0.00  0.00    +0.000 A 
ATOM     11  C   UNL     1       2.467   5.994  19.765  0.00  0.00    +0.000 A 
ATOM     12  C   UNL     1       3.463   5.553  18.842  0.00  0.00    +0.000 A 
ATOM     13  C   UNL     1       4.279   6.406  18.067  0.00  0.00    +0.000 A 
ATOM     14  C   UNL     1       5.240   5.921  17.169  0.00  0.00    +0.000 A 
BRANCH   5  16
ATOM     15  C   UNL     1       6.074   3.897  14.864  0.00  0.00    +0.000 C 
ATOM     16  O   UNL     1       6.447   4.099  16.226  0.00  0.00    +0.000 OA
ENDBRANCH   5  16
BRANCH  14  17
ATOM     17  O   UNL     1       5.977   6.907  16.564  0.00  0.00    +0.000 OA
ATOM     18  C   UNL     1       7.107   7.376  17.288  0.00  0.00    +0.000 C 
ENDBRANCH  14  17
ENDBRANCH   1  11
BRANCH   2  19
ATOM     19  C   UNL     1       1.046   9.431  20.591  0.00  0.00    +0.000 A 
ATOM     20  C   UNL     1       0.510   9.955  21.769  0.00  0.00    +0.000 A 
ATOM     21  C   UNL     1       0.131  11.282  21.857  0.00  0.00    +0.000 A 
ATOM     22  C   UNL     1       0.379  12.155  20.775  0.00  0.00    +0.000 A 
ATOM     23  C   UNL     1       0.946  11.648  19.571  0.00  0.00    +0.000 A 
ATOM     24  C   UNL     1       1.256  10.263  19.477  0.00  0.00    +0.000 A 
ATOM     25 BR   UNL     1       1.778   9.451  17.825  0.00  0.00    +0.000 Br
BRANCH  21  26
ATOM     26  O   UNL     1      -0.488  11.779  22.985  0.00  0.00    +0.000 OA
ATOM     27  C   UNL     1      -1.896  11.532  23.071  0.00  0.00    +0.000 C 
ENDBRANCH  21  26
BRANCH  22  28
ATOM     28  O   UNL     1      -0.031  13.441  21.033  0.00  0.00    +0.000 OA
ATOM     29  C   UNL     1       0.889  14.421  21.472  0.00  0.00    +0.000 C 
ENDBRANCH  22  28
BRANCH  23  30
ATOM     30  O   UNL     1       0.964  12.493  18.486  0.00  0.00    +0.000 OA
ATOM     31  C   UNL     1       2.171  13.193  18.194  0.00  0.00    +0.000 C 
ENDBRANCH  23  30
ENDBRANCH   2  19
TORSDOF 7
ENDMDL
MODEL 3
REMARK VINA RESULT:      -7.5      1.501      2.737
REMARK  Name = 
REMARK  12 active torsions:
REMARK  status: ('A' for Active; 'I' for Inactive)
REMARK    1  A    between atoms: C_1  and  O_2
REMARK    2  A    between atoms: O_2  and  C_3
REMARK    3  A    between atoms: C_9  and  N_10
REMARK    4  A    between atoms: C_11  and  C_13
REMARK    5  A    between atoms: C_15  and  O_16
REMARK    6  A    between atoms: O_16  and  C_17
REMARK    7  A    between atoms: C_18  and  O_19
REMARK    8  A    between atoms: O_19  and  C_20
REMARK    9  A    between atoms: C_21  and  O_22
REMARK   10  A    between atoms: O_22  and  C_23
REMARK   11  A    between atoms: C_28  and  O_29
REMARK   12  A    between atoms: O_29  and  C_30
REMARK                            x       y       z     vdW  Elec       q    Type
REMARK                         _______ _______ _______ _____ _____    ______ ____
ROOT
ATOM      1  N   UNL     1       2.223   6.864  18.812  0.00  0.00    +0.000 N 
ATOM      2  C   UNL     1       1.757   7.167  20.071  0.00  0.00    +0.000 C 
ATOM      3  O   UNL     1       1.660   6.391  21.018  0.00  0.00    +0.000 OA
ATOM      4  H   UNL     1       2.277   7.626  18.150  0.00  0.00    +0.000 HD
ENDROOT
BRANCH   1  11
ATOM      5  C   UNL     1       6.196   4.987  16.088  0.00  0.00    +0.000 A 
ATOM      6  C   UNL     1       5.268   3.960  16.280  0.00  0.00    +0.000 A 
ATOM      7  C   UNL     1       4.104   4.151  17.043  0.00  0.00    +0.000 A 
ATOM      8  C   UNL     1       3.264   3.060  17.284  0.00  0.00    +0.000 A 
ATOM      9  C   UNL     1       2.121   3.201  18.058  0.00  0.00    +0.000 A 
ATOM     10  C   UNL     1       1.787   4.452  18.565  0.00  0.00    +0.000 A 
ATOM     11  C   UNL     1       2.596   5.576  18.336  0.00  0.00    +0.000 A 
ATOM     12  C   UNL     1       3.801   5.425  17.585  0.00  0.00    +0.000 A 
ATOM     13  C   UNL     1       4.747   6.450  17.362  0.00  0.00    +0.000 A 
ATOM     14  C   UNL     1       5.913   6.250  16.611  0.00  0.00    +0.000 A 
BRANCH   5  16
ATOM     15  C   UNL     1       7.302   4.828  14.006  0.00  0.00    +0.000 C 
ATOM     16  O   UNL     1       7.382   4.797  15.429  0.00  0.00    +0.000 OA
ENDBRANCH   5  16
BRANCH  14  17
ATOM     17  O   UNL     1       6.736   7.347  16.568  0.00  0.00    +0.000 OA
ATOM     18  C   UNL     1       7.579   7.541  17.698  0.00  0.00    +0.000 C 
ENDBRANCH  14  17
ENDBRANCH   1  11
BRANCH   2  19
ATOM     19  C   UNL     1       1.439   8.590  20.359  0.00  0.00    +0.000 A 
ATOM     20  C   UNL     1       1.019   8.785  21.676  0.00  0.00    +0.000 A 
ATOM     21  C   UNL     1       0.502   9.998  22.092  0.00  0.00    +0.000 A 
ATOM     22  C   UNL     1       0.487  11.096  21.203  0.00  0.00    +0.000 A 
ATOM     23  C   UNL     1       0.931  10.926  19.861  0.00  0.00    +0.000 A 
ATOM     24  C   UNL     1       1.387   9.647  19.434  0.00  0.00    +0.000 A 
ATOM     25 BR   UNL     1       1.758   9.265  17.597  0.00  0.00    +0.000 Br
BRANCH  21  26
ATOM     26  O   UNL     1      -0.002  10.166  23.364  0.00  0.00    +0.000 OA
ATOM     27  C   UNL     1       0.458   9.220  24.336  0.00  0.00    +0.000 C 
ENDBRANCH  21  26
BRANCH  22  28
ATOM     28  O   UNL     1      -0.032  12.230  21.778  0.00  0.00    +0.000 OA
ATOM     29  C   UNL     1      -1.372  12.616  21.539  0.00  0.00    +0.000 C 
ENDBRANCH  22  28
BRANCH  23  30
ATOM     30  O   UNL     1       0.692  11.963  18.989  0.00  0.00    +0.000 OA
ATOM     31  C   UNL     1       1.733  12.910  18.763  0.00  0.00    +0.000 C 
ENDBRANCH  23  30
ENDBRANCH   2  19
TORSDOF 7
ENDMDL
MODEL 4
REMARK VINA RESULT:      -7.5      2.035      3.449
REMARK  Name = 
REMARK  12 active torsions:
REMARK  status: ('A' for Active; 'I' for Inactive)
REMARK    1  A    between atoms: C_1  and  O_2
REMARK    2  A    between atoms: O_2  and  C_3
REMARK    3  A    between atoms: C_9  and  N_10
REMARK    4  A    between atoms: C_11  and  C_13
REMARK    5  A    between atoms: C_15  and  O_16
REMARK    6  A    between atoms: O_16  and  C_17
REMARK    7  A    between atoms: C_18  and  O_19
REMARK    8  A    between atoms: O_19  and  C_20
REMARK    9  A    between atoms: C_21  and  O_22
REMARK   10  A    between atoms: O_22  and  C_23
REMARK   11  A    between atoms: C_28  and  O_29
REMARK   12  A    between atoms: O_29  and  C_30
REMARK                            x       y       z     vdW  Elec       q    Type
REMARK                         _______ _______ _______ _____ _____    ______ ____
ROOT
ATOM      1  N   UNL     1       2.919   8.177  18.547  0.00  0.00    +0.000 N 
ATOM      2  C   UNL     1       1.823   8.942  18.213  0.00  0.00    +0.000 C 
ATOM      3  O   UNL     1       1.166   8.859  17.179  0.00  0.00    +0.000 OA
ATOM      4  H   UNL     1       3.330   8.343  19.455  0.00  0.00    +0.000 HD
ENDROOT
BRANCH   1  11
ATOM      5  C   UNL     1       2.911   3.014  18.300  0.00  0.00    +0.000 A 
ATOM      6  C   UNL     1       3.851   3.498  17.386  0.00  0.00    +0.000 A 
ATOM      7  C   UNL     1       4.037   4.875  17.180  0.00  0.00    +0.000 A 
ATOM      8  C   UNL     1       4.919   5.298  16.181  0.00  0.00    +0.000 A 
ATOM      9  C   UNL     1       5.107   6.649  15.925  0.00  0.00    +0.000 A 
ATOM     10  C   UNL     1       4.442   7.592  16.700  0.00  0.00    +0.000 A 
ATOM     11  C   UNL     1       3.558   7.210  17.722  0.00  0.00    +0.000 A 
ATOM     12  C   UNL     1       3.319   5.822  17.953  0.00  0.00    +0.000 A 
ATOM     13  C   UNL     1       2.388   5.306  18.882  0.00  0.00    +0.000 A 
ATOM     14  C   UNL     1       2.197   3.931  19.074  0.00  0.00    +0.000 A 
BRANCH   5  16
ATOM     15  C   UNL     1       3.765   0.869  18.805  0.00  0.00    +0.000 C 
ATOM     16  O   UNL     1       2.646   1.678  18.449  0.00  0.00    +0.000 OA
ENDBRANCH   5  16
BRANCH  14  17
ATOM     17  O   UNL     1       1.201   3.633  19.969  0.00  0.00    +0.000 OA
ATOM     18  C   UNL     1       1.610   3.437  21.317  0.00  0.00    +0.000 C 
ENDBRANCH  14  17
ENDBRANCH   1  11
BRANCH   2  19
ATOM     19  C   UNL     1       1.310   9.885  19.239  0.00  0.00    +0.000 A 
ATOM     20  C   UNL     1       1.367  11.215  18.814  0.00  0.00    +0.000 A 
ATOM     21  C   UNL     1       1.111  12.258  19.686  0.00  0.00    +0.000 A 
ATOM     22  C   UNL     1       0.686  11.982  21.004  0.00  0.00    +0.000 A 
ATOM     23  C   UNL     1       0.599  10.633  21.453  0.00  0.00    +0.000 A 
ATOM     24  C   UNL     1       0.942   9.578  20.561  0.00  0.00    +0.000 A 
ATOM     25 BR   UNL     1       1.098   7.765  21.148  0.00  0.00    +0.000 Br
BRANCH  21  26
ATOM     26  O   UNL     1       1.261  13.572  19.297  0.00  0.00    +0.000 OA
ATOM     27  C   UNL     1       0.200  14.097  18.490  0.00  0.00    +0.000 C 
ENDBRANCH  21  26
BRANCH  22  28
ATOM     28  O   UNL     1       0.449  13.124  21.730  0.00  0.00    +0.000 OA
ATOM     29  C   UNL     1      -0.872  13.548  22.003  0.00  0.00    +0.000 C 
ENDBRANCH  22  28
BRANCH  23  30
ATOM     30  O   UNL     1       0.391  10.435  22.798  0.00  0.00    +0.000 OA
ATOM     31  C   UNL     1      -0.935  10.161  23.244  0.00  0.00    +0.000 C 
ENDBRANCH  23  30
ENDBRANCH   2  19
TORSDOF 7
ENDMDL
MODEL 5
REMARK VINA RESULT:      -7.4      3.519      8.887
REMARK  Name = 
REMARK  12 active torsions:
REMARK  status: ('A' for Active; 'I' for Inactive)
REMARK    1  A    between atoms: C_1  and  O_2
REMARK    2  A    between atoms: O_2  and  C_3
REMARK    3  A    between atoms: C_9  and  N_10
REMARK    4  A    between atoms: C_11  and  C_13
REMARK    5  A    between atoms: C_15  and  O_16
REMARK    6  A    between atoms: O_16  and  C_17
REMARK    7  A    between atoms: C_18  and  O_19
REMARK    8  A    between atoms: O_19  and  C_20
REMARK    9  A    between atoms: C_21  and  O_22
REMARK   10  A    between atoms: O_22  and  C_23
REMARK   11  A    between atoms: C_28  and  O_29
REMARK   12  A    between atoms: O_29  and  C_30
REMARK                            x       y       z     vdW  Elec       q    Type
REMARK                         _______ _______ _______ _____ _____    ______ ____
ROOT
ATOM      1  N   UNL     1       0.897   8.896  19.627  0.00  0.00    +0.000 N 
ATOM      2  C   UNL     1       1.432   7.928  20.448  0.00  0.00    +0.000 C 
ATOM      3  O   UNL     1       1.352   7.888  21.673  0.00  0.00    +0.000 OA
ATOM      4  H   UNL     1       1.018   8.766  18.632  0.00  0.00    +0.000 HD
ENDROOT
BRANCH   1  11
ATOM      5  C   UNL     1      -3.212  11.549  17.955  0.00  0.00    +0.000 A 
ATOM      6  C   UNL     1      -2.612  12.272  18.989  0.00  0.00    +0.000 A 
ATOM      7  C   UNL     1      -1.502  11.772  19.688  0.00  0.00    +0.000 A 
ATOM      8  C   UNL     1      -1.006  12.493  20.779  0.00  0.00    +0.000 A 
ATOM      9  C   UNL     1       0.070  12.018  21.515  0.00  0.00    +0.000 A 
ATOM     10  C   UNL     1       0.688  10.831  21.138  0.00  0.00    +0.000 A 
ATOM     11  C   UNL     1       0.230  10.083  20.042  0.00  0.00    +0.000 A 
ATOM     12  C   UNL     1      -0.910  10.539  19.314  0.00  0.00    +0.000 A 
ATOM     13  C   UNL     1      -1.526   9.837  18.254  0.00  0.00    +0.000 A 
ATOM     14  C   UNL     1      -2.642  10.334  17.568  0.00  0.00    +0.000 A 
BRANCH   5  16
ATOM     15  C   UNL     1      -5.559  11.814  18.066  0.00  0.00    +0.000 C 
ATOM     16  O   UNL     1      -4.352  11.972  17.322  0.00  0.00    +0.000 OA
ENDBRANCH   5  16
BRANCH  14  17
ATOM     17  O   UNL     1      -3.135   9.474  16.620  0.00  0.00    +0.000 OA
ATOM     18  C   UNL     1      -2.932   9.855  15.264  0.00  0.00    +0.000 C 
ENDBRANCH  14  17
ENDBRANCH   1  11
BRANCH   2  19
ATOM     19  C   UNL     1       2.075   6.758  19.797  0.00  0.00    +0.000 A 
ATOM     20  C   UNL     1       2.039   5.617  20.601  0.00  0.00    +0.000 A 
ATOM     21  C   UNL     1       2.743   4.476  20.258  0.00  0.00    +0.000 A 
ATOM     22  C   UNL     1       3.432   4.421  19.026  0.00  0.00    +0.000 A 
ATOM     23  C   UNL     1       3.463   5.566  18.180  0.00  0.00    +0.000 A 
ATOM     24  C   UNL     1       2.796   6.754  18.589  0.00  0.00    +0.000 A 
ATOM     25 BR   UNL     1       2.995   8.405  17.646  0.00  0.00    +0.000 Br
BRANCH  21  26
ATOM     26  O   UNL     1       2.789   3.383  21.096  0.00  0.00    +0.000 OA
ATOM     27  C   UNL     1       1.518   2.824  21.445  0.00  0.00    +0.000 C 
ENDBRANCH  21  26
BRANCH  22  28
ATOM     28  O   UNL     1       4.055   3.213  18.827  0.00  0.00    +0.000 OA
ATOM     29  C   UNL     1       3.490   2.239  17.971  0.00  0.00    +0.000 C 
ENDBRANCH  22  28
BRANCH  23  30
ATOM     30  O   UNL     1       4.322   5.524  17.106  0.00  0.00    +0.000 OA
ATOM     31  C   UNL     1       5.709   5.757  17.340  0.00  0.00    +0.000 C 
ENDBRANCH  23  30
ENDBRANCH   2  19
TORSDOF 7
ENDMDL
MODEL 6
REMARK VINA RESULT:      -7.4      2.713      8.613
REMARK  Name = 
REMARK  12 active torsions:
REMARK  status: ('A' for Active; 'I' for Inactive)
REMARK    1  A    between atoms: C_1  and  O_2
REMARK    2  A    between atoms: O_2  and  C_3
REMARK    3  A    between atoms: C_9  and  N_10
REMARK    4  A    between atoms: C_11  and  C_13
REMARK    5  A    between atoms: C_15  and  O_16
REMARK    6  A    between atoms: O_16  and  C_17
REMARK    7  A    between atoms: C_18  and  O_19
REMARK    8  A    between atoms: O_19  and  C_20
REMARK    9  A    between atoms: C_21  and  O_22
REMARK   10  A    between atoms: O_22  and  C_23
REMARK   11  A    between atoms: C_28  and  O_29
REMARK   12  A    between atoms: O_29  and  C_30
REMARK                            x       y       z     vdW  Elec       q    Type
REMARK                         _______ _______ _______ _____ _____    ______ ____
ROOT
ATOM      1  N   UNL     1       1.923   8.124  20.402  0.00  0.00    +0.000 N 
ATOM      2  C   UNL     1       1.939   6.754  20.258  0.00  0.00    +0.000 C 
ATOM      3  O   UNL     1       1.142   5.961  20.751  0.00  0.00    +0.000 OA
ATOM      4  H   UNL     1       2.630   8.643  19.900  0.00  0.00    +0.000 HD
ENDROOT
BRANCH   1  11
ATOM      5  C   UNL     1      -1.825  11.572  19.517  0.00  0.00    +0.000 A 
ATOM      6  C   UNL     1      -1.624  11.483  20.897  0.00  0.00    +0.000 A 
ATOM      7  C   UNL     1      -0.706  10.576  21.451  0.00  0.00    +0.000 A 
ATOM      8  C   UNL     1      -0.621  10.461  22.842  0.00  0.00    +0.000 A 
ATOM      9  C   UNL     1       0.252   9.555  23.428  0.00  0.00    +0.000 A 
ATOM     10  C   UNL     1       1.080   8.783  22.621  0.00  0.00    +0.000 A 
ATOM     11  C   UNL     1       1.037   8.877  21.221  0.00  0.00    +0.000 A 
ATOM     12  C   UNL     1       0.102   9.768  20.613  0.00  0.00    +0.000 A 
ATOM     13  C   UNL     1      -0.108   9.890  19.221  0.00  0.00    +0.000 A 
ATOM     14  C   UNL     1      -1.036  10.787  18.674  0.00  0.00    +0.000 A 
BRANCH   5  16
ATOM     15  C   UNL     1      -4.076  12.292  19.553  0.00  0.00    +0.000 C 
ATOM     16  O   UNL     1      -2.782  12.380  18.960  0.00  0.00    +0.000 OA
ENDBRANCH   5  16
BRANCH  14  17
ATOM     17  O   UNL     1      -1.142  10.707  17.308  0.00  0.00    +0.000 OA
ATOM     18  C   UNL     1      -2.176   9.867  16.810  0.00  0.00    +0.000 C 
ENDBRANCH  14  17
ENDBRANCH   1  11
BRANCH   2  19
ATOM     19  C   UNL     1       2.948   6.176  19.333  0.00  0.00    +0.000 A 
ATOM     20  C   UNL     1       3.529   5.012  19.842  0.00  0.00    +0.000 A 
ATOM     21  C   UNL     1       4.617   4.424  19.223  0.00  0.00    +0.000 A 
ATOM     22  C   UNL     1       5.094   4.946  18.000  0.00  0.00    +0.000 A 
ATOM     23  C   UNL     1       4.503   6.120  17.451  0.00  0.00    +0.000 A 
ATOM     24  C   UNL     1       3.434   6.751  18.146  0.00  0.00    +0.000 A 
ATOM     25 BR   UNL     1       2.753   8.460  17.622  0.00  0.00    +0.000 Br
BRANCH  21  26
ATOM     26  O   UNL     1       5.253   3.332  19.773  0.00  0.00    +0.000 OA
ATOM     27  C   UNL     1       4.418   2.194  20.016  0.00  0.00    +0.000 C 
ENDBRANCH  21  26
BRANCH  22  28
ATOM     28  O   UNL     1       6.160   4.234  17.505  0.00  0.00    +0.000 OA
ATOM     29  C   UNL     1       7.488   4.667  17.729  0.00  0.00    +0.000 C 
ENDBRANCH  22  28
BRANCH  23  30
ATOM     30  O   UNL     1       5.145   6.700  16.382  0.00  0.00    +0.000 OA
ATOM     31  C   UNL     1       5.195   5.981  15.152  0.00  0.00    +0.000 C 
ENDBRANCH  23  30
ENDBRANCH   2  19
TORSDOF 7
ENDMDL
MODEL 7
REMARK VINA RESULT:      -7.2      3.166      8.419
REMARK  Name = 
REMARK  12 active torsions:
REMARK  status: ('A' for Active; 'I' for Inactive)
REMARK    1  A    between atoms: C_1  and  O_2
REMARK    2  A    between atoms: O_2  and  C_3
REMARK    3  A    between atoms: C_9  and  N_10
REMARK    4  A    between atoms: C_11  and  C_13
REMARK    5  A    between atoms: C_15  and  O_16
REMARK    6  A    between atoms: O_16  and  C_17
REMARK    7  A    between atoms: C_18  and  O_19
REMARK    8  A    between atoms: O_19  and  C_20
REMARK    9  A    between atoms: C_21  and  O_22
REMARK   10  A    between atoms: O_22  and  C_23
REMARK   11  A    between atoms: C_28  and  O_29
REMARK   12  A    between atoms: O_29  and  C_30
REMARK                            x       y       z     vdW  Elec       q    Type
REMARK                         _______ _______ _______ _____ _____    ______ ____
ROOT
ATOM      1  N   UNL     1       1.330   8.771  19.196  0.00  0.00    +0.000 N 
ATOM      2  C   UNL     1       1.783   7.674  19.895  0.00  0.00    +0.000 C 
ATOM      3  O   UNL     1       1.543   7.411  21.070  0.00  0.00    +0.000 OA
ATOM      4  H   UNL     1       1.587   8.826  18.219  0.00  0.00    +0.000 HD
ENDROOT
BRANCH   1  11
ATOM      5  C   UNL     1      -2.909  11.327  17.707  0.00  0.00    +0.000 A 
ATOM      6  C   UNL     1      -2.384  11.962  18.835  0.00  0.00    +0.000 A 
ATOM      7  C   UNL     1      -1.260  11.458  19.508  0.00  0.00    +0.000 A 
ATOM      8  C   UNL     1      -0.840  12.079  20.689  0.00  0.00    +0.000 A 
ATOM      9  C   UNL     1       0.248  11.593  21.400  0.00  0.00    +0.000 A 
ATOM     10  C   UNL     1       0.954  10.501  20.909  0.00  0.00    +0.000 A 
ATOM     11  C   UNL     1       0.574   9.856  19.721  0.00  0.00    +0.000 A 
ATOM     12  C   UNL     1      -0.577  10.318  19.015  0.00  0.00    +0.000 A 
ATOM     13  C   UNL     1      -1.118   9.705  17.863  0.00  0.00    +0.000 A 
ATOM     14  C   UNL     1      -2.248  10.204  17.203  0.00  0.00    +0.000 A 
BRANCH   5  16
ATOM     15  C   UNL     1      -5.272  11.272  17.674  0.00  0.00    +0.000 C 
ATOM     16  O   UNL     1      -4.059  11.745  17.091  0.00  0.00    +0.000 OA
ENDBRANCH   5  16
BRANCH  14  17
ATOM     17  O   UNL     1      -2.658   9.429  16.148  0.00  0.00    +0.000 OA
ATOM     18  C   UNL     1      -2.766  10.089  14.892  0.00  0.00    +0.000 C 
ENDBRANCH  14  17
ENDBRANCH   1  11
BRANCH   2  19
ATOM     19  C   UNL     1       2.547   6.649  19.138  0.00  0.00    +0.000 A 
ATOM     20  C   UNL     1       3.452   7.217  18.240  0.00  0.00    +0.000 A 
ATOM     21  C   UNL     1       4.125   6.441  17.312  0.00  0.00    +0.000 A 
ATOM     22  C   UNL     1       3.975   5.037  17.333  0.00  0.00    +0.000 A 
ATOM     23  C   UNL     1       3.074   4.433  18.256  0.00  0.00    +0.000 A 
ATOM     24  C   UNL     1       2.335   5.259  19.149  0.00  0.00    +0.000 A 
ATOM     25 BR   UNL     1       0.925   4.565  20.239  0.00  0.00    +0.000 Br
BRANCH  21  26
ATOM     26  O   UNL     1       4.945   7.008  16.361  0.00  0.00    +0.000 OA
ATOM     27  C   UNL     1       6.232   7.424  16.831  0.00  0.00    +0.000 C 
ENDBRANCH  21  26
BRANCH  22  28
ATOM     28  O   UNL     1       4.729   4.414  16.368  0.00  0.00    +0.000 OA
ATOM     29  C   UNL     1       5.984   3.845  16.684  0.00  0.00    +0.000 C 
ENDBRANCH  22  28
BRANCH  23  30
ATOM     30  O   UNL     1       2.809   3.094  18.085  0.00  0.00    +0.000 OA
ATOM     31  C   UNL     1       3.516   2.157  18.894  0.00  0.00    +0.000 C 
ENDBRANCH  23  30
ENDBRANCH   2  19
TORSDOF 7
ENDMDL
MODEL 8
REMARK VINA RESULT:      -7.2      2.092      3.371
REMARK  Name = 
REMARK  12 active torsions:
REMARK  status: ('A' for Active; 'I' for Inactive)
REMARK    1  A    between atoms: C_1  and  O_2
REMARK    2  A    between atoms: O_2  and  C_3
REMARK    3  A    between atoms: C_9  and  N_10
REMARK    4  A    between atoms: C_11  and  C_13
REMARK    5  A    between atoms: C_15  and  O_16
REMARK    6  A    between atoms: O_16  and  C_17
REMARK    7  A    between atoms: C_18  and  O_19
REMARK    8  A    between atoms: O_19  and  C_20
REMARK    9  A    between atoms: C_21  and  O_22
REMARK   10  A    between atoms: O_22  and  C_23
REMARK   11  A    between atoms: C_28  and  O_29
REMARK   12  A    between atoms: O_29  and  C_30
REMARK                            x       y       z     vdW  Elec       q    Type
REMARK                         _______ _______ _______ _____ _____    ______ ____
ROOT
ATOM      1  N   UNL     1       3.215   8.261  18.208  0.00  0.00    +0.000 N 
ATOM      2  C   UNL     1       1.896   8.635  18.077  0.00  0.00    +0.000 C 
ATOM      3  O   UNL     1       1.036   8.052  17.422  0.00  0.00    +0.000 OA
ATOM      4  H   UNL     1       3.790   8.827  18.816  0.00  0.00    +0.000 HD
ENDROOT
BRANCH   1  11
ATOM      5  C   UNL     1       3.913   3.237  19.204  0.00  0.00    +0.000 A 
ATOM      6  C   UNL     1       4.630   3.562  18.049  0.00  0.00    +0.000 A 
ATOM      7  C   UNL     1       4.584   4.849  17.492  0.00  0.00    +0.000 A 
ATOM      8  C   UNL     1       5.240   5.088  16.280  0.00  0.00    +0.000 A 
ATOM      9  C   UNL     1       5.193   6.338  15.680  0.00  0.00    +0.000 A 
ATOM     10  C   UNL     1       4.519   7.377  16.314  0.00  0.00    +0.000 A 
ATOM     11  C   UNL     1       3.858   7.184  17.537  0.00  0.00    +0.000 A 
ATOM     12  C   UNL     1       3.858   5.885  18.131  0.00  0.00    +0.000 A 
ATOM     13  C   UNL     1       3.157   5.535  19.307  0.00  0.00    +0.000 A 
ATOM     14  C   UNL     1       3.195   4.245  19.852  0.00  0.00    +0.000 A 
BRANCH   5  16
ATOM     15  C   UNL     1       4.877   1.653  20.671  0.00  0.00    +0.000 C 
ATOM     16  O   UNL     1       3.867   1.965  19.713  0.00  0.00    +0.000 OA
ENDBRANCH   5  16
BRANCH  14  17
ATOM     17  O   UNL     1       2.394   4.088  20.955  0.00  0.00    +0.000 OA
ATOM     18  C   UNL     1       1.069   3.636  20.705  0.00  0.00    +0.000 C 
ENDBRANCH  14  17
ENDBRANCH   1  11
BRANCH   2  19
ATOM     19  C   UNL     1       1.429   9.789  18.888  0.00  0.00    +0.000 A 
ATOM     20  C   UNL     1       1.607  11.007  18.229  0.00  0.00    +0.000 A 
ATOM     21  C   UNL     1       1.409  12.211  18.881  0.00  0.00    +0.000 A 
ATOM     22  C   UNL     1       0.922  12.218  20.207  0.00  0.00    +0.000 A 
ATOM     23  C   UNL     1       0.712  10.988  20.892  0.00  0.00    +0.000 A 
ATOM     24  C   UNL     1       0.996   9.762  20.225  0.00  0.00    +0.000 A 
ATOM     25 BR   UNL     1       0.988   8.084  21.143  0.00  0.00    +0.000 Br
BRANCH  21  26
ATOM     26  O   UNL     1       1.676  13.414  18.264  0.00  0.00    +0.000 OA
ATOM     27  C   UNL     1       3.064  13.714  18.080  0.00  0.00    +0.000 C 
ENDBRANCH  21  26
BRANCH  22  28
ATOM     28  O   UNL     1       0.756  13.491  20.698  0.00  0.00    +0.000 OA
ATOM     29  C   UNL     1       1.768  14.107  21.471  0.00  0.00    +0.000 C 
ENDBRANCH  22  28
BRANCH  23  30
ATOM     30  O   UNL     1       0.448  11.061  22.240  0.00  0.00    +0.000 OA
ATOM     31  C   UNL     1      -0.914  11.061  22.662  0.00  0.00    +0.000 C 
ENDBRANCH  23  30
ENDBRANCH   2  19
TORSDOF 7
ENDMDL
MODEL 9
REMARK VINA RESULT:      -7.2      2.723      8.404
REMARK  Name = 
REMARK  12 active torsions:
REMARK  status: ('A' for Active; 'I' for Inactive)
REMARK    1  A    between atoms: C_1  and  O_2
REMARK    2  A    between atoms: O_2  and  C_3
REMARK    3  A    between atoms: C_9  and  N_10
REMARK    4  A    between atoms: C_11  and  C_13
REMARK    5  A    between atoms: C_15  and  O_16
REMARK    6  A    between atoms: O_16  and  C_17
REMARK    7  A    between atoms: C_18  and  O_19
REMARK    8  A    between atoms: O_19  and  C_20
REMARK    9  A    between atoms: C_21  and  O_22
REMARK   10  A    between atoms: O_22  and  C_23
REMARK   11  A    between atoms: C_28  and  O_29
REMARK   12  A    between atoms: O_29  and  C_30
REMARK                            x       y       z     vdW  Elec       q    Type
REMARK                         _______ _______ _______ _____ _____    ______ ____
ROOT
ATOM      1  N   UNL     1       1.698   7.886  19.987  0.00  0.00    +0.000 N 
ATOM      2  C   UNL     1       1.902   6.549  20.245  0.00  0.00    +0.000 C 
ATOM      3  O   UNL     1       1.437   5.910  21.184  0.00  0.00    +0.000 OA
ATOM      4  H   UNL     1       2.122   8.258  19.148  0.00  0.00    +0.000 HD
ENDROOT
BRANCH   1  11
ATOM      5  C   UNL     1      -1.876  11.523  19.139  0.00  0.00    +0.000 A 
ATOM      6  C   UNL     1      -1.499  11.580  20.483  0.00  0.00    +0.000 A 
ATOM      7  C   UNL     1      -0.582  10.667  21.030  0.00  0.00    +0.000 A 
ATOM      8  C   UNL     1      -0.320  10.710  22.403  0.00  0.00    +0.000 A 
ATOM      9  C   UNL     1       0.556   9.806  22.988  0.00  0.00    +0.000 A 
ATOM     10  C   UNL     1       1.211   8.874  22.190  0.00  0.00    +0.000 A 
ATOM     11  C   UNL     1       0.987   8.806  20.806  0.00  0.00    +0.000 A 
ATOM     12  C   UNL     1       0.046   9.698  20.209  0.00  0.00    +0.000 A 
ATOM     13  C   UNL     1      -0.340   9.673  18.850  0.00  0.00    +0.000 A 
ATOM     14  C   UNL     1      -1.266  10.578  18.312  0.00  0.00    +0.000 A 
BRANCH   5  16
ATOM     15  C   UNL     1      -4.131  12.229  19.197  0.00  0.00    +0.000 C 
ATOM     16  O   UNL     1      -2.838  12.341  18.606  0.00  0.00    +0.000 OA
ENDBRANCH   5  16
BRANCH  14  17
ATOM     17  O   UNL     1      -1.560  10.346  16.992  0.00  0.00    +0.000 OA
ATOM     18  C   UNL     1      -2.802   9.703  16.732  0.00  0.00    +0.000 C 
ENDBRANCH  14  17
ENDBRANCH   1  11
BRANCH   2  19
ATOM     19  C   UNL     1       2.667   5.767  19.239  0.00  0.00    +0.000 A 
ATOM     20  C   UNL     1       3.543   6.566  18.500  0.00  0.00    +0.000 A 
ATOM     21  C   UNL     1       4.208   6.068  17.394  0.00  0.00    +0.000 A 
ATOM     22  C   UNL     1       4.084   4.702  17.058  0.00  0.00    +0.000 A 
ATOM     23  C   UNL     1       3.213   3.863  17.811  0.00  0.00    +0.000 A 
ATOM     24  C   UNL     1       2.480   4.416  18.897  0.00  0.00    +0.000 A 
ATOM     25 BR   UNL     1       1.107   3.436  19.797  0.00  0.00    +0.000 Br
BRANCH  21  26
ATOM     26  O   UNL     1       4.997   6.877  16.606  0.00  0.00    +0.000 OA
ATOM     27  C   UNL     1       6.238   7.284  17.194  0.00  0.00    +0.000 C 
ENDBRANCH  21  26
BRANCH  22  28
ATOM     28  O   UNL     1       4.827   4.363  15.953  0.00  0.00    +0.000 OA
ATOM     29  C   UNL     1       6.114   3.793  16.093  0.00  0.00    +0.000 C 
ENDBRANCH  22  28
BRANCH  23  30
ATOM     30  O   UNL     1       2.969   2.606  17.308  0.00  0.00    +0.000 OA
ATOM     31  C   UNL     1       3.554   1.487  17.970  0.00  0.00    +0.000 C 
ENDBRANCH  23  30
ENDBRANCH   2  19
TORSDOF 7
ENDMDL
