MODEL 1
REMARK VINA RESULT:      -7.5      0.000      0.000
REMARK  Name = 
REMARK  3 active torsions:
REMARK  status: ('A' for Active; 'I' for Inactive)
REMARK    1  A    between atoms: C_1  and  C_2
REMARK    2  A    between atoms: C_10  and  C_11
REMARK    3  A    between atoms: N_18  and  C_19
REMARK                            x       y       z     vdW  Elec       q    Type
REMARK                         _______ _______ _______ _____ _____    ______ ____
ROOT
ATOM      1  C   UNL     1      -3.497  12.277  23.057  0.00  0.00    +0.000 C 
ATOM      2  C   UNL     1      -2.137  12.745  22.718  0.00  0.00    +0.000 A 
ATOM      3  N   UNL     1      -1.366  13.379  23.661  0.00  0.00    +0.000 NA
ATOM      4  N   UNL     1      -0.192  13.666  23.115  0.00  0.00    +0.000 NA
ATOM      5  N   UNL     1      -0.236  13.226  21.851  0.00  0.00    +0.000 N 
ATOM      6  C   UNL     1      -1.424  12.638  21.535  0.00  0.00    +0.000 A 
ATOM      7  C   UNL     1      -1.716  12.117  20.205  0.00  0.00    +0.000 A 
ATOM      8  C   UNL     1      -2.996  12.401  19.684  0.00  0.00    +0.000 A 
ATOM      9  C   UNL     1      -3.398  11.940  18.432  0.00  0.00    +0.000 A 
ATOM     10  C   UNL     1      -2.521  11.192  17.653  0.00  0.00    +0.000 A 
ATOM     11  C   UNL     1      -1.231  10.944  18.151  0.00  0.00    +0.000 A 
ATOM     12  C   UNL     1      -0.785  11.380  19.429  0.00  0.00    +0.000 A 
ATOM     13  N   UNL     1       0.536  11.017  19.817  0.00  0.00    +0.000 N 
ATOM     14  C   UNL     1       1.379  11.851  20.719  0.00  0.00    +0.000 C 
ATOM     15  C   UNL     1       0.917  13.269  20.995  0.00  0.00    +0.000 C 
ENDROOT
BRANCH  13  16
ATOM     16  C   UNL     1       1.124   9.738  19.534  0.00  0.00    +0.000 A 
ATOM     17  C   UNL     1       1.205   8.715  20.497  0.00  0.00    +0.000 A 
ATOM     18  C   UNL     1       1.871   7.511  20.232  0.00  0.00    +0.000 A 
ATOM     19  C   UNL     1       2.469   7.307  18.994  0.00  0.00    +0.000 A 
ATOM     20 CL   UNL     1       3.346   5.858  18.696  0.00  0.00    +0.000 Cl
ATOM     21  C   UNL     1       2.375   8.280  18.008  0.00  0.00    +0.000 A 
ATOM     22  C   UNL     1       1.700   9.477  18.275  0.00  0.00    +0.000 A 
ENDBRANCH  13  16
BRANCH  10  23
ATOM     23  C   UNL     1      -2.941  10.678  16.358  0.00  0.00    +0.000 A 
ATOM     24  N   UNL     1      -4.069  11.130  15.707  0.00  0.00    +0.000 NA
ATOM     25  N   UNL     1      -4.164  10.441  14.578  0.00  0.00    +0.000 NA
ATOM     26  N   UNL     1      -3.112   9.616  14.601  0.00  0.00    +0.000 N 
ATOM     27  N   UNL     1      -2.309   9.711  15.670  0.00  0.00    +0.000 NA
ATOM     28  H   UNL     1      -2.936   8.958  13.846  0.00  0.00    +0.000 HD
ENDBRANCH  10  23
TORSDOF 2
ENDMDL
MODEL 2
REMARK VINA RESULT:      -7.3      8.622     11.736
REMARK  Name = 
REMARK  3 active torsions:
REMARK  status: ('A' for Active; 'I' for Inactive)
REMARK    1  A    between atoms: C_1  and  C_2
REMARK    2  A    between atoms: C_10  and  C_11
REMARK    3  A    between atoms: N_18  and  C_19
REMARK                            x       y       z     vdW  Elec       q    Type
REMARK                         _______ _______ _______ _____ _____    ______ ____
ROOT
ATOM      1  C   UNL     1      11.639  11.773  17.827  0.00  0.00    +0.000 C 
ATOM      2  C   UNL     1      11.559  13.233  18.041  0.00  0.00    +0.000 A 
ATOM      3  N   UNL     1      12.305  14.089  17.266  0.00  0.00    +0.000 NA
ATOM      4  N   UNL     1      12.028  15.333  17.637  0.00  0.00    +0.000 NA
ATOM      5  N   UNL     1      11.134  15.251  18.630  0.00  0.00    +0.000 N 
ATOM      6  C   UNL     1      10.795  13.965  18.934  0.00  0.00    +0.000 A 
ATOM      7  C   UNL     1       9.866  13.628  20.006  0.00  0.00    +0.000 A 
ATOM      8  C   UNL     1      10.228  12.547  20.836  0.00  0.00    +0.000 A 
ATOM      9  C   UNL     1       9.413  12.118  21.881  0.00  0.00    +0.000 A 
ATOM     10  C   UNL     1       8.213  12.773  22.139  0.00  0.00    +0.000 A 
ATOM     11  C   UNL     1       7.869  13.877  21.340  0.00  0.00    +0.000 A 
ATOM     12  C   UNL     1       8.663  14.337  20.254  0.00  0.00    +0.000 A 
ATOM     13  N   UNL     1       8.166  15.443  19.507  0.00  0.00    +0.000 N 
ATOM     14  C   UNL     1       9.050  16.433  18.831  0.00  0.00    +0.000 C 
ATOM     15  C   UNL     1      10.523  16.420  19.196  0.00  0.00    +0.000 C 
ENDROOT
BRANCH  13  16
ATOM     16  C   UNL     1       6.781  15.618  19.174  0.00  0.00    +0.000 A 
ATOM     17  C   UNL     1       6.148  14.878  18.159  0.00  0.00    +0.000 A 
ATOM     18  C   UNL     1       4.823  15.134  17.782  0.00  0.00    +0.000 A 
ATOM     19  C   UNL     1       4.104  16.139  18.417  0.00  0.00    +0.000 A 
ATOM     20 CL   UNL     1       2.502  16.498  17.907  0.00  0.00    +0.000 Cl
ATOM     21  C   UNL     1       4.684  16.863  19.450  0.00  0.00    +0.000 A 
ATOM     22  C   UNL     1       6.005  16.596  19.828  0.00  0.00    +0.000 A 
ENDBRANCH  13  16
BRANCH  10  23
ATOM     23  C   UNL     1       7.338  12.314  23.208  0.00  0.00    +0.000 A 
ATOM     24  N   UNL     1       6.097  12.864  23.444  0.00  0.00    +0.000 NA
ATOM     25  N   UNL     1       5.587  12.230  24.491  0.00  0.00    +0.000 NA
ATOM     26  N   UNL     1       6.528  11.346  24.836  0.00  0.00    +0.000 N 
ATOM     27  N   UNL     1       7.637  11.338  24.084  0.00  0.00    +0.000 NA
ATOM     28  H   UNL     1       6.403  10.717  25.625  0.00  0.00    +0.000 HD
ENDBRANCH  10  23
TORSDOF 2
ENDMDL
MODEL 3
REMARK VINA RESULT:      -7.2      4.767      8.438
REMARK  Name = 
REMARK  3 active torsions:
REMARK  status: ('A' for Active; 'I' for Inactive)
REMARK    1  A    between atoms: C_1  and  C_2
REMARK    2  A    between atoms: C_10  and  C_11
REMARK    3  A    between atoms: N_18  and  C_19
REMARK                            x       y       z     vdW  Elec       q    Type
REMARK                         _______ _______ _______ _____ _____    ______ ____
ROOT
ATOM      1  C   UNL     1       7.684   7.325  17.634  0.00  0.00    +0.000 C 
ATOM      2  C   UNL     1       6.950   6.230  16.965  0.00  0.00    +0.000 A 
ATOM      3  N   UNL     1       7.635   5.235  16.311  0.00  0.00    +0.000 NA
ATOM      4  N   UNL     1       6.751   4.370  15.829  0.00  0.00    +0.000 NA
ATOM      5  N   UNL     1       5.539   4.825  16.169  0.00  0.00    +0.000 N 
ATOM      6  C   UNL     1       5.589   5.986  16.883  0.00  0.00    +0.000 A 
ATOM      7  C   UNL     1       4.392   6.686  17.332  0.00  0.00    +0.000 A 
ATOM      8  C   UNL     1       4.389   8.089  17.180  0.00  0.00    +0.000 A 
ATOM      9  C   UNL     1       3.311   8.870  17.590  0.00  0.00    +0.000 A 
ATOM     10  C   UNL     1       2.190   8.266  18.150  0.00  0.00    +0.000 A 
ATOM     11  C   UNL     1       2.172   6.866  18.265  0.00  0.00    +0.000 A 
ATOM     12  C   UNL     1       3.257   6.033  17.876  0.00  0.00    +0.000 A 
ATOM     13  N   UNL     1       3.113   4.633  18.090  0.00  0.00    +0.000 N 
ATOM     14  C   UNL     1       3.757   3.605  17.225  0.00  0.00    +0.000 C 
ATOM     15  C   UNL     1       4.346   4.069  15.907  0.00  0.00    +0.000 C 
ENDROOT
BRANCH  13  16
ATOM     16  C   UNL     1       2.490   4.067  19.253  0.00  0.00    +0.000 A 
ATOM     17  C   UNL     1       3.036   4.202  20.543  0.00  0.00    +0.000 A 
ATOM     18  C   UNL     1       2.468   3.559  21.650  0.00  0.00    +0.000 A 
ATOM     19  C   UNL     1       1.338   2.767  21.488  0.00  0.00    +0.000 A 
ATOM     20 CL   UNL     1       0.683   1.923  22.835  0.00  0.00    +0.000 Cl
ATOM     21  C   UNL     1       0.750   2.643  20.236  0.00  0.00    +0.000 A 
ATOM     22  C   UNL     1       1.317   3.296  19.135  0.00  0.00    +0.000 A 
ENDBRANCH  13  16
BRANCH  10  23
ATOM     23  C   UNL     1       1.071   9.074  18.612  0.00  0.00    +0.000 A 
ATOM     24  N   UNL     1       0.821   9.310  19.947  0.00  0.00    +0.000 NA
ATOM     25  N   UNL     1      -0.273  10.056  20.008  0.00  0.00    +0.000 NA
ATOM     26  N   UNL     1      -0.631  10.230  18.732  0.00  0.00    +0.000 N 
ATOM     27  N   UNL     1       0.157   9.654  17.813  0.00  0.00    +0.000 NA
ATOM     28  H   UNL     1      -1.454  10.770  18.479  0.00  0.00    +0.000 HD
ENDBRANCH  10  23
TORSDOF 2
ENDMDL
MODEL 4
REMARK VINA RESULT:      -7.2      4.831      8.536
REMARK  Name = 
REMARK  3 active torsions:
REMARK  status: ('A' for Active; 'I' for Inactive)
REMARK    1  A    between atoms: C_1  and  C_2
REMARK    2  A    between atoms: C_10  and  C_11
REMARK    3  A    between atoms: N_18  and  C_19
REMARK                            x       y       z     vdW  Elec       q    Type
REMARK                         _______ _______ _______ _____ _____    ______ ____
ROOT
ATOM      1  C   UNL     1       7.725   7.232  17.595  0.00  0.00    +0.000 C 
ATOM      2  C   UNL     1       6.978   6.191  16.858  0.00  0.00    +0.000 A 
ATOM      3  N   UNL     1       7.650   5.250  16.116  0.00  0.00    +0.000 NA
ATOM      4  N   UNL     1       6.758   4.423  15.587  0.00  0.00    +0.000 NA
ATOM      5  N   UNL     1       5.553   4.848  15.985  0.00  0.00    +0.000 N 
ATOM      6  C   UNL     1       5.617   5.951  16.784  0.00  0.00    +0.000 A 
ATOM      7  C   UNL     1       4.428   6.613  17.309  0.00  0.00    +0.000 A 
ATOM      8  C   UNL     1       4.422   8.023  17.264  0.00  0.00    +0.000 A 
ATOM      9  C   UNL     1       3.352   8.769  17.754  0.00  0.00    +0.000 A 
ATOM     10  C   UNL     1       2.243   8.122  18.289  0.00  0.00    +0.000 A 
ATOM     11  C   UNL     1       2.227   6.717  18.296  0.00  0.00    +0.000 A 
ATOM     12  C   UNL     1       3.304   5.918  17.823  0.00  0.00    +0.000 A 
ATOM     13  N   UNL     1       3.164   4.505  17.932  0.00  0.00    +0.000 N 
ATOM     14  C   UNL     1       3.792   3.548  16.979  0.00  0.00    +0.000 C 
ATOM     15  C   UNL     1       4.355   4.113  15.689  0.00  0.00    +0.000 C 
ENDROOT
BRANCH  13  16
ATOM     16  C   UNL     1       2.565   3.852  19.061  0.00  0.00    +0.000 A 
ATOM     17  C   UNL     1       1.173   3.695  19.191  0.00  0.00    +0.000 A 
ATOM     18  C   UNL     1       0.603   3.144  20.346  0.00  0.00    +0.000 A 
ATOM     19  C   UNL     1       1.417   2.736  21.395  0.00  0.00    +0.000 A 
ATOM     20 CL   UNL     1       0.712   2.125  22.839  0.00  0.00    +0.000 Cl
ATOM     21  C   UNL     1       2.797   2.841  21.285  0.00  0.00    +0.000 A 
ATOM     22  C   UNL     1       3.362   3.383  20.124  0.00  0.00    +0.000 A 
ENDBRANCH  13  16
BRANCH  10  23
ATOM     23  C   UNL     1       1.133   8.891  18.833  0.00  0.00    +0.000 A 
ATOM     24  N   UNL     1       0.271   9.619  18.041  0.00  0.00    +0.000 NA
ATOM     25  N   UNL     1      -0.596  10.206  18.854  0.00  0.00    +0.000 NA
ATOM     26  N   UNL     1      -0.223   9.817  20.078  0.00  0.00    +0.000 N 
ATOM     27  N   UNL     1       0.836   8.998  20.140  0.00  0.00    +0.000 NA
ATOM     28  H   UNL     1      -0.720  10.126  20.909  0.00  0.00    +0.000 HD
ENDBRANCH  10  23
TORSDOF 2
ENDMDL
MODEL 5
REMARK VINA RESULT:      -7.2      3.614      7.211
REMARK  Name = 
REMARK  3 active torsions:
REMARK  status: ('A' for Active; 'I' for Inactive)
REMARK    1  A    between atoms: C_1  and  C_2
REMARK    2  A    between atoms: C_10  and  C_11
REMARK    3  A    between atoms: N_18  and  C_19
REMARK                            x       y       z     vdW  Elec       q    Type
REMARK                         _______ _______ _______ _____ _____    ______ ____
ROOT
ATOM      1  C   UNL     1      -6.368  17.360  18.044  0.00  0.00    +0.000 C 
ATOM      2  C   UNL     1      -6.703  16.053  17.439  0.00  0.00    +0.000 A 
ATOM      3  N   UNL     1      -7.164  15.986  16.146  0.00  0.00    +0.000 NA
ATOM      4  N   UNL     1      -7.357  14.709  15.840  0.00  0.00    +0.000 NA
ATOM      5  N   UNL     1      -7.032  13.998  16.926  0.00  0.00    +0.000 N 
ATOM      6  C   UNL     1      -6.612  14.775  17.964  0.00  0.00    +0.000 A 
ATOM      7  C   UNL     1      -6.240  14.223  19.262  0.00  0.00    +0.000 A 
ATOM      8  C   UNL     1      -6.712  14.913  20.398  0.00  0.00    +0.000 A 
ATOM      9  C   UNL     1      -6.406  14.494  21.691  0.00  0.00    +0.000 A 
ATOM     10  C   UNL     1      -5.629  13.357  21.886  0.00  0.00    +0.000 A 
ATOM     11  C   UNL     1      -5.193  12.644  20.757  0.00  0.00    +0.000 A 
ATOM     12  C   UNL     1      -5.468  13.045  19.421  0.00  0.00    +0.000 A 
ATOM     13  N   UNL     1      -4.924  12.246  18.376  0.00  0.00    +0.000 N 
ATOM     14  C   UNL     1      -5.578  12.087  17.047  0.00  0.00    +0.000 C 
ATOM     15  C   UNL     1      -7.012  12.561  16.911  0.00  0.00    +0.000 C 
ENDROOT
BRANCH  13  16
ATOM     16  C   UNL     1      -3.613  11.661  18.423  0.00  0.00    +0.000 A 
ATOM     17  C   UNL     1      -3.278  10.501  17.701  0.00  0.00    +0.000 A 
ATOM     18  C   UNL     1      -2.025   9.890  17.838  0.00  0.00    +0.000 A 
ATOM     19  C   UNL     1      -1.080  10.430  18.702  0.00  0.00    +0.000 A 
ATOM     20 CL   UNL     1       0.431   9.640  18.921  0.00  0.00    +0.000 Cl
ATOM     21  C   UNL     1      -1.364  11.596  19.401  0.00  0.00    +0.000 A 
ATOM     22  C   UNL     1      -2.614  12.208  19.252  0.00  0.00    +0.000 A 
ENDBRANCH  13  16
BRANCH  10  23
ATOM     23  C   UNL     1      -5.276  12.928  23.232  0.00  0.00    +0.000 A 
ATOM     24  N   UNL     1      -4.096  13.290  23.844  0.00  0.00    +0.000 NA
ATOM     25  N   UNL     1      -4.089  12.715  25.039  0.00  0.00    +0.000 NA
ATOM     26  N   UNL     1      -5.242  12.039  25.091  0.00  0.00    +0.000 N 
ATOM     27  N   UNL     1      -6.029  12.129  24.009  0.00  0.00    +0.000 NA
ATOM     28  H   UNL     1      -5.502  11.492  25.907  0.00  0.00    +0.000 HD
ENDBRANCH  10  23
TORSDOF 2
ENDMDL
MODEL 6
REMARK VINA RESULT:      -7.1      8.368     11.409
REMARK  Name = 
REMARK  3 active torsions:
REMARK  status: ('A' for Active; 'I' for Inactive)
REMARK    1  A    between atoms: C_1  and  C_2
REMARK    2  A    between atoms: C_10  and  C_11
REMARK    3  A    between atoms: N_18  and  C_19
REMARK                            x       y       z     vdW  Elec       q    Type
REMARK                         _______ _______ _______ _____ _____    ______ ____
ROOT
ATOM      1  C   UNL     1      10.717  11.402  17.730  0.00  0.00    +0.000 C 
ATOM      2  C   UNL     1      10.745  12.880  17.713  0.00  0.00    +0.000 A 
ATOM      3  N   UNL     1      11.469  13.549  16.756  0.00  0.00    +0.000 NA
ATOM      4  N   UNL     1      11.302  14.852  16.944  0.00  0.00    +0.000 NA
ATOM      5  N   UNL     1      10.498  14.990  18.005  0.00  0.00    +0.000 N 
ATOM      6  C   UNL     1      10.110  13.795  18.536  0.00  0.00    +0.000 A 
ATOM      7  C   UNL     1       9.262  13.697  19.718  0.00  0.00    +0.000 A 
ATOM      8  C   UNL     1       9.631  12.732  20.679  0.00  0.00    +0.000 A 
ATOM      9  C   UNL     1       8.888  12.531  21.840  0.00  0.00    +0.000 A 
ATOM     10  C   UNL     1       7.758  13.305  22.084  0.00  0.00    +0.000 A 
ATOM     11  C   UNL     1       7.412  14.295  21.149  0.00  0.00    +0.000 A 
ATOM     12  C   UNL     1       8.131  14.522  19.944  0.00  0.00    +0.000 A 
ATOM     13  N   UNL     1       7.637  15.533  19.071  0.00  0.00    +0.000 N 
ATOM     14  C   UNL     1       8.516  16.339  18.178  0.00  0.00    +0.000 C 
ATOM     15  C   UNL     1      10.011  16.274  18.424  0.00  0.00    +0.000 C 
ENDROOT
BRANCH  13  16
ATOM     16  C   UNL     1       6.241  15.757  18.825  0.00  0.00    +0.000 A 
ATOM     17  C   UNL     1       5.519  16.786  19.457  0.00  0.00    +0.000 A 
ATOM     18  C   UNL     1       4.136  16.926  19.280  0.00  0.00    +0.000 A 
ATOM     19  C   UNL     1       3.448  16.037  18.464  0.00  0.00    +0.000 A 
ATOM     20 CL   UNL     1       1.741  16.168  18.303  0.00  0.00    +0.000 Cl
ATOM     21  C   UNL     1       4.135  15.033  17.794  0.00  0.00    +0.000 A 
ATOM     22  C   UNL     1       5.518  14.904  17.967  0.00  0.00    +0.000 A 
ENDBRANCH  13  16
BRANCH  10  23
ATOM     23  C   UNL     1       6.956  13.081  23.278  0.00  0.00    +0.000 A 
ATOM     24  N   UNL     1       6.387  11.862  23.577  0.00  0.00    +0.000 NA
ATOM     25  N   UNL     1       5.715  12.018  24.709  0.00  0.00    +0.000 NA
ATOM     26  N   UNL     1       5.901  13.301  25.034  0.00  0.00    +0.000 N 
ATOM     27  N   UNL     1       6.662  14.019  24.196  0.00  0.00    +0.000 NA
ATOM     28  H   UNL     1       5.488  13.703  25.872  0.00  0.00    +0.000 HD
ENDBRANCH  10  23
TORSDOF 2
ENDMDL
MODEL 7
REMARK VINA RESULT:      -7.0      2.738      4.139
REMARK  Name = 
REMARK  3 active torsions:
REMARK  status: ('A' for Active; 'I' for Inactive)
REMARK    1  A    between atoms: C_1  and  C_2
REMARK    2  A    between atoms: C_10  and  C_11
REMARK    3  A    between atoms: N_18  and  C_19
REMARK                            x       y       z     vdW  Elec       q    Type
REMARK                         _______ _______ _______ _____ _____    ______ ____
ROOT
ATOM      1  C   UNL     1      -7.917  12.024  22.598  0.00  0.00    +0.000 C 
ATOM      2  C   UNL     1      -6.892  13.077  22.757  0.00  0.00    +0.000 A 
ATOM      3  N   UNL     1      -6.974  13.973  23.796  0.00  0.00    +0.000 NA
ATOM      4  N   UNL     1      -5.926  14.784  23.729  0.00  0.00    +0.000 NA
ATOM      5  N   UNL     1      -5.212  14.405  22.663  0.00  0.00    +0.000 N 
ATOM      6  C   UNL     1      -5.758  13.341  22.008  0.00  0.00    +0.000 A 
ATOM      7  C   UNL     1      -5.173  12.777  20.797  0.00  0.00    +0.000 A 
ATOM      8  C   UNL     1      -6.071  12.448  19.759  0.00  0.00    +0.000 A 
ATOM      9  C   UNL     1      -5.634  11.884  18.563  0.00  0.00    +0.000 A 
ATOM     10  C   UNL     1      -4.278  11.647  18.361  0.00  0.00    +0.000 A 
ATOM     11  C   UNL     1      -3.378  12.012  19.376  0.00  0.00    +0.000 A 
ATOM     12  C   UNL     1      -3.781  12.574  20.618  0.00  0.00    +0.000 A 
ATOM     13  N   UNL     1      -2.759  12.855  21.569  0.00  0.00    +0.000 N 
ATOM     14  C   UNL     1      -2.851  13.963  22.561  0.00  0.00    +0.000 C 
ATOM     15  C   UNL     1      -3.940  14.998  22.355  0.00  0.00    +0.000 C 
ENDROOT
BRANCH  13  16
ATOM     16  C   UNL     1      -1.627  12.002  21.793  0.00  0.00    +0.000 A 
ATOM     17  C   UNL     1      -0.538  11.942  20.905  0.00  0.00    +0.000 A 
ATOM     18  C   UNL     1       0.510  11.030  21.089  0.00  0.00    +0.000 A 
ATOM     19  C   UNL     1       0.488  10.159  22.171  0.00  0.00    +0.000 A 
ATOM     20 CL   UNL     1       1.739   8.994  22.358  0.00  0.00    +0.000 Cl
ATOM     21  C   UNL     1      -0.552  10.216  23.089  0.00  0.00    +0.000 A 
ATOM     22  C   UNL     1      -1.591  11.136  22.905  0.00  0.00    +0.000 A 
ENDBRANCH  13  16
BRANCH  10  23
ATOM     23  C   UNL     1      -3.814  11.029  17.128  0.00  0.00    +0.000 A 
ATOM     24  N   UNL     1      -2.813  10.082  17.099  0.00  0.00    +0.000 NA
ATOM     25  N   UNL     1      -2.631   9.753  15.828  0.00  0.00    +0.000 NA
ATOM     26  N   UNL     1      -3.509  10.506  15.158  0.00  0.00    +0.000 N 
ATOM     27  N   UNL     1      -4.278  11.317  15.898  0.00  0.00    +0.000 NA
ATOM     28  H   UNL     1      -3.586  10.461  14.146  0.00  0.00    +0.000 HD
ENDBRANCH  10  23
TORSDOF 2
ENDMDL
MODEL 8
REMARK VINA RESULT:      -6.9      3.074      4.206
REMARK  Name = 
REMARK  3 active torsions:
REMARK  status: ('A' for Active; 'I' for Inactive)
REMARK    1  A    between atoms: C_1  and  C_2
REMARK    2  A    between atoms: C_10  and  C_11
REMARK    3  A    between atoms: N_18  and  C_19
REMARK                            x       y       z     vdW  Elec       q    Type
REMARK                         _______ _______ _______ _____ _____    ______ ____
ROOT
ATOM      1  C   UNL     1      -1.804  15.630  26.050  0.00  0.00    +0.000 C 
ATOM      2  C   UNL     1      -0.931  15.757  24.863  0.00  0.00    +0.000 A 
ATOM      3  N   UNL     1       0.244  16.464  24.939  0.00  0.00    +0.000 NA
ATOM      4  N   UNL     1       0.846  16.398  23.759  0.00  0.00    +0.000 NA
ATOM      5  N   UNL     1       0.055  15.670  22.961  0.00  0.00    +0.000 N 
ATOM      6  C   UNL     1      -1.075  15.236  23.589  0.00  0.00    +0.000 A 
ATOM      7  C   UNL     1      -2.103  14.456  22.909  0.00  0.00    +0.000 A 
ATOM      8  C   UNL     1      -3.442  14.817  23.169  0.00  0.00    +0.000 A 
ATOM      9  C   UNL     1      -4.511  14.133  22.594  0.00  0.00    +0.000 A 
ATOM     10  C   UNL     1      -4.271  13.075  21.724  0.00  0.00    +0.000 A 
ATOM     11  C   UNL     1      -2.939  12.740  21.430  0.00  0.00    +0.000 A 
ATOM     12  C   UNL     1      -1.819  13.399  22.007  0.00  0.00    +0.000 A 
ATOM     13  N   UNL     1      -0.526  12.923  21.647  0.00  0.00    +0.000 N 
ATOM     14  C   UNL     1       0.678  13.798  21.588  0.00  0.00    +0.000 C 
ATOM     15  C   UNL     1       0.456  15.298  21.633  0.00  0.00    +0.000 C 
ENDROOT
BRANCH  13  16
ATOM     16  C   UNL     1      -0.210  11.532  21.481  0.00  0.00    +0.000 A 
ATOM     17  C   UNL     1      -0.343  10.598  22.524  0.00  0.00    +0.000 A 
ATOM     18  C   UNL     1       0.066   9.267  22.372  0.00  0.00    +0.000 A 
ATOM     19  C   UNL     1       0.615   8.843  21.169  0.00  0.00    +0.000 A 
ATOM     20 CL   UNL     1       1.180   7.227  21.007  0.00  0.00    +0.000 Cl
ATOM     21  C   UNL     1       0.726   9.728  20.105  0.00  0.00    +0.000 A 
ATOM     22  C   UNL     1       0.307  11.055  20.260  0.00  0.00    +0.000 A 
ENDBRANCH  13  16
BRANCH  10  23
ATOM     23  C   UNL     1      -5.381  12.333  21.143  0.00  0.00    +0.000 A 
ATOM     24  N   UNL     1      -6.412  11.820  21.899  0.00  0.00    +0.000 NA
ATOM     25  N   UNL     1      -7.228  11.193  21.063  0.00  0.00    +0.000 NA
ATOM     26  N   UNL     1      -6.661  11.349  19.863  0.00  0.00    +0.000 N 
ATOM     27  N   UNL     1      -5.518  12.048  19.835  0.00  0.00    +0.000 NA
ATOM     28  H   UNL     1      -7.079  10.959  19.022  0.00  0.00    +0.000 HD
ENDBRANCH  10  23
TORSDOF 2
ENDMDL
MODEL 9
REMARK VINA RESULT:      -6.9      5.892      9.825
REMARK  Name = 
REMARK  3 active torsions:
REMARK  status: ('A' for Active; 'I' for Inactive)
REMARK    1  A    between atoms: C_1  and  C_2
REMARK    2  A    between atoms: C_10  and  C_11
REMARK    3  A    between atoms: N_18  and  C_19
REMARK                            x       y       z     vdW  Elec       q    Type
REMARK                         _______ _______ _______ _____ _____    ______ ____
ROOT
ATOM      1  C   UNL     1       5.196   3.297  14.138  0.00  0.00    +0.000 C 
ATOM      2  C   UNL     1       5.910   4.355  14.881  0.00  0.00    +0.000 A 
ATOM      3  N   UNL     1       6.919   5.067  14.278  0.00  0.00    +0.000 NA
ATOM      4  N   UNL     1       7.368   5.967  15.143  0.00  0.00    +0.000 NA
ATOM      5  N   UNL     1       6.659   5.811  16.267  0.00  0.00    +0.000 N 
ATOM      6  C   UNL     1       5.727   4.820  16.173  0.00  0.00    +0.000 A 
ATOM      7  C   UNL     1       4.862   4.445  17.285  0.00  0.00    +0.000 A 
ATOM      8  C   UNL     1       4.680   3.063  17.503  0.00  0.00    +0.000 A 
ATOM      9  C   UNL     1       3.859   2.581  18.521  0.00  0.00    +0.000 A 
ATOM     10  C   UNL     1       3.209   3.473  19.367  0.00  0.00    +0.000 A 
ATOM     11  C   UNL     1       3.421   4.849  19.180  0.00  0.00    +0.000 A 
ATOM     12  C   UNL     1       4.235   5.383  18.144  0.00  0.00    +0.000 A 
ATOM     13  N   UNL     1       4.323   6.801  18.050  0.00  0.00    +0.000 N 
ATOM     14  C   UNL     1       5.528   7.511  17.537  0.00  0.00    +0.000 C 
ATOM     15  C   UNL     1       6.803   6.703  17.383  0.00  0.00    +0.000 C 
ENDROOT
BRANCH  13  16
ATOM     16  C   UNL     1       3.210   7.682  18.264  0.00  0.00    +0.000 A 
ATOM     17  C   UNL     1       2.907   8.742  17.391  0.00  0.00    +0.000 A 
ATOM     18  C   UNL     1       1.878   9.651  17.670  0.00  0.00    +0.000 A 
ATOM     19  C   UNL     1       1.130   9.515  18.833  0.00  0.00    +0.000 A 
ATOM     20 CL   UNL     1      -0.086  10.672  19.209  0.00  0.00    +0.000 Cl
ATOM     21  C   UNL     1       1.376   8.458  19.699  0.00  0.00    +0.000 A 
ATOM     22  C   UNL     1       2.400   7.548  19.409  0.00  0.00    +0.000 A 
ENDBRANCH  13  16
BRANCH  10  23
ATOM     23  C   UNL     1       2.324   2.982  20.415  0.00  0.00    +0.000 A 
ATOM     24  N   UNL     1       2.785   2.560  21.642  0.00  0.00    +0.000 NA
ATOM     25  N   UNL     1       1.727   2.163  22.335  0.00  0.00    +0.000 NA
ATOM     26  N   UNL     1       0.694   2.355  21.508  0.00  0.00    +0.000 N 
ATOM     27  N   UNL     1       0.989   2.864  20.304  0.00  0.00    +0.000 NA
ATOM     28  H   UNL     1      -0.257   2.129  21.784  0.00  0.00    +0.000 HD
ENDBRANCH  10  23
TORSDOF 2
ENDMDL
