MODEL 1
REMARK VINA RESULT:      -7.8      0.000      0.000
REMARK  Name = 
REMARK  5 active torsions:
REMARK  status: ('A' for Active; 'I' for Inactive)
REMARK    1  A    between atoms: C_2  and  C_3
REMARK    2  A    between atoms: C_7  and  O_8
REMARK    3  A    between atoms: O_8  and  C_9
REMARK    4  A    between atoms: C_9  and  C_10
REMARK    5  A    between atoms: C_10  and  N_11
REMARK                            x       y       z     vdW  Elec       q    Type
REMARK                         _______ _______ _______ _____ _____    ______ ____
ROOT
ATOM      1  C   UNL     1       5.779   4.408  18.226  0.00  0.00    +0.000 C 
ENDROOT
BRANCH   1   2
ATOM      2  N   UNL     1       6.118   4.670  16.827  0.00  0.00    +0.000 N 
ATOM      3  N   UNL     1       7.132   5.562  16.622  0.00  0.00    +0.000 NA
ATOM      4  N   UNL     1       7.601   5.772  15.482  0.00  0.00    +0.000 NA
ATOM      5  C   UNL     1       7.137   5.036  14.387  0.00  0.00    +0.000 A 
ATOM      6  C   UNL     1       7.731   5.231  13.134  0.00  0.00    +0.000 A 
ATOM      7  C   UNL     1       7.313   4.500  12.017  0.00  0.00    +0.000 A 
ATOM      8  C   UNL     1       6.282   3.569  12.141  0.00  0.00    +0.000 A 
ATOM      9  C   UNL     1       5.678   3.368  13.381  0.00  0.00    +0.000 A 
ATOM     10  C   UNL     1       6.118   4.102  14.490  0.00  0.00    +0.000 A 
ATOM     11  C   UNL     1       5.565   3.892  15.826  0.00  0.00    +0.000 A 
ATOM     12  O   UNL     1       4.695   3.045  16.006  0.00  0.00    +0.000 OA
ENDBRANCH   1   2
BRANCH   1  13
ATOM     13  C   UNL     1       5.536   5.720  18.975  0.00  0.00    +0.000 C 
BRANCH  13  14
ATOM     14  O   UNL     1       4.197   6.191  18.785  0.00  0.00    +0.000 OA
BRANCH  14  19
ATOM     15  C   UNL     1       1.879   3.614  20.149  0.00  0.00    +0.000 A 
ATOM     16  C   UNL     1       1.142   3.341  18.996  0.00  0.00    +0.000 A 
ATOM     17  C   UNL     1       1.438   4.015  17.812  0.00  0.00    +0.000 A 
ATOM     18  C   UNL     1       2.468   4.962  17.781  0.00  0.00    +0.000 A 
ATOM     19  C   UNL     1       3.212   5.244  18.930  0.00  0.00    +0.000 A 
ATOM     20  C   UNL     1       2.910   4.563  20.114  0.00  0.00    +0.000 A 
BRANCH  15  22
ATOM     21  N   UNL     1       1.352   2.390  22.374  0.00  0.00    +0.000 NA
ATOM     22  C   UNL     1       1.588   2.931  21.375  0.00  0.00    +0.000 C 
ENDBRANCH  15  22
ENDBRANCH  14  19
ENDBRANCH  13  14
ENDBRANCH   1  13
TORSDOF 5
ENDMDL
MODEL 2
REMARK VINA RESULT:      -7.5      2.006      7.260
REMARK  Name = 
REMARK  5 active torsions:
REMARK  status: ('A' for Active; 'I' for Inactive)
REMARK    1  A    between atoms: C_2  and  C_3
REMARK    2  A    between atoms: C_7  and  O_8
REMARK    3  A    between atoms: O_8  and  C_9
REMARK    4  A    between atoms: C_9  and  C_10
REMARK    5  A    between atoms: C_10  and  N_11
REMARK                            x       y       z     vdW  Elec       q    Type
REMARK                         _______ _______ _______ _____ _____    ______ ____
ROOT
ATOM      1  C   UNL     1       6.313   5.938  18.057  0.00  0.00    +0.000 C 
ENDROOT
BRANCH   1   2
ATOM      2  N   UNL     1       5.288   5.061  18.621  0.00  0.00    +0.000 N 
ATOM      3  N   UNL     1       5.739   3.881  19.141  0.00  0.00    +0.000 NA
ATOM      4  N   UNL     1       4.983   3.105  19.766  0.00  0.00    +0.000 NA
ATOM      5  C   UNL     1       3.654   3.469  20.010  0.00  0.00    +0.000 A 
ATOM      6  C   UNL     1       2.847   2.622  20.779  0.00  0.00    +0.000 A 
ATOM      7  C   UNL     1       1.520   2.957  21.065  0.00  0.00    +0.000 A 
ATOM      8  C   UNL     1       0.980   4.146  20.573  0.00  0.00    +0.000 A 
ATOM      9  C   UNL     1       1.770   4.996  19.801  0.00  0.00    +0.000 A 
ATOM     10  C   UNL     1       3.100   4.647  19.534  0.00  0.00    +0.000 A 
ATOM     11  C   UNL     1       3.994   5.525  18.782  0.00  0.00    +0.000 A 
ATOM     12  O   UNL     1       3.591   6.609  18.372  0.00  0.00    +0.000 OA
ENDBRANCH   1   2
BRANCH   1  13
ATOM     13  C   UNL     1       6.888   5.336  16.773  0.00  0.00    +0.000 C 
BRANCH  13  14
ATOM     14  O   UNL     1       5.875   5.161  15.778  0.00  0.00    +0.000 OA
BRANCH  14  19
ATOM     15  C   UNL     1       6.362   3.459  12.500  0.00  0.00    +0.000 A 
ATOM     16  C   UNL     1       7.408   4.234  11.997  0.00  0.00    +0.000 A 
ATOM     17  C   UNL     1       7.915   5.288  12.758  0.00  0.00    +0.000 A 
ATOM     18  C   UNL     1       7.375   5.566  14.019  0.00  0.00    +0.000 A 
ATOM     19  C   UNL     1       6.327   4.797  14.532  0.00  0.00    +0.000 A 
ATOM     20  C   UNL     1       5.825   3.741  13.764  0.00  0.00    +0.000 A 
BRANCH  15  22
ATOM     21  N   UNL     1       5.404   1.498  11.099  0.00  0.00    +0.000 NA
ATOM     22  C   UNL     1       5.829   2.373  11.732  0.00  0.00    +0.000 C 
ENDBRANCH  15  22
ENDBRANCH  14  19
ENDBRANCH  13  14
ENDBRANCH   1  13
TORSDOF 5
ENDMDL
MODEL 3
REMARK VINA RESULT:      -7.5      2.725      3.549
REMARK  Name = 
REMARK  5 active torsions:
REMARK  status: ('A' for Active; 'I' for Inactive)
REMARK    1  A    between atoms: C_2  and  C_3
REMARK    2  A    between atoms: C_7  and  O_8
REMARK    3  A    between atoms: O_8  and  C_9
REMARK    4  A    between atoms: C_9  and  C_10
REMARK    5  A    between atoms: C_10  and  N_11
REMARK                            x       y       z     vdW  Elec       q    Type
REMARK                         _______ _______ _______ _____ _____    ______ ____
ROOT
ATOM      1  C   UNL     1       3.721   2.667  19.949  0.00  0.00    +0.000 C 
ENDROOT
BRANCH   1   2
ATOM      2  N   UNL     1       4.519   3.380  18.952  0.00  0.00    +0.000 N 
ATOM      3  N   UNL     1       5.697   3.905  19.403  0.00  0.00    +0.000 NA
ATOM      4  N   UNL     1       6.527   4.423  18.624  0.00  0.00    +0.000 NA
ATOM      5  C   UNL     1       6.293   4.413  17.245  0.00  0.00    +0.000 A 
ATOM      6  C   UNL     1       7.271   4.928  16.385  0.00  0.00    +0.000 A 
ATOM      7  C   UNL     1       7.088   4.918  14.998  0.00  0.00    +0.000 A 
ATOM      8  C   UNL     1       5.912   4.399  14.455  0.00  0.00    +0.000 A 
ATOM      9  C   UNL     1       4.927   3.889  15.300  0.00  0.00    +0.000 A 
ATOM     10  C   UNL     1       5.134   3.898  16.685  0.00  0.00    +0.000 A 
ATOM     11  C   UNL     1       4.165   3.323  17.615  0.00  0.00    +0.000 A 
ATOM     12  O   UNL     1       3.138   2.802  17.192  0.00  0.00    +0.000 OA
ENDBRANCH   1   2
BRANCH   1  13
ATOM     13  C   UNL     1       2.795   3.634  20.689  0.00  0.00    +0.000 C 
BRANCH  13  14
ATOM     14  O   UNL     1       1.835   4.221  19.804  0.00  0.00    +0.000 OA
BRANCH  14  19
ATOM     15  C   UNL     1       1.632   7.865  20.546  0.00  0.00    +0.000 A 
ATOM     16  C   UNL     1       2.026   8.370  19.306  0.00  0.00    +0.000 A 
ATOM     17  C   UNL     1       2.342   7.491  18.271  0.00  0.00    +0.000 A 
ATOM     18  C   UNL     1       2.266   6.108  18.477  0.00  0.00    +0.000 A 
ATOM     19  C   UNL     1       1.873   5.591  19.715  0.00  0.00    +0.000 A 
ATOM     20  C   UNL     1       1.556   6.480  20.747  0.00  0.00    +0.000 A 
BRANCH  15  22
ATOM     21  N   UNL     1       1.034   9.485  22.481  0.00  0.00    +0.000 NA
ATOM     22  C   UNL     1       1.304   8.755  21.621  0.00  0.00    +0.000 C 
ENDBRANCH  15  22
ENDBRANCH  14  19
ENDBRANCH  13  14
ENDBRANCH   1  13
TORSDOF 5
ENDMDL
MODEL 4
REMARK VINA RESULT:      -7.3      3.281      4.209
REMARK  Name = 
REMARK  5 active torsions:
REMARK  status: ('A' for Active; 'I' for Inactive)
REMARK    1  A    between atoms: C_2  and  C_3
REMARK    2  A    between atoms: C_7  and  O_8
REMARK    3  A    between atoms: O_8  and  C_9
REMARK    4  A    between atoms: C_9  and  C_10
REMARK    5  A    between atoms: C_10  and  N_11
REMARK                            x       y       z     vdW  Elec       q    Type
REMARK                         _______ _______ _______ _____ _____    ______ ____
ROOT
ATOM      1  C   UNL     1       2.572   3.485  19.640  0.00  0.00    +0.000 C 
ENDROOT
BRANCH   1   2
ATOM      2  N   UNL     1       3.698   3.928  18.819  0.00  0.00    +0.000 N 
ATOM      3  N   UNL     1       4.878   4.108  19.483  0.00  0.00    +0.000 NA
ATOM      4  N   UNL     1       5.942   4.359  18.876  0.00  0.00    +0.000 NA
ATOM      5  C   UNL     1       5.959   4.392  17.477  0.00  0.00    +0.000 A 
ATOM      6  C   UNL     1       7.176   4.596  16.816  0.00  0.00    +0.000 A 
ATOM      7  C   UNL     1       7.242   4.614  15.419  0.00  0.00    +0.000 A 
ATOM      8  C   UNL     1       6.082   4.438  14.665  0.00  0.00    +0.000 A 
ATOM      9  C   UNL     1       4.862   4.239  15.310  0.00  0.00    +0.000 A 
ATOM     10  C   UNL     1       4.818   4.214  16.710  0.00  0.00    +0.000 A 
ATOM     11  C   UNL     1       3.581   3.950  17.441  0.00  0.00    +0.000 A 
ATOM     12  O   UNL     1       2.539   3.732  16.830  0.00  0.00    +0.000 OA
ENDBRANCH   1   2
BRANCH   1  13
ATOM     13  C   UNL     1       1.769   4.686  20.146  0.00  0.00    +0.000 C 
BRANCH  13  14
ATOM     14  O   UNL     1       2.615   5.813  20.393  0.00  0.00    +0.000 OA
BRANCH  14  19
ATOM     15  C   UNL     1       1.055   9.169  19.969  0.00  0.00    +0.000 A 
ATOM     16  C   UNL     1       1.361   9.392  18.626  0.00  0.00    +0.000 A 
ATOM     17  C   UNL     1       2.069   8.427  17.909  0.00  0.00    +0.000 A 
ATOM     18  C   UNL     1       2.471   7.242  18.537  0.00  0.00    +0.000 A 
ATOM     19  C   UNL     1       2.171   7.009  19.881  0.00  0.00    +0.000 A 
ATOM     20  C   UNL     1       1.459   7.981  20.593  0.00  0.00    +0.000 A 
BRANCH  15  22
ATOM     21  N   UNL     1      -0.247  10.950  21.333  0.00  0.00    +0.000 NA
ATOM     22  C   UNL     1       0.329  10.151  20.720  0.00  0.00    +0.000 C 
ENDBRANCH  15  22
ENDBRANCH  14  19
ENDBRANCH  13  14
ENDBRANCH   1  13
TORSDOF 5
ENDMDL
MODEL 5
REMARK VINA RESULT:      -7.2      2.287      7.348
REMARK  Name = 
REMARK  5 active torsions:
REMARK  status: ('A' for Active; 'I' for Inactive)
REMARK    1  A    between atoms: C_2  and  C_3
REMARK    2  A    between atoms: C_7  and  O_8
REMARK    3  A    between atoms: O_8  and  C_9
REMARK    4  A    between atoms: C_9  and  C_10
REMARK    5  A    between atoms: C_10  and  N_11
REMARK                            x       y       z     vdW  Elec       q    Type
REMARK                         _______ _______ _______ _____ _____    ______ ____
ROOT
ATOM      1  C   UNL     1       5.699   6.242  17.753  0.00  0.00    +0.000 C 
ENDROOT
BRANCH   1   2
ATOM      2  N   UNL     1       4.578   5.759  18.560  0.00  0.00    +0.000 N 
ATOM      3  N   UNL     1       3.416   6.468  18.442  0.00  0.00    +0.000 NA
ATOM      4  N   UNL     1       2.355   6.083  18.978  0.00  0.00    +0.000 NA
ATOM      5  C   UNL     1       2.317   4.862  19.660  0.00  0.00    +0.000 A 
ATOM      6  C   UNL     1       1.099   4.412  20.183  0.00  0.00    +0.000 A 
ATOM      7  C   UNL     1       1.012   3.187  20.853  0.00  0.00    +0.000 A 
ATOM      8  C   UNL     1       2.153   2.401  21.017  0.00  0.00    +0.000 A 
ATOM      9  C   UNL     1       3.373   2.839  20.505  0.00  0.00    +0.000 A 
ATOM     10  C   UNL     1       3.438   4.063  19.829  0.00  0.00    +0.000 A 
ATOM     11  C   UNL     1       4.675   4.547  19.220  0.00  0.00    +0.000 A 
ATOM     12  O   UNL     1       5.697   3.871  19.282  0.00  0.00    +0.000 OA
ENDBRANCH   1   2
BRANCH   1  13
ATOM     13  C   UNL     1       5.579   5.740  16.312  0.00  0.00    +0.000 C 
BRANCH  13  14
ATOM     14  O   UNL     1       6.717   4.958  15.935  0.00  0.00    +0.000 OA
BRANCH  14  19
ATOM     15  C   UNL     1       6.399   3.589  12.485  0.00  0.00    +0.000 A 
ATOM     16  C   UNL     1       7.289   4.435  11.824  0.00  0.00    +0.000 A 
ATOM     17  C   UNL     1       7.962   5.426  12.539  0.00  0.00    +0.000 A 
ATOM     18  C   UNL     1       7.743   5.568  13.915  0.00  0.00    +0.000 A 
ATOM     19  C   UNL     1       6.854   4.726  14.587  0.00  0.00    +0.000 A 
ATOM     20  C   UNL     1       6.184   3.735  13.862  0.00  0.00    +0.000 A 
BRANCH  15  22
ATOM     21  N   UNL     1       5.140   1.741  11.171  0.00  0.00    +0.000 NA
ATOM     22  C   UNL     1       5.699   2.567  11.765  0.00  0.00    +0.000 C 
ENDBRANCH  15  22
ENDBRANCH  14  19
ENDBRANCH  13  14
ENDBRANCH   1  13
TORSDOF 5
ENDMDL
MODEL 6
REMARK VINA RESULT:      -7.2      3.674      4.645
REMARK  Name = 
REMARK  5 active torsions:
REMARK  status: ('A' for Active; 'I' for Inactive)
REMARK    1  A    between atoms: C_2  and  C_3
REMARK    2  A    between atoms: C_7  and  O_8
REMARK    3  A    between atoms: O_8  and  C_9
REMARK    4  A    between atoms: C_9  and  C_10
REMARK    5  A    between atoms: C_10  and  N_11
REMARK                            x       y       z     vdW  Elec       q    Type
REMARK                         _______ _______ _______ _____ _____    ______ ____
ROOT
ATOM      1  C   UNL     1       3.225   4.636  20.252  0.00  0.00    +0.000 C 
ENDROOT
BRANCH   1   2
ATOM      2  N   UNL     1       3.888   4.372  18.976  0.00  0.00    +0.000 N 
ATOM      3  N   UNL     1       3.062   4.056  17.935  0.00  0.00    +0.000 NA
ATOM      4  N   UNL     1       3.493   3.935  16.768  0.00  0.00    +0.000 NA
ATOM      5  C   UNL     1       4.839   4.194  16.488  0.00  0.00    +0.000 A 
ATOM      6  C   UNL     1       5.283   4.130  15.161  0.00  0.00    +0.000 A 
ATOM      7  C   UNL     1       6.615   4.403  14.835  0.00  0.00    +0.000 A 
ATOM      8  C   UNL     1       7.525   4.734  15.839  0.00  0.00    +0.000 A 
ATOM      9  C   UNL     1       7.098   4.796  17.165  0.00  0.00    +0.000 A 
ATOM     10  C   UNL     1       5.758   4.530  17.470  0.00  0.00    +0.000 A 
ATOM     11  C   UNL     1       5.239   4.637  18.832  0.00  0.00    +0.000 A 
ATOM     12  O   UNL     1       5.979   4.980  19.748  0.00  0.00    +0.000 OA
ENDBRANCH   1   2
BRANCH   1  13
ATOM     13  C   UNL     1       2.138   5.701  20.083  0.00  0.00    +0.000 C 
BRANCH  13  14
ATOM     14  O   UNL     1       2.682   6.930  19.592  0.00  0.00    +0.000 OA
BRANCH  14  19
ATOM     15  C   UNL     1       0.553   9.631  21.022  0.00  0.00    +0.000 A 
ATOM     16  C   UNL     1       0.269  10.337  19.853  0.00  0.00    +0.000 A 
ATOM     17  C   UNL     1       0.789   9.897  18.636  0.00  0.00    +0.000 A 
ATOM     18  C   UNL     1       1.593   8.751  18.590  0.00  0.00    +0.000 A 
ATOM     19  C   UNL     1       1.884   8.036  19.755  0.00  0.00    +0.000 A 
ATOM     20  C   UNL     1       1.357   8.484  20.971  0.00  0.00    +0.000 A 
BRANCH  15  22
ATOM     21  N   UNL     1      -0.411  10.429  23.294  0.00  0.00    +0.000 NA
ATOM     22  C   UNL     1       0.027  10.070  22.281  0.00  0.00    +0.000 C 
ENDBRANCH  15  22
ENDBRANCH  14  19
ENDBRANCH  13  14
ENDBRANCH   1  13
TORSDOF 5
ENDMDL
MODEL 7
REMARK VINA RESULT:      -7.2      4.909      8.082
REMARK  Name = 
REMARK  5 active torsions:
REMARK  status: ('A' for Active; 'I' for Inactive)
REMARK    1  A    between atoms: C_2  and  C_3
REMARK    2  A    between atoms: C_7  and  O_8
REMARK    3  A    between atoms: O_8  and  C_9
REMARK    4  A    between atoms: C_9  and  C_10
REMARK    5  A    between atoms: C_10  and  N_11
REMARK                            x       y       z     vdW  Elec       q    Type
REMARK                         _______ _______ _______ _____ _____    ______ ____
ROOT
ATOM      1  C   UNL     1       2.225   8.649  18.151  0.00  0.00    +0.000 C 
ENDROOT
BRANCH   1   2
ATOM      2  N   UNL     1       1.397   8.895  19.331  0.00  0.00    +0.000 N 
ATOM      3  N   UNL     1       1.661   8.105  20.414  0.00  0.00    +0.000 NA
ATOM      4  N   UNL     1       1.113   8.302  21.520  0.00  0.00    +0.000 NA
ATOM      5  C   UNL     1       0.258   9.396  21.693  0.00  0.00    +0.000 A 
ATOM      6  C   UNL     1      -0.281   9.644  22.961  0.00  0.00    +0.000 A 
ATOM      7  C   UNL     1      -1.123  10.739  23.184  0.00  0.00    +0.000 A 
ATOM      8  C   UNL     1      -1.443  11.596  22.131  0.00  0.00    +0.000 A 
ATOM      9  C   UNL     1      -0.917  11.358  20.862  0.00  0.00    +0.000 A 
ATOM     10  C   UNL     1      -0.068  10.262  20.662  0.00  0.00    +0.000 A 
ATOM     11  C   UNL     1       0.561   9.997  19.370  0.00  0.00    +0.000 A 
ATOM     12  O   UNL     1       0.361  10.750  18.421  0.00  0.00    +0.000 OA
ENDBRANCH   1   2
BRANCH   1  13
ATOM     13  C   UNL     1       2.971   7.320  18.285  0.00  0.00    +0.000 C 
BRANCH  13  14
ATOM     14  O   UNL     1       2.251   6.251  17.662  0.00  0.00    +0.000 OA
BRANCH  14  19
ATOM     15  C   UNL     1       2.316   3.268  19.892  0.00  0.00    +0.000 A 
ATOM     16  C   UNL     1       3.033   2.392  19.076  0.00  0.00    +0.000 A 
ATOM     17  C   UNL     1       3.469   2.817  17.822  0.00  0.00    +0.000 A 
ATOM     18  C   UNL     1       3.187   4.117  17.384  0.00  0.00    +0.000 A 
ATOM     19  C   UNL     1       2.470   5.003  18.193  0.00  0.00    +0.000 A 
ATOM     20  C   UNL     1       2.037   4.569  19.450  0.00  0.00    +0.000 A 
BRANCH  15  22
ATOM     21  N   UNL     1       1.500   2.497  22.230  0.00  0.00    +0.000 NA
ATOM     22  C   UNL     1       1.860   2.847  21.184  0.00  0.00    +0.000 C 
ENDBRANCH  15  22
ENDBRANCH  14  19
ENDBRANCH  13  14
ENDBRANCH   1  13
TORSDOF 5
ENDMDL
MODEL 8
REMARK VINA RESULT:      -7.1      5.120      8.476
REMARK  Name = 
REMARK  5 active torsions:
REMARK  status: ('A' for Active; 'I' for Inactive)
REMARK    1  A    between atoms: C_2  and  C_3
REMARK    2  A    between atoms: C_7  and  O_8
REMARK    3  A    between atoms: O_8  and  C_9
REMARK    4  A    between atoms: C_9  and  C_10
REMARK    5  A    between atoms: C_10  and  N_11
REMARK                            x       y       z     vdW  Elec       q    Type
REMARK                         _______ _______ _______ _____ _____    ______ ____
ROOT
ATOM      1  C   UNL     1       7.540   7.318  17.190  0.00  0.00    +0.000 C 
ENDROOT
BRANCH   1   2
ATOM      2  N   UNL     1       6.563   6.410  17.788  0.00  0.00    +0.000 N 
ATOM      3  N   UNL     1       6.947   5.815  18.957  0.00  0.00    +0.000 NA
ATOM      4  N   UNL     1       6.156   5.121  19.632  0.00  0.00    +0.000 NA
ATOM      5  C   UNL     1       4.820   4.996  19.235  0.00  0.00    +0.000 A 
ATOM      6  C   UNL     1       3.932   4.280  20.048  0.00  0.00    +0.000 A 
ATOM      7  C   UNL     1       2.584   4.148  19.700  0.00  0.00    +0.000 A 
ATOM      8  C   UNL     1       2.109   4.726  18.522  0.00  0.00    +0.000 A 
ATOM      9  C   UNL     1       2.983   5.437  17.700  0.00  0.00    +0.000 A 
ATOM     10  C   UNL     1       4.327   5.566  18.072  0.00  0.00    +0.000 A 
ATOM     11  C   UNL     1       5.276   6.349  17.283  0.00  0.00    +0.000 A 
ATOM     12  O   UNL     1       4.903   6.927  16.267  0.00  0.00    +0.000 OA
ENDBRANCH   1   2
BRANCH   1  13
ATOM     13  C   UNL     1       8.146   8.234  18.255  0.00  0.00    +0.000 C 
BRANCH  13  14
ATOM     14  O   UNL     1       8.105   9.606  17.850  0.00  0.00    +0.000 OA
BRANCH  14  19
ATOM     15  C   UNL     1      10.820  12.096  18.404  0.00  0.00    +0.000 A 
ATOM     16  C   UNL     1      10.943  11.990  19.790  0.00  0.00    +0.000 A 
ATOM     17  C   UNL     1      10.128  11.102  20.490  0.00  0.00    +0.000 A 
ATOM     18  C   UNL     1       9.190  10.320  19.805  0.00  0.00    +0.000 A 
ATOM     19  C   UNL     1       9.057  10.418  18.417  0.00  0.00    +0.000 A 
ATOM     20  C   UNL     1       9.880  11.311  17.722  0.00  0.00    +0.000 A 
BRANCH  15  22
ATOM     21  N   UNL     1      12.321  13.748  17.083  0.00  0.00    +0.000 NA
ATOM     22  C   UNL     1      11.650  13.004  17.668  0.00  0.00    +0.000 C 
ENDBRANCH  15  22
ENDBRANCH  14  19
ENDBRANCH  13  14
ENDBRANCH   1  13
TORSDOF 5
ENDMDL
MODEL 9
REMARK VINA RESULT:      -7.1      2.170      7.019
REMARK  Name = 
REMARK  5 active torsions:
REMARK  status: ('A' for Active; 'I' for Inactive)
REMARK    1  A    between atoms: C_2  and  C_3
REMARK    2  A    between atoms: C_7  and  O_8
REMARK    3  A    between atoms: O_8  and  C_9
REMARK    4  A    between atoms: C_9  and  C_10
REMARK    5  A    between atoms: C_10  and  N_11
REMARK                            x       y       z     vdW  Elec       q    Type
REMARK                         _______ _______ _______ _____ _____    ______ ____
ROOT
ATOM      1  C   UNL     1       5.057   6.186  16.577  0.00  0.00    +0.000 C 
ENDROOT
BRANCH   1   2
ATOM      2  N   UNL     1       4.230   5.584  17.622  0.00  0.00    +0.000 N 
ATOM      3  N   UNL     1       4.015   6.360  18.726  0.00  0.00    +0.000 NA
ATOM      4  N   UNL     1       3.222   6.013  19.628  0.00  0.00    +0.000 NA
ATOM      5  C   UNL     1       2.474   4.839  19.490  0.00  0.00    +0.000 A 
ATOM      6  C   UNL     1       1.534   4.511  20.475  0.00  0.00    +0.000 A 
ATOM      7  C   UNL     1       0.750   3.358  20.366  0.00  0.00    +0.000 A 
ATOM      8  C   UNL     1       0.906   2.511  19.268  0.00  0.00    +0.000 A 
ATOM      9  C   UNL     1       1.842   2.822  18.283  0.00  0.00    +0.000 A 
ATOM     10  C   UNL     1       2.611   3.987  18.405  0.00  0.00    +0.000 A 
ATOM     11  C   UNL     1       3.563   4.397  17.376  0.00  0.00    +0.000 A 
ATOM     12  O   UNL     1       3.703   3.721  16.361  0.00  0.00    +0.000 OA
ENDBRANCH   1   2
BRANCH   1  13
ATOM     13  C   UNL     1       6.537   5.879  16.819  0.00  0.00    +0.000 C 
BRANCH  13  14
ATOM     14  O   UNL     1       6.908   4.617  16.256  0.00  0.00    +0.000 OA
BRANCH  14  19
ATOM     15  C   UNL     1       6.193   3.857  12.680  0.00  0.00    +0.000 A 
ATOM     16  C   UNL     1       7.193   4.624  12.082  0.00  0.00    +0.000 A 
ATOM     17  C   UNL     1       8.067   5.363  12.880  0.00  0.00    +0.000 A 
ATOM     18  C   UNL     1       7.939   5.334  14.274  0.00  0.00    +0.000 A 
ATOM     19  C   UNL     1       6.941   4.569  14.883  0.00  0.00    +0.000 A 
ATOM     20  C   UNL     1       6.069   3.830  14.076  0.00  0.00    +0.000 A 
BRANCH  15  22
ATOM     21  N   UNL     1       4.554   2.463  11.232  0.00  0.00    +0.000 NA
ATOM     22  C   UNL     1       5.286   3.092  11.876  0.00  0.00    +0.000 C 
ENDBRANCH  15  22
ENDBRANCH  14  19
ENDBRANCH  13  14
ENDBRANCH   1  13
TORSDOF 5
ENDMDL
