MODEL 1
REMARK VINA RESULT:      -7.5      0.000      0.000
REMARK  Name = 
REMARK  7 active torsions:
REMARK  status: ('A' for Active; 'I' for Inactive)
REMARK    1  A    between atoms: C_1  and  C_2
REMARK    2  A    between atoms: C_2  and  C_3
REMARK    3  A    between atoms: C_2  and  N_4
REMARK    4  A    between atoms: C_5  and  C_6
REMARK    5  A    between atoms: C_6  and  N_7
REMARK    6  A    between atoms: N_7  and  C_8
REMARK    7  A    between atoms: N_7  and  C_9
REMARK                            x       y       z     vdW  Elec       q    Type
REMARK                         _______ _______ _______ _____ _____    ______ ____
ROOT
ATOM      1  N   UNL     1       2.772   4.506  18.815  0.00  0.00    +0.000 N 
ATOM      2  C   UNL     1       3.468   4.909  17.685  0.00  0.00    +0.000 A 
ATOM      3  N   UNL     1       3.325   6.209  17.492  0.00  0.00    +0.000 NA
ATOM      4  C   UNL     1       2.616   6.680  18.558  0.00  0.00    +0.000 A 
ATOM      5  C   UNL     1       2.207   7.991  18.837  0.00  0.00    +0.000 A 
ATOM      6  C   UNL     1       1.578   8.255  20.057  0.00  0.00    +0.000 A 
ATOM      7  C   UNL     1       1.356   7.230  20.975  0.00  0.00    +0.000 A 
ATOM      8  C   UNL     1       1.715   5.906  20.689  0.00  0.00    +0.000 A 
ATOM      9  C   UNL     1       2.334   5.657  19.457  0.00  0.00    +0.000 A 
ENDROOT
BRANCH   1  11
ATOM     10  C   UNL     1       3.174   2.719  20.518  0.00  0.00    +0.000 C 
ATOM     11  C   UNL     1       2.426   3.157  19.258  0.00  0.00    +0.000 C 
ATOM     12  C   UNL     1       0.927   2.877  19.345  0.00  0.00    +0.000 C 
ENDBRANCH   1  11
BRANCH   2  13
ATOM     13  C   UNL     1       4.361   4.047  16.828  0.00  0.00    +0.000 C 
BRANCH  13  14
ATOM     14  N   UNL     1       5.558   4.668  16.240  0.00  0.00    +0.000 N 
ATOM     15  C   UNL     1       6.258   3.855  15.241  0.00  0.00    +0.000 C 
BRANCH  14  16
ATOM     16  C   UNL     1       6.425   5.397  17.070  0.00  0.00    +0.000 A 
ATOM     17  C   UNL     1       7.041   4.866  18.212  0.00  0.00    +0.000 A 
ATOM     18  C   UNL     1       7.904   5.637  19.001  0.00  0.00    +0.000 A 
ATOM     19  C   UNL     1       8.160   6.963  18.667  0.00  0.00    +0.000 A 
ATOM     20  C   UNL     1       7.560   7.511  17.542  0.00  0.00    +0.000 A 
ATOM     21  C   UNL     1       6.710   6.735  16.749  0.00  0.00    +0.000 A 
ENDBRANCH  14  16
ENDBRANCH  13  14
ENDBRANCH   2  13
TORSDOF 4
ENDMDL
MODEL 2
REMARK VINA RESULT:      -7.4      0.340      1.349
REMARK  Name = 
REMARK  7 active torsions:
REMARK  status: ('A' for Active; 'I' for Inactive)
REMARK    1  A    between atoms: C_1  and  C_2
REMARK    2  A    between atoms: C_2  and  C_3
REMARK    3  A    between atoms: C_2  and  N_4
REMARK    4  A    between atoms: C_5  and  C_6
REMARK    5  A    between atoms: C_6  and  N_7
REMARK    6  A    between atoms: N_7  and  C_8
REMARK    7  A    between atoms: N_7  and  C_9
REMARK                            x       y       z     vdW  Elec       q    Type
REMARK                         _______ _______ _______ _____ _____    ______ ____
ROOT
ATOM      1  N   UNL     1       2.843   4.638  18.928  0.00  0.00    +0.000 N 
ATOM      2  C   UNL     1       3.488   4.973  17.746  0.00  0.00    +0.000 A 
ATOM      3  N   UNL     1       3.289   6.246  17.453  0.00  0.00    +0.000 NA
ATOM      4  C   UNL     1       2.594   6.777  18.500  0.00  0.00    +0.000 A 
ATOM      5  C   UNL     1       2.144   8.091  18.685  0.00  0.00    +0.000 A 
ATOM      6  C   UNL     1       1.541   8.431  19.900  0.00  0.00    +0.000 A 
ATOM      7  C   UNL     1       1.387   7.478  20.906  0.00  0.00    +0.000 A 
ATOM      8  C   UNL     1       1.788   6.149  20.716  0.00  0.00    +0.000 A 
ATOM      9  C   UNL     1       2.380   5.822  19.488  0.00  0.00    +0.000 A 
ENDROOT
BRANCH   1  11
ATOM     10  C   UNL     1       1.663   2.458  18.601  0.00  0.00    +0.000 C 
ATOM     11  C   UNL     1       2.563   3.319  19.490  0.00  0.00    +0.000 C 
ATOM     12  C   UNL     1       3.794   2.558  19.981  0.00  0.00    +0.000 C 
ENDBRANCH   1  11
BRANCH   2  13
ATOM     13  C   UNL     1       4.388   4.075  16.934  0.00  0.00    +0.000 C 
BRANCH  13  14
ATOM     14  N   UNL     1       5.566   4.682  16.293  0.00  0.00    +0.000 N 
ATOM     15  C   UNL     1       6.266   3.823  15.333  0.00  0.00    +0.000 C 
BRANCH  14  16
ATOM     16  C   UNL     1       6.431   5.472  17.067  0.00  0.00    +0.000 A 
ATOM     17  C   UNL     1       6.741   6.807  16.770  0.00  0.00    +0.000 A 
ATOM     18  C   UNL     1       7.606   7.553  17.581  0.00  0.00    +0.000 A 
ATOM     19  C   UNL     1       8.187   6.971  18.703  0.00  0.00    +0.000 A 
ATOM     20  C   UNL     1       7.897   5.650  19.016  0.00  0.00    +0.000 A 
ATOM     21  C   UNL     1       7.023   4.913  18.211  0.00  0.00    +0.000 A 
ENDBRANCH  14  16
ENDBRANCH  13  14
ENDBRANCH   2  13
TORSDOF 4
ENDMDL
MODEL 3
REMARK VINA RESULT:      -7.3      1.557      3.979
REMARK  Name = 
REMARK  7 active torsions:
REMARK  status: ('A' for Active; 'I' for Inactive)
REMARK    1  A    between atoms: C_1  and  C_2
REMARK    2  A    between atoms: C_2  and  C_3
REMARK    3  A    between atoms: C_2  and  N_4
REMARK    4  A    between atoms: C_5  and  C_6
REMARK    5  A    between atoms: C_6  and  N_7
REMARK    6  A    between atoms: N_7  and  C_8
REMARK    7  A    between atoms: N_7  and  C_9
REMARK                            x       y       z     vdW  Elec       q    Type
REMARK                         _______ _______ _______ _____ _____    ______ ____
ROOT
ATOM      1  N   UNL     1       3.855   5.404  19.083  0.00  0.00    +0.000 N 
ATOM      2  C   UNL     1       5.151   4.951  19.285  0.00  0.00    +0.000 A 
ATOM      3  N   UNL     1       5.180   3.630  19.316  0.00  0.00    +0.000 NA
ATOM      4  C   UNL     1       3.914   3.211  19.031  0.00  0.00    +0.000 A 
ATOM      5  C   UNL     1       3.418   1.903  18.932  0.00  0.00    +0.000 A 
ATOM      6  C   UNL     1       2.096   1.714  18.518  0.00  0.00    +0.000 A 
ATOM      7  C   UNL     1       1.286   2.808  18.215  0.00  0.00    +0.000 A 
ATOM      8  C   UNL     1       1.753   4.121  18.357  0.00  0.00    +0.000 A 
ATOM      9  C   UNL     1       3.077   4.293  18.785  0.00  0.00    +0.000 A 
ENDROOT
BRANCH   1  11
ATOM     10  C   UNL     1       2.984   7.436  17.915  0.00  0.00    +0.000 C 
ATOM     11  C   UNL     1       3.309   6.750  19.243  0.00  0.00    +0.000 C 
ATOM     12  C   UNL     1       2.164   6.861  20.249  0.00  0.00    +0.000 C 
ENDBRANCH   1  11
BRANCH   2  13
ATOM     13  C   UNL     1       6.395   5.801  19.356  0.00  0.00    +0.000 C 
BRANCH  13  14
ATOM     14  N   UNL     1       7.164   5.999  18.117  0.00  0.00    +0.000 N 
ATOM     15  C   UNL     1       7.793   7.315  17.976  0.00  0.00    +0.000 C 
BRANCH  14  16
ATOM     16  C   UNL     1       6.654   5.494  16.911  0.00  0.00    +0.000 A 
ATOM     17  C   UNL     1       7.018   4.253  16.369  0.00  0.00    +0.000 A 
ATOM     18  C   UNL     1       6.472   3.794  15.163  0.00  0.00    +0.000 A 
ATOM     19  C   UNL     1       5.554   4.576  14.470  0.00  0.00    +0.000 A 
ATOM     20  C   UNL     1       5.179   5.809  14.985  0.00  0.00    +0.000 A 
ATOM     21  C   UNL     1       5.717   6.257  16.195  0.00  0.00    +0.000 A 
ENDBRANCH  14  16
ENDBRANCH  13  14
ENDBRANCH   2  13
TORSDOF 4
ENDMDL
MODEL 4
REMARK VINA RESULT:      -7.3      1.542      4.098
REMARK  Name = 
REMARK  7 active torsions:
REMARK  status: ('A' for Active; 'I' for Inactive)
REMARK    1  A    between atoms: C_1  and  C_2
REMARK    2  A    between atoms: C_2  and  C_3
REMARK    3  A    between atoms: C_2  and  N_4
REMARK    4  A    between atoms: C_5  and  C_6
REMARK    5  A    between atoms: C_6  and  N_7
REMARK    6  A    between atoms: N_7  and  C_8
REMARK    7  A    between atoms: N_7  and  C_9
REMARK                            x       y       z     vdW  Elec       q    Type
REMARK                         _______ _______ _______ _____ _____    ______ ____
ROOT
ATOM      1  N   UNL     1       3.940   5.452  19.005  0.00  0.00    +0.000 N 
ATOM      2  C   UNL     1       5.219   4.952  19.207  0.00  0.00    +0.000 A 
ATOM      3  N   UNL     1       5.194   3.632  19.277  0.00  0.00    +0.000 NA
ATOM      4  C   UNL     1       3.908   3.257  19.018  0.00  0.00    +0.000 A 
ATOM      5  C   UNL     1       3.358   1.969  18.963  0.00  0.00    +0.000 A 
ATOM      6  C   UNL     1       2.025   1.823  18.568  0.00  0.00    +0.000 A 
ATOM      7  C   UNL     1       1.257   2.939  18.241  0.00  0.00    +0.000 A 
ATOM      8  C   UNL     1       1.779   4.236  18.339  0.00  0.00    +0.000 A 
ATOM      9  C   UNL     1       3.114   4.366  18.748  0.00  0.00    +0.000 A 
ENDROOT
BRANCH   1  11
ATOM     10  C   UNL     1       3.219   7.511  17.783  0.00  0.00    +0.000 C 
ATOM     11  C   UNL     1       3.452   6.823  19.129  0.00  0.00    +0.000 C 
ATOM     12  C   UNL     1       2.270   6.998  20.083  0.00  0.00    +0.000 C 
ENDBRANCH   1  11
BRANCH   2  13
ATOM     13  C   UNL     1       6.497   5.751  19.240  0.00  0.00    +0.000 C 
BRANCH  13  14
ATOM     14  N   UNL     1       7.121   6.103  17.954  0.00  0.00    +0.000 N 
ATOM     15  C   UNL     1       7.529   7.505  17.821  0.00  0.00    +0.000 C 
BRANCH  14  16
ATOM     16  C   UNL     1       6.594   5.562  16.771  0.00  0.00    +0.000 A 
ATOM     17  C   UNL     1       5.676   6.232  15.949  0.00  0.00    +0.000 A 
ATOM     18  C   UNL     1       5.187   5.647  14.774  0.00  0.00    +0.000 A 
ATOM     19  C   UNL     1       5.603   4.373  14.401  0.00  0.00    +0.000 A 
ATOM     20  C   UNL     1       6.510   3.690  15.200  0.00  0.00    +0.000 A 
ATOM     21  C   UNL     1       7.005   4.282  16.365  0.00  0.00    +0.000 A 
ENDBRANCH  14  16
ENDBRANCH  13  14
ENDBRANCH   2  13
TORSDOF 4
ENDMDL
MODEL 5
REMARK VINA RESULT:      -7.2      1.727      6.601
REMARK  Name = 
REMARK  7 active torsions:
REMARK  status: ('A' for Active; 'I' for Inactive)
REMARK    1  A    between atoms: C_1  and  C_2
REMARK    2  A    between atoms: C_2  and  C_3
REMARK    3  A    between atoms: C_2  and  N_4
REMARK    4  A    between atoms: C_5  and  C_6
REMARK    5  A    between atoms: C_6  and  N_7
REMARK    6  A    between atoms: N_7  and  C_8
REMARK    7  A    between atoms: N_7  and  C_9
REMARK                            x       y       z     vdW  Elec       q    Type
REMARK                         _______ _______ _______ _____ _____    ______ ____
ROOT
ATOM      1  N   UNL     1       6.479   5.091  16.160  0.00  0.00    +0.000 N 
ATOM      2  C   UNL     1       5.405   4.262  16.451  0.00  0.00    +0.000 A 
ATOM      3  N   UNL     1       4.952   3.688  15.350  0.00  0.00    +0.000 NA
ATOM      4  C   UNL     1       5.796   4.062  14.346  0.00  0.00    +0.000 A 
ATOM      5  C   UNL     1       5.760   3.717  12.988  0.00  0.00    +0.000 A 
ATOM      6  C   UNL     1       6.805   4.137  12.159  0.00  0.00    +0.000 A 
ATOM      7  C   UNL     1       7.859   4.891  12.675  0.00  0.00    +0.000 A 
ATOM      8  C   UNL     1       7.882   5.284  14.020  0.00  0.00    +0.000 A 
ATOM      9  C   UNL     1       6.821   4.865  14.834  0.00  0.00    +0.000 A 
ENDROOT
BRANCH   1  11
ATOM     10  C   UNL     1       6.247   7.356  17.196  0.00  0.00    +0.000 C 
ATOM     11  C   UNL     1       7.113   6.112  16.993  0.00  0.00    +0.000 C 
ATOM     12  C   UNL     1       7.701   5.593  18.304  0.00  0.00    +0.000 C 
ENDBRANCH   1  11
BRANCH   2  13
ATOM     13  C   UNL     1       4.865   3.945  17.823  0.00  0.00    +0.000 C 
BRANCH  13  14
ATOM     14  N   UNL     1       3.467   4.303  18.111  0.00  0.00    +0.000 N 
ATOM     15  C   UNL     1       3.119   5.707  17.869  0.00  0.00    +0.000 C 
BRANCH  14  16
ATOM     16  C   UNL     1       2.845   3.764  19.248  0.00  0.00    +0.000 A 
ATOM     17  C   UNL     1       3.524   3.034  20.235  0.00  0.00    +0.000 A 
ATOM     18  C   UNL     1       2.856   2.524  21.355  0.00  0.00    +0.000 A 
ATOM     19  C   UNL     1       1.488   2.728  21.505  0.00  0.00    +0.000 A 
ATOM     20  C   UNL     1       0.794   3.445  20.541  0.00  0.00    +0.000 A 
ATOM     21  C   UNL     1       1.467   3.964  19.431  0.00  0.00    +0.000 A 
ENDBRANCH  14  16
ENDBRANCH  13  14
ENDBRANCH   2  13
TORSDOF 4
ENDMDL
MODEL 6
REMARK VINA RESULT:      -7.2      1.695      6.635
REMARK  Name = 
REMARK  7 active torsions:
REMARK  status: ('A' for Active; 'I' for Inactive)
REMARK    1  A    between atoms: C_1  and  C_2
REMARK    2  A    between atoms: C_2  and  C_3
REMARK    3  A    between atoms: C_2  and  N_4
REMARK    4  A    between atoms: C_5  and  C_6
REMARK    5  A    between atoms: C_6  and  N_7
REMARK    6  A    between atoms: N_7  and  C_8
REMARK    7  A    between atoms: N_7  and  C_9
REMARK                            x       y       z     vdW  Elec       q    Type
REMARK                         _______ _______ _______ _____ _____    ______ ____
ROOT
ATOM      1  N   UNL     1       6.458   5.137  16.181  0.00  0.00    +0.000 N 
ATOM      2  C   UNL     1       5.381   4.315  16.480  0.00  0.00    +0.000 A 
ATOM      3  N   UNL     1       4.933   3.723  15.387  0.00  0.00    +0.000 NA
ATOM      4  C   UNL     1       5.783   4.078  14.381  0.00  0.00    +0.000 A 
ATOM      5  C   UNL     1       5.754   3.709  13.029  0.00  0.00    +0.000 A 
ATOM      6  C   UNL     1       6.804   4.113  12.199  0.00  0.00    +0.000 A 
ATOM      7  C   UNL     1       7.856   4.874  12.706  0.00  0.00    +0.000 A 
ATOM      8  C   UNL     1       7.873   5.291  14.045  0.00  0.00    +0.000 A 
ATOM      9  C   UNL     1       6.807   4.887  14.861  0.00  0.00    +0.000 A 
ENDROOT
BRANCH   1  11
ATOM     10  C   UNL     1       6.214   7.409  17.196  0.00  0.00    +0.000 C 
ATOM     11  C   UNL     1       7.090   6.171  16.998  0.00  0.00    +0.000 C 
ATOM     12  C   UNL     1       7.693   5.670  18.310  0.00  0.00    +0.000 C 
ENDBRANCH   1  11
BRANCH   2  13
ATOM     13  C   UNL     1       4.833   4.023  17.855  0.00  0.00    +0.000 C 
BRANCH  13  14
ATOM     14  N   UNL     1       3.427   4.364  18.120  0.00  0.00    +0.000 N 
ATOM     15  C   UNL     1       3.063   5.761  17.862  0.00  0.00    +0.000 C 
BRANCH  14  16
ATOM     16  C   UNL     1       2.797   3.826  19.254  0.00  0.00    +0.000 A 
ATOM     17  C   UNL     1       1.445   4.029  19.564  0.00  0.00    +0.000 A 
ATOM     18  C   UNL     1       0.865   3.462  20.707  0.00  0.00    +0.000 A 
ATOM     19  C   UNL     1       1.633   2.685  21.568  0.00  0.00    +0.000 A 
ATOM     20  C   UNL     1       2.975   2.472  21.282  0.00  0.00    +0.000 A 
ATOM     21  C   UNL     1       3.547   3.029  20.135  0.00  0.00    +0.000 A 
ENDBRANCH  14  16
ENDBRANCH  13  14
ENDBRANCH   2  13
TORSDOF 4
ENDMDL
MODEL 7
REMARK VINA RESULT:      -7.1      1.073      1.945
REMARK  Name = 
REMARK  7 active torsions:
REMARK  status: ('A' for Active; 'I' for Inactive)
REMARK    1  A    between atoms: C_1  and  C_2
REMARK    2  A    between atoms: C_2  and  C_3
REMARK    3  A    between atoms: C_2  and  N_4
REMARK    4  A    between atoms: C_5  and  C_6
REMARK    5  A    between atoms: C_6  and  N_7
REMARK    6  A    between atoms: N_7  and  C_8
REMARK    7  A    between atoms: N_7  and  C_9
REMARK                            x       y       z     vdW  Elec       q    Type
REMARK                         _______ _______ _______ _____ _____    ______ ____
ROOT
ATOM      1  N   UNL     1       2.144   5.969  19.753  0.00  0.00    +0.000 N 
ATOM      2  C   UNL     1       2.812   5.948  18.537  0.00  0.00    +0.000 A 
ATOM      3  N   UNL     1       2.699   7.114  17.926  0.00  0.00    +0.000 NA
ATOM      4  C   UNL     1       2.039   7.938  18.790  0.00  0.00    +0.000 A 
ATOM      5  C   UNL     1       1.677   9.283  18.625  0.00  0.00    +0.000 A 
ATOM      6  C   UNL     1       1.096   9.960  19.701  0.00  0.00    +0.000 A 
ATOM      7  C   UNL     1       0.877   9.308  20.913  0.00  0.00    +0.000 A 
ATOM      8  C   UNL     1       1.189   7.951  21.077  0.00  0.00    +0.000 A 
ATOM      9  C   UNL     1       1.760   7.283  19.984  0.00  0.00    +0.000 A 
ENDROOT
BRANCH   1  11
ATOM     10  C   UNL     1       0.777   3.889  19.991  0.00  0.00    +0.000 C 
ATOM     11  C   UNL     1       1.775   4.858  20.627  0.00  0.00    +0.000 C 
ATOM     12  C   UNL     1       2.955   4.134  21.275  0.00  0.00    +0.000 C 
ENDBRANCH   1  11
BRANCH   2  13
ATOM     13  C   UNL     1       3.652   4.817  17.998  0.00  0.00    +0.000 C 
BRANCH  13  14
ATOM     14  N   UNL     1       4.746   5.154  17.073  0.00  0.00    +0.000 N 
ATOM     15  C   UNL     1       5.043   4.136  16.060  0.00  0.00    +0.000 C 
BRANCH  14  16
ATOM     16  C   UNL     1       5.891   5.790  17.575  0.00  0.00    +0.000 A 
ATOM     17  C   UNL     1       6.423   6.973  17.043  0.00  0.00    +0.000 A 
ATOM     18  C   UNL     1       7.567   7.570  17.588  0.00  0.00    +0.000 A 
ATOM     19  C   UNL     1       8.208   6.987  18.676  0.00  0.00    +0.000 A 
ATOM     20  C   UNL     1       7.702   5.814  19.220  0.00  0.00    +0.000 A 
ATOM     21  C   UNL     1       6.553   5.229  18.680  0.00  0.00    +0.000 A 
ENDBRANCH  14  16
ENDBRANCH  13  14
ENDBRANCH   2  13
TORSDOF 4
ENDMDL
MODEL 8
REMARK VINA RESULT:      -7.1      1.813      4.201
REMARK  Name = 
REMARK  7 active torsions:
REMARK  status: ('A' for Active; 'I' for Inactive)
REMARK    1  A    between atoms: C_1  and  C_2
REMARK    2  A    between atoms: C_2  and  C_3
REMARK    3  A    between atoms: C_2  and  N_4
REMARK    4  A    between atoms: C_5  and  C_6
REMARK    5  A    between atoms: C_6  and  N_7
REMARK    6  A    between atoms: N_7  and  C_8
REMARK    7  A    between atoms: N_7  and  C_9
REMARK                            x       y       z     vdW  Elec       q    Type
REMARK                         _______ _______ _______ _____ _____    ______ ____
ROOT
ATOM      1  N   UNL     1       3.638   5.197  18.362  0.00  0.00    +0.000 N 
ATOM      2  C   UNL     1       4.188   4.228  17.536  0.00  0.00    +0.000 A 
ATOM      3  N   UNL     1       4.203   3.055  18.144  0.00  0.00    +0.000 NA
ATOM      4  C   UNL     1       3.565   3.232  19.337  0.00  0.00    +0.000 A 
ATOM      5  C   UNL     1       3.305   2.296  20.347  0.00  0.00    +0.000 A 
ATOM      6  C   UNL     1       2.532   2.686  21.444  0.00  0.00    +0.000 A 
ATOM      7  C   UNL     1       2.033   3.985  21.532  0.00  0.00    +0.000 A 
ATOM      8  C   UNL     1       2.324   4.945  20.554  0.00  0.00    +0.000 A 
ATOM      9  C   UNL     1       3.111   4.540  19.466  0.00  0.00    +0.000 A 
ENDROOT
BRANCH   1  11
ATOM     10  C   UNL     1       4.802   7.163  17.346  0.00  0.00    +0.000 C 
ATOM     11  C   UNL     1       3.661   6.652  18.227  0.00  0.00    +0.000 C 
ATOM     12  C   UNL     1       2.318   7.283  17.862  0.00  0.00    +0.000 C 
ENDBRANCH   1  11
BRANCH   2  13
ATOM     13  C   UNL     1       4.624   4.416  16.104  0.00  0.00    +0.000 C 
BRANCH  13  14
ATOM     14  N   UNL     1       6.009   4.062  15.755  0.00  0.00    +0.000 N 
ATOM     15  C   UNL     1       7.027   4.508  16.711  0.00  0.00    +0.000 C 
BRANCH  14  16
ATOM     16  C   UNL     1       6.421   4.161  14.417  0.00  0.00    +0.000 A 
ATOM     17  C   UNL     1       5.895   3.377  13.380  0.00  0.00    +0.000 A 
ATOM     18  C   UNL     1       6.338   3.522  12.059  0.00  0.00    +0.000 A 
ATOM     19  C   UNL     1       7.327   4.451  11.751  0.00  0.00    +0.000 A 
ATOM     20  C   UNL     1       7.864   5.237  12.762  0.00  0.00    +0.000 A 
ATOM     21  C   UNL     1       7.410   5.098  14.076  0.00  0.00    +0.000 A 
ENDBRANCH  14  16
ENDBRANCH  13  14
ENDBRANCH   2  13
TORSDOF 4
ENDMDL
MODEL 9
REMARK VINA RESULT:      -7.0      1.673      4.241
REMARK  Name = 
REMARK  7 active torsions:
REMARK  status: ('A' for Active; 'I' for Inactive)
REMARK    1  A    between atoms: C_1  and  C_2
REMARK    2  A    between atoms: C_2  and  C_3
REMARK    3  A    between atoms: C_2  and  N_4
REMARK    4  A    between atoms: C_5  and  C_6
REMARK    5  A    between atoms: C_6  and  N_7
REMARK    6  A    between atoms: N_7  and  C_8
REMARK    7  A    between atoms: N_7  and  C_9
REMARK                            x       y       z     vdW  Elec       q    Type
REMARK                         _______ _______ _______ _____ _____    ______ ____
ROOT
ATOM      1  N   UNL     1       3.092   5.514  18.230  0.00  0.00    +0.000 N 
ATOM      2  C   UNL     1       4.041   5.021  17.347  0.00  0.00    +0.000 A 
ATOM      3  N   UNL     1       4.066   3.700  17.384  0.00  0.00    +0.000 NA
ATOM      4  C   UNL     1       3.058   3.319  18.220  0.00  0.00    +0.000 A 
ATOM      5  C   UNL     1       2.658   2.028  18.591  0.00  0.00    +0.000 A 
ATOM      6  C   UNL     1       1.517   1.879  19.385  0.00  0.00    +0.000 A 
ATOM      7  C   UNL     1       0.795   2.995  19.804  0.00  0.00    +0.000 A 
ATOM      8  C   UNL     1       1.211   4.294  19.481  0.00  0.00    +0.000 A 
ATOM      9  C   UNL     1       2.364   4.427  18.695  0.00  0.00    +0.000 A 
ENDROOT
BRANCH   1  11
ATOM     10  C   UNL     1       2.191   7.789  17.713  0.00  0.00    +0.000 C 
ATOM     11  C   UNL     1       2.900   6.878  18.717  0.00  0.00    +0.000 C 
ATOM     12  C   UNL     1       2.298   6.979  20.118  0.00  0.00    +0.000 C 
ENDBRANCH   1  11
BRANCH   2  13
ATOM     13  C   UNL     1       4.872   5.831  16.383  0.00  0.00    +0.000 C 
BRANCH  13  14
ATOM     14  N   UNL     1       6.221   5.340  16.059  0.00  0.00    +0.000 N 
ATOM     15  C   UNL     1       7.321   6.065  16.702  0.00  0.00    +0.000 C 
BRANCH  14  16
ATOM     16  C   UNL     1       6.506   4.951  14.741  0.00  0.00    +0.000 A 
ATOM     17  C   UNL     1       7.573   5.467  13.990  0.00  0.00    +0.000 A 
ATOM     18  C   UNL     1       7.816   5.039  12.678  0.00  0.00    +0.000 A 
ATOM     19  C   UNL     1       6.989   4.088  12.089  0.00  0.00    +0.000 A 
ATOM     20  C   UNL     1       5.926   3.564  12.812  0.00  0.00    +0.000 A 
ATOM     21  C   UNL     1       5.694   3.986  14.125  0.00  0.00    +0.000 A 
ENDBRANCH  14  16
ENDBRANCH  13  14
ENDBRANCH   2  13
TORSDOF 4
ENDMDL
