MODEL 1
REMARK VINA RESULT:      -6.0      0.000      0.000
REMARK  Name = 
REMARK  3 active torsions:
REMARK  status: ('A' for Active; 'I' for Inactive)
REMARK    1  A    between atoms: C_1  and  C_2
REMARK    2  A    between atoms: C_4  and  O_5
REMARK    3  A    between atoms: C_8  and  O_9
REMARK                            x       y       z     vdW  Elec       q    Type
REMARK                         _______ _______ _______ _____ _____    ______ ____
ROOT
ATOM      1  C   UNL     1       0.733   2.158  18.713  0.00  0.00    +0.000 C 
ATOM      2  C   UNL     1       2.099   2.104  19.392  0.00  0.00    +0.000 C 
ATOM      3  C   UNL     1       2.038   2.640  20.849  0.00  0.00    +0.000 C 
ATOM      4  C   UNL     1       1.763   4.146  21.056  0.00  0.00    +0.000 C 
ATOM      5  C   UNL     1       2.900   4.954  20.499  0.00  0.00    +0.000 C 
ATOM      6  C   UNL     1       2.986   5.521  19.283  0.00  0.00    +0.000 C 
ATOM      7  C   UNL     1       4.271   5.922  18.608  0.00  0.00    +0.000 C 
ATOM      8  C   UNL     1       4.350   5.394  17.164  0.00  0.00    +0.000 C 
ATOM      9  C   UNL     1       4.426   3.870  16.998  0.00  0.00    +0.000 C 
ATOM     10  C   UNL     1       3.156   3.154  17.398  0.00  0.00    +0.000 C 
ATOM     11  O   UNL     1       2.200   3.069  16.646  0.00  0.00    +0.000 OA
ATOM     12  O   UNL     1       3.223   2.710  18.683  0.00  0.00    +0.000 OA
ENDROOT
BRANCH   4  13
ATOM     13  O   UNL     1       0.485   4.502  20.560  0.00  0.00    +0.000 OA
ATOM     14  H   UNL     1       0.554   5.305  20.024  0.00  0.00    +0.000 HD
ENDBRANCH   4  13
BRANCH   7  15
ATOM     15  O   UNL     1       5.403   5.446  19.329  0.00  0.00    +0.000 OA
ATOM     16  H   UNL     1       5.901   6.220  19.644  0.00  0.00    +0.000 HD
ENDBRANCH   7  15
TORSDOF 2
ENDMDL
MODEL 2
REMARK VINA RESULT:      -5.9      1.703      2.069
REMARK  Name = 
REMARK  3 active torsions:
REMARK  status: ('A' for Active; 'I' for Inactive)
REMARK    1  A    between atoms: C_1  and  C_2
REMARK    2  A    between atoms: C_4  and  O_5
REMARK    3  A    between atoms: C_8  and  O_9
REMARK                            x       y       z     vdW  Elec       q    Type
REMARK                         _______ _______ _______ _____ _____    ______ ____
ROOT
ATOM      1  C   UNL     1       3.555   1.496  18.502  0.00  0.00    +0.000 C 
ATOM      2  C   UNL     1       3.740   2.403  19.716  0.00  0.00    +0.000 C 
ATOM      3  C   UNL     1       2.467   2.436  20.607  0.00  0.00    +0.000 C 
ATOM      4  C   UNL     1       1.200   3.111  20.035  0.00  0.00    +0.000 C 
ATOM      5  C   UNL     1       1.450   4.578  19.834  0.00  0.00    +0.000 C 
ATOM      6  C   UNL     1       1.834   5.198  18.704  0.00  0.00    +0.000 C 
ATOM      7  C   UNL     1       2.492   6.551  18.644  0.00  0.00    +0.000 C 
ATOM      8  C   UNL     1       3.759   6.534  17.769  0.00  0.00    +0.000 C 
ATOM      9  C   UNL     1       4.933   5.688  18.284  0.00  0.00    +0.000 C 
ATOM     10  C   UNL     1       4.660   4.201  18.262  0.00  0.00    +0.000 C 
ATOM     11  O   UNL     1       4.783   3.539  17.246  0.00  0.00    +0.000 OA
ATOM     12  O   UNL     1       4.214   3.763  19.471  0.00  0.00    +0.000 OA
ENDROOT
BRANCH   4  13
ATOM     13  O   UNL     1       0.735   2.426  18.886  0.00  0.00    +0.000 OA
ATOM     14  H   UNL     1       1.117   2.824  18.090  0.00  0.00    +0.000 HD
ENDBRANCH   4  13
BRANCH   7  15
ATOM     15  O   UNL     1       2.845   7.012  19.945  0.00  0.00    +0.000 OA
ATOM     16  H   UNL     1       3.020   7.966  19.883  0.00  0.00    +0.000 HD
ENDBRANCH   7  15
TORSDOF 2
ENDMDL
MODEL 3
REMARK VINA RESULT:      -5.9      1.934      2.743
REMARK  Name = 
REMARK  3 active torsions:
REMARK  status: ('A' for Active; 'I' for Inactive)
REMARK    1  A    between atoms: C_1  and  C_2
REMARK    2  A    between atoms: C_4  and  O_5
REMARK    3  A    between atoms: C_8  and  O_9
REMARK                            x       y       z     vdW  Elec       q    Type
REMARK                         _______ _______ _______ _____ _____    ______ ____
ROOT
ATOM      1  C   UNL     1       1.085   4.678  20.428  0.00  0.00    +0.000 C 
ATOM      2  C   UNL     1       1.359   4.021  19.078  0.00  0.00    +0.000 C 
ATOM      3  C   UNL     1       1.697   2.512  19.231  0.00  0.00    +0.000 C 
ATOM      4  C   UNL     1       3.027   2.133  19.920  0.00  0.00    +0.000 C 
ATOM      5  C   UNL     1       4.185   2.605  19.087  0.00  0.00    +0.000 C 
ATOM      6  C   UNL     1       4.878   3.750  19.218  0.00  0.00    +0.000 C 
ATOM      7  C   UNL     1       5.705   4.385  18.132  0.00  0.00    +0.000 C 
ATOM      8  C   UNL     1       5.379   5.881  17.964  0.00  0.00    +0.000 C 
ATOM      9  C   UNL     1       3.969   6.219  17.457  0.00  0.00    +0.000 C 
ATOM     10  C   UNL     1       2.877   5.892  18.450  0.00  0.00    +0.000 C 
ATOM     11  O   UNL     1       2.597   6.641  19.371  0.00  0.00    +0.000 OA
ATOM     12  O   UNL     1       2.338   4.666  18.205  0.00  0.00    +0.000 OA
ENDROOT
BRANCH   4  13
ATOM     13  O   UNL     1       3.046   2.576  21.265  0.00  0.00    +0.000 OA
ATOM     14  H   UNL     1       3.822   2.216  21.718  0.00  0.00    +0.000 HD
ENDBRANCH   4  13
BRANCH   7  15
ATOM     15  O   UNL     1       5.505   3.733  16.882  0.00  0.00    +0.000 OA
ATOM     16  H   UNL     1       4.872   3.008  17.024  0.00  0.00    +0.000 HD
ENDBRANCH   7  15
TORSDOF 2
ENDMDL
MODEL 4
REMARK VINA RESULT:      -5.8      2.293      5.325
REMARK  Name = 
REMARK  3 active torsions:
REMARK  status: ('A' for Active; 'I' for Inactive)
REMARK    1  A    between atoms: C_1  and  C_2
REMARK    2  A    between atoms: C_4  and  O_5
REMARK    3  A    between atoms: C_8  and  O_9
REMARK                            x       y       z     vdW  Elec       q    Type
REMARK                         _______ _______ _______ _____ _____    ______ ____
ROOT
ATOM      1  C   UNL     1       7.074   6.563  17.780  0.00  0.00    +0.000 C 
ATOM      2  C   UNL     1       7.294   5.058  17.650  0.00  0.00    +0.000 C 
ATOM      3  C   UNL     1       7.365   4.615  16.162  0.00  0.00    +0.000 C 
ATOM      4  C   UNL     1       6.077   4.710  15.315  0.00  0.00    +0.000 C 
ATOM      5  C   UNL     1       5.043   3.761  15.850  0.00  0.00    +0.000 C 
ATOM      6  C   UNL     1       4.047   4.032  16.712  0.00  0.00    +0.000 C 
ATOM      7  C   UNL     1       3.332   3.008  17.552  0.00  0.00    +0.000 C 
ATOM      8  C   UNL     1       3.257   3.430  19.031  0.00  0.00    +0.000 C 
ATOM      9  C   UNL     1       4.591   3.509  19.786  0.00  0.00    +0.000 C 
ATOM     10  C   UNL     1       5.489   4.629  19.310  0.00  0.00    +0.000 C 
ATOM     11  O   UNL     1       5.342   5.778  19.688  0.00  0.00    +0.000 OA
ATOM     12  O   UNL     1       6.388   4.183  18.390  0.00  0.00    +0.000 OA
ENDROOT
BRANCH   4  13
ATOM     13  O   UNL     1       5.644   6.053  15.200  0.00  0.00    +0.000 OA
ATOM     14  H   UNL     1       4.722   6.077  14.906  0.00  0.00    +0.000 HD
ENDBRANCH   4  13
BRANCH   7  15
ATOM     15  O   UNL     1       3.972   1.738  17.474  0.00  0.00    +0.000 OA
ATOM     16  H   UNL     1       4.382   1.666  16.595  0.00  0.00    +0.000 HD
ENDBRANCH   7  15
TORSDOF 2
ENDMDL
MODEL 5
REMARK VINA RESULT:      -5.8      0.868      3.797
REMARK  Name = 
REMARK  3 active torsions:
REMARK  status: ('A' for Active; 'I' for Inactive)
REMARK    1  A    between atoms: C_1  and  C_2
REMARK    2  A    between atoms: C_4  and  O_5
REMARK    3  A    between atoms: C_8  and  O_9
REMARK                            x       y       z     vdW  Elec       q    Type
REMARK                         _______ _______ _______ _____ _____    ______ ____
ROOT
ATOM      1  C   UNL     1       4.974   3.768  17.048  0.00  0.00    +0.000 C 
ATOM      2  C   UNL     1       3.668   4.558  17.086  0.00  0.00    +0.000 C 
ATOM      3  C   UNL     1       3.857   5.947  17.756  0.00  0.00    +0.000 C 
ATOM      4  C   UNL     1       4.168   5.987  19.269  0.00  0.00    +0.000 C 
ATOM      5  C   UNL     1       2.999   5.449  20.044  0.00  0.00    +0.000 C 
ATOM      6  C   UNL     1       2.820   4.195  20.495  0.00  0.00    +0.000 C 
ATOM      7  C   UNL     1       1.490   3.592  20.859  0.00  0.00    +0.000 C 
ATOM      8  C   UNL     1       1.285   2.216  20.199  0.00  0.00    +0.000 C 
ATOM      9  C   UNL     1       1.174   2.203  18.667  0.00  0.00    +0.000 C 
ATOM     10  C   UNL     1       2.464   2.565  17.966  0.00  0.00    +0.000 C 
ATOM     11  O   UNL     1       3.353   1.750  17.791  0.00  0.00    +0.000 OA
ATOM     12  O   UNL     1       2.497   3.888  17.646  0.00  0.00    +0.000 OA
ENDROOT
BRANCH   4  13
ATOM     13  O   UNL     1       5.405   5.356  19.549  0.00  0.00    +0.000 OA
ATOM     14  H   UNL     1       5.250   4.448  19.846  0.00  0.00    +0.000 HD
ENDBRANCH   4  13
BRANCH   7  15
ATOM     15  O   UNL     1       0.415   4.444  20.476  0.00  0.00    +0.000 OA
ATOM     16  H   UNL     1       0.690   4.928  19.678  0.00  0.00    +0.000 HD
ENDBRANCH   7  15
TORSDOF 2
ENDMDL
MODEL 6
REMARK VINA RESULT:      -5.7      1.837      3.188
REMARK  Name = 
REMARK  3 active torsions:
REMARK  status: ('A' for Active; 'I' for Inactive)
REMARK    1  A    between atoms: C_1  and  C_2
REMARK    2  A    between atoms: C_4  and  O_5
REMARK    3  A    between atoms: C_8  and  O_9
REMARK                            x       y       z     vdW  Elec       q    Type
REMARK                         _______ _______ _______ _____ _____    ______ ____
ROOT
ATOM      1  C   UNL     1       1.509   4.230  20.168  0.00  0.00    +0.000 C 
ATOM      2  C   UNL     1       1.469   4.174  18.643  0.00  0.00    +0.000 C 
ATOM      3  C   UNL     1       1.810   2.754  18.112  0.00  0.00    +0.000 C 
ATOM      4  C   UNL     1       3.254   2.237  18.301  0.00  0.00    +0.000 C 
ATOM      5  C   UNL     1       4.206   3.080  17.502  0.00  0.00    +0.000 C 
ATOM      6  C   UNL     1       4.928   4.132  17.929  0.00  0.00    +0.000 C 
ATOM      7  C   UNL     1       5.504   5.199  17.039  0.00  0.00    +0.000 C 
ATOM      8  C   UNL     1       5.172   6.614  17.549  0.00  0.00    +0.000 C 
ATOM      9  C   UNL     1       3.690   7.017  17.523  0.00  0.00    +0.000 C 
ATOM     10  C   UNL     1       2.839   6.249  18.509  0.00  0.00    +0.000 C 
ATOM     11  O   UNL     1       2.780   6.556  19.687  0.00  0.00    +0.000 OA
ATOM     12  O   UNL     1       2.241   5.179  17.916  0.00  0.00    +0.000 OA
ENDROOT
BRANCH   4  13
ATOM     13  O   UNL     1       3.575   2.120  19.675  0.00  0.00    +0.000 OA
ATOM     14  H   UNL     1       2.911   1.577  20.122  0.00  0.00    +0.000 HD
ENDBRANCH   4  13
BRANCH   7  15
ATOM     15  O   UNL     1       5.024   5.074  15.703  0.00  0.00    +0.000 OA
ATOM     16  H   UNL     1       5.745   5.334  15.104  0.00  0.00    +0.000 HD
ENDBRANCH   7  15
TORSDOF 2
ENDMDL
MODEL 7
REMARK VINA RESULT:      -5.7      1.590      3.632
REMARK  Name = 
REMARK  3 active torsions:
REMARK  status: ('A' for Active; 'I' for Inactive)
REMARK    1  A    between atoms: C_1  and  C_2
REMARK    2  A    between atoms: C_4  and  O_5
REMARK    3  A    between atoms: C_8  and  O_9
REMARK                            x       y       z     vdW  Elec       q    Type
REMARK                         _______ _______ _______ _____ _____    ______ ____
ROOT
ATOM      1  C   UNL     1       3.821   1.478  18.609  0.00  0.00    +0.000 C 
ATOM      2  C   UNL     1       3.139   2.517  17.723  0.00  0.00    +0.000 C 
ATOM      3  C   UNL     1       4.171   3.332  16.896  0.00  0.00    +0.000 C 
ATOM      4  C   UNL     1       5.112   4.294  17.656  0.00  0.00    +0.000 C 
ATOM      5  C   UNL     1       4.312   5.397  18.287  0.00  0.00    +0.000 C 
ATOM      6  C   UNL     1       3.847   5.456  19.548  0.00  0.00    +0.000 C 
ATOM      7  C   UNL     1       2.707   6.325  20.006  0.00  0.00    +0.000 C 
ATOM      8  C   UNL     1       1.672   5.531  20.824  0.00  0.00    +0.000 C 
ATOM      9  C   UNL     1       0.892   4.446  20.067  0.00  0.00    +0.000 C 
ATOM     10  C   UNL     1       1.747   3.273  19.643  0.00  0.00    +0.000 C 
ATOM     11  O   UNL     1       2.028   2.369  20.411  0.00  0.00    +0.000 OA
ATOM     12  O   UNL     1       2.185   3.419  18.362  0.00  0.00    +0.000 OA
ENDROOT
BRANCH   4  13
ATOM     13  O   UNL     1       5.949   3.583  18.550  0.00  0.00    +0.000 OA
ATOM     14  H   UNL     1       6.174   4.145  19.305  0.00  0.00    +0.000 HD
ENDBRANCH   4  13
BRANCH   7  15
ATOM     15  O   UNL     1       2.044   6.933  18.901  0.00  0.00    +0.000 OA
ATOM     16  H   UNL     1       1.405   6.289  18.550  0.00  0.00    +0.000 HD
ENDBRANCH   7  15
TORSDOF 2
ENDMDL
MODEL 8
REMARK VINA RESULT:      -5.7      1.717      3.995
REMARK  Name = 
REMARK  3 active torsions:
REMARK  status: ('A' for Active; 'I' for Inactive)
REMARK    1  A    between atoms: C_1  and  C_2
REMARK    2  A    between atoms: C_4  and  O_5
REMARK    3  A    between atoms: C_8  and  O_9
REMARK                            x       y       z     vdW  Elec       q    Type
REMARK                         _______ _______ _______ _____ _____    ______ ____
ROOT
ATOM      1  C   UNL     1       5.778   5.277  19.246  0.00  0.00    +0.000 C 
ATOM      2  C   UNL     1       4.968   4.974  17.988  0.00  0.00    +0.000 C 
ATOM      3  C   UNL     1       4.062   6.171  17.587  0.00  0.00    +0.000 C 
ATOM      4  C   UNL     1       2.879   6.527  18.514  0.00  0.00    +0.000 C 
ATOM      5  C   UNL     1       1.883   5.403  18.526  0.00  0.00    +0.000 C 
ATOM      6  C   UNL     1       1.789   4.398  19.415  0.00  0.00    +0.000 C 
ATOM      7  C   UNL     1       1.100   3.085  19.161  0.00  0.00    +0.000 C 
ATOM      8  C   UNL     1       1.986   1.887  19.549  0.00  0.00    +0.000 C 
ATOM      9  C   UNL     1       3.261   1.684  18.717  0.00  0.00    +0.000 C 
ATOM     10  C   UNL     1       4.295   2.768  18.925  0.00  0.00    +0.000 C 
ATOM     11  O   UNL     1       5.057   2.759  19.877  0.00  0.00    +0.000 OA
ATOM     12  O   UNL     1       4.195   3.734  17.971  0.00  0.00    +0.000 OA
ENDROOT
BRANCH   4  13
ATOM     13  O   UNL     1       3.338   6.924  19.794  0.00  0.00    +0.000 OA
ATOM     14  H   UNL     1       3.489   7.880  19.806  0.00  0.00    +0.000 HD
ENDBRANCH   4  13
BRANCH   7  15
ATOM     15  O   UNL     1       0.730   2.951  17.792  0.00  0.00    +0.000 OA
ATOM     16  H   UNL     1       1.542   2.794  17.280  0.00  0.00    +0.000 HD
ENDBRANCH   7  15
TORSDOF 2
ENDMDL
MODEL 9
REMARK VINA RESULT:      -5.6      1.569      4.486
REMARK  Name = 
REMARK  3 active torsions:
REMARK  status: ('A' for Active; 'I' for Inactive)
REMARK    1  A    between atoms: C_1  and  C_2
REMARK    2  A    between atoms: C_4  and  O_5
REMARK    3  A    between atoms: C_8  and  O_9
REMARK                            x       y       z     vdW  Elec       q    Type
REMARK                         _______ _______ _______ _____ _____    ______ ____
ROOT
ATOM      1  C   UNL     1       4.565   6.667  17.617  0.00  0.00    +0.000 C 
ATOM      2  C   UNL     1       4.978   5.651  18.679  0.00  0.00    +0.000 C 
ATOM      3  C   UNL     1       5.622   4.387  18.045  0.00  0.00    +0.000 C 
ATOM      4  C   UNL     1       4.717   3.456  17.208  0.00  0.00    +0.000 C 
ATOM      5  C   UNL     1       3.670   2.835  18.088  0.00  0.00    +0.000 C 
ATOM      6  C   UNL     1       2.409   3.260  18.288  0.00  0.00    +0.000 C 
ATOM      7  C   UNL     1       1.557   2.899  19.475  0.00  0.00    +0.000 C 
ATOM      8  C   UNL     1       0.915   4.142  20.119  0.00  0.00    +0.000 C 
ATOM      9  C   UNL     1       1.877   5.144  20.775  0.00  0.00    +0.000 C 
ATOM     10  C   UNL     1       2.759   5.871  19.784  0.00  0.00    +0.000 C 
ATOM     11  O   UNL     1       2.363   6.840  19.159  0.00  0.00    +0.000 OA
ATOM     12  O   UNL     1       3.969   5.260  19.660  0.00  0.00    +0.000 OA
ENDROOT
BRANCH   4  13
ATOM     13  O   UNL     1       4.211   4.129  16.069  0.00  0.00    +0.000 OA
ATOM     14  H   UNL     1       4.297   3.564  15.288  0.00  0.00    +0.000 HD
ENDBRANCH   4  13
BRANCH   7  15
ATOM     15  O   UNL     1       2.316   2.215  20.467  0.00  0.00    +0.000 OA
ATOM     16  H   UNL     1       2.055   2.568  21.335  0.00  0.00    +0.000 HD
ENDBRANCH   7  15
TORSDOF 2
ENDMDL
