MODEL 1
REMARK VINA RESULT:      -5.7      0.000      0.000
REMARK  Name = 
REMARK  0 active torsions:
REMARK  status: ('A' for Active; 'I' for Inactive)
REMARK                            x       y       z     vdW  Elec       q    Type
REMARK                         _______ _______ _______ _____ _____    ______ ____
ROOT
ATOM      1  O   UNL     1       8.134   4.222  17.109  0.00  0.00    +0.000 OA
ATOM      2  C   UNL     1       7.131   4.916  17.210  0.00  0.00    +0.000 A 
ATOM      3  N   UNL     1       6.968   6.123  16.539  0.00  0.00    +0.000 N 
ATOM      4  N   UNL     1       5.851   6.965  16.609  0.00  0.00    +0.000 NA
ATOM      5  C   UNL     1       4.838   6.625  17.368  0.00  0.00    +0.000 A 
ATOM      6 CL   UNL     1       3.493   7.685  17.426  0.00  0.00    +0.000 Cl
ATOM      7  C   UNL     1       4.896   5.386  18.116  0.00  0.00    +0.000 A 
ATOM      8  N   UNL     1       3.971   4.825  18.964  0.00  0.00    +0.000 NA
ATOM      9  C   UNL     1       4.525   3.699  19.371  0.00  0.00    +0.000 A 
ATOM     10  N   UNL     1       5.768   3.513  18.822  0.00  0.00    +0.000 N 
ATOM     11  C   UNL     1       6.007   4.588  18.021  0.00  0.00    +0.000 A 
ATOM     12  H   UNL     1       7.724   6.431  15.936  0.00  0.00    +0.000 HD
ATOM     13  H   UNL     1       6.392   2.730  18.978  0.00  0.00    +0.000 HD
ENDROOT
TORSDOF 0
ENDMDL
MODEL 2
REMARK VINA RESULT:      -5.7      3.404      4.168
REMARK  Name = 
REMARK  0 active torsions:
REMARK  status: ('A' for Active; 'I' for Inactive)
REMARK                            x       y       z     vdW  Elec       q    Type
REMARK                         _______ _______ _______ _____ _____    ______ ____
ROOT
ATOM      1  O   UNL     1       5.307   1.551  20.880  0.00  0.00    +0.000 OA
ATOM      2  C   UNL     1       4.559   2.289  20.252  0.00  0.00    +0.000 A 
ATOM      3  N   UNL     1       4.903   2.871  19.038  0.00  0.00    +0.000 N 
ATOM      4  N   UNL     1       4.098   3.723  18.269  0.00  0.00    +0.000 NA
ATOM      5  C   UNL     1       2.899   4.029  18.697  0.00  0.00    +0.000 A 
ATOM      6 CL   UNL     1       1.949   5.074  17.726  0.00  0.00    +0.000 Cl
ATOM      7  C   UNL     1       2.430   3.480  19.953  0.00  0.00    +0.000 A 
ATOM      8  N   UNL     1       1.228   3.652  20.596  0.00  0.00    +0.000 NA
ATOM      9  C   UNL     1       1.325   2.929  21.695  0.00  0.00    +0.000 A 
ATOM     10  N   UNL     1       2.541   2.300  21.786  0.00  0.00    +0.000 N 
ATOM     11  C   UNL     1       3.248   2.650  20.676  0.00  0.00    +0.000 A 
ATOM     12  H   UNL     1       5.823   2.664  18.662  0.00  0.00    +0.000 HD
ATOM     13  H   UNL     1       2.857   1.691  22.533  0.00  0.00    +0.000 HD
ENDROOT
TORSDOF 0
ENDMDL
MODEL 3
REMARK VINA RESULT:      -5.7      2.509      2.757
REMARK  Name = 
REMARK  0 active torsions:
REMARK  status: ('A' for Active; 'I' for Inactive)
REMARK                            x       y       z     vdW  Elec       q    Type
REMARK                         _______ _______ _______ _____ _____    ______ ____
ROOT
ATOM      1  O   UNL     1       7.410   5.473  20.116  0.00  0.00    +0.000 OA
ATOM      2  C   UNL     1       7.091   5.142  18.982  0.00  0.00    +0.000 A 
ATOM      3  N   UNL     1       8.008   4.740  18.018  0.00  0.00    +0.000 N 
ATOM      4  N   UNL     1       7.713   4.349  16.705  0.00  0.00    +0.000 NA
ATOM      5  C   UNL     1       6.467   4.348  16.302  0.00  0.00    +0.000 A 
ATOM      6 CL   UNL     1       6.151   3.864  14.689  0.00  0.00    +0.000 Cl
ATOM      7  C   UNL     1       5.422   4.748  17.222  0.00  0.00    +0.000 A 
ATOM      8  N   UNL     1       4.063   4.823  17.033  0.00  0.00    +0.000 NA
ATOM      9  C   UNL     1       3.583   5.239  18.189  0.00  0.00    +0.000 A 
ATOM     10  N   UNL     1       4.577   5.436  19.114  0.00  0.00    +0.000 N 
ATOM     11  C   UNL     1       5.751   5.123  18.499  0.00  0.00    +0.000 A 
ATOM     12  H   UNL     1       8.989   4.723  18.281  0.00  0.00    +0.000 HD
ATOM     13  H   UNL     1       4.465   5.753  20.070  0.00  0.00    +0.000 HD
ENDROOT
TORSDOF 0
ENDMDL
MODEL 4
REMARK VINA RESULT:      -5.6      2.257      2.449
REMARK  Name = 
REMARK  0 active torsions:
REMARK  status: ('A' for Active; 'I' for Inactive)
REMARK                            x       y       z     vdW  Elec       q    Type
REMARK                         _______ _______ _______ _____ _____    ______ ____
ROOT
ATOM      1  O   UNL     1       5.298   4.079  14.503  0.00  0.00    +0.000 OA
ATOM      2  C   UNL     1       5.864   4.635  15.435  0.00  0.00    +0.000 A 
ATOM      3  N   UNL     1       6.823   5.626  15.264  0.00  0.00    +0.000 N 
ATOM      4  N   UNL     1       7.509   6.301  16.282  0.00  0.00    +0.000 NA
ATOM      5  C   UNL     1       7.254   6.002  17.532  0.00  0.00    +0.000 A 
ATOM      6 CL   UNL     1       8.116   6.851  18.747  0.00  0.00    +0.000 Cl
ATOM      7  C   UNL     1       6.270   4.983  17.833  0.00  0.00    +0.000 A 
ATOM      8  N   UNL     1       5.838   4.506  19.048  0.00  0.00    +0.000 NA
ATOM      9  C   UNL     1       4.936   3.592  18.751  0.00  0.00    +0.000 A 
ATOM     10  N   UNL     1       4.770   3.458  17.396  0.00  0.00    +0.000 N 
ATOM     11  C   UNL     1       5.620   4.345  16.808  0.00  0.00    +0.000 A 
ATOM     12  H   UNL     1       7.056   5.895  14.313  0.00  0.00    +0.000 HD
ATOM     13  H   UNL     1       4.138   2.825  16.919  0.00  0.00    +0.000 HD
ENDROOT
TORSDOF 0
ENDMDL
MODEL 5
REMARK VINA RESULT:      -5.6      2.116      2.245
REMARK  Name = 
REMARK  0 active torsions:
REMARK  status: ('A' for Active; 'I' for Inactive)
REMARK                            x       y       z     vdW  Elec       q    Type
REMARK                         _______ _______ _______ _____ _____    ______ ____
ROOT
ATOM      1  O   UNL     1       7.521   5.504  19.999  0.00  0.00    +0.000 OA
ATOM      2  C   UNL     1       7.129   5.380  18.847  0.00  0.00    +0.000 A 
ATOM      3  N   UNL     1       7.705   6.044  17.769  0.00  0.00    +0.000 N 
ATOM      4  N   UNL     1       7.307   5.950  16.429  0.00  0.00    +0.000 NA
ATOM      5  C   UNL     1       6.301   5.173  16.113  0.00  0.00    +0.000 A 
ATOM      6 CL   UNL     1       5.847   5.088  14.462  0.00  0.00    +0.000 Cl
ATOM      7  C   UNL     1       5.622   4.429  17.155  0.00  0.00    +0.000 A 
ATOM      8  N   UNL     1       4.559   3.562  17.069  0.00  0.00    +0.000 NA
ATOM      9  C   UNL     1       4.345   3.166  18.308  0.00  0.00    +0.000 A 
ATOM     10  N   UNL     1       5.226   3.742  19.188  0.00  0.00    +0.000 N 
ATOM     11  C   UNL     1       6.041   4.549  18.454  0.00  0.00    +0.000 A 
ATOM     12  H   UNL     1       8.490   6.658  17.961  0.00  0.00    +0.000 HD
ATOM     13  H   UNL     1       5.266   3.599  20.191  0.00  0.00    +0.000 HD
ENDROOT
TORSDOF 0
ENDMDL
MODEL 6
REMARK VINA RESULT:      -5.6      2.133      3.299
REMARK  Name = 
REMARK  0 active torsions:
REMARK  status: ('A' for Active; 'I' for Inactive)
REMARK                            x       y       z     vdW  Elec       q    Type
REMARK                         _______ _______ _______ _____ _____    ______ ____
ROOT
ATOM      1  O   UNL     1       8.068   5.125  18.857  0.00  0.00    +0.000 OA
ATOM      2  C   UNL     1       6.988   4.762  18.412  0.00  0.00    +0.000 A 
ATOM      3  N   UNL     1       5.898   4.449  19.216  0.00  0.00    +0.000 N 
ATOM      4  N   UNL     1       4.636   4.028  18.775  0.00  0.00    +0.000 NA
ATOM      5  C   UNL     1       4.416   3.902  17.489  0.00  0.00    +0.000 A 
ATOM      6 CL   UNL     1       2.859   3.384  16.993  0.00  0.00    +0.000 Cl
ATOM      7  C   UNL     1       5.480   4.202  16.553  0.00  0.00    +0.000 A 
ATOM      8  N   UNL     1       5.487   4.148  15.180  0.00  0.00    +0.000 NA
ATOM      9  C   UNL     1       6.703   4.523  14.833  0.00  0.00    +0.000 A 
ATOM     10  N   UNL     1       7.479   4.816  15.926  0.00  0.00    +0.000 N 
ATOM     11  C   UNL     1       6.701   4.611  17.025  0.00  0.00    +0.000 A 
ATOM     12  H   UNL     1       6.016   4.531  20.221  0.00  0.00    +0.000 HD
ATOM     13  H   UNL     1       8.444   5.124  15.922  0.00  0.00    +0.000 HD
ENDROOT
TORSDOF 0
ENDMDL
MODEL 7
REMARK VINA RESULT:      -5.5      2.312      2.504
REMARK  Name = 
REMARK  0 active torsions:
REMARK  status: ('A' for Active; 'I' for Inactive)
REMARK                            x       y       z     vdW  Elec       q    Type
REMARK                         _______ _______ _______ _____ _____    ______ ____
ROOT
ATOM      1  O   UNL     1       7.840   4.865  19.042  0.00  0.00    +0.000 OA
ATOM      2  C   UNL     1       7.260   4.692  17.979  0.00  0.00    +0.000 A 
ATOM      3  N   UNL     1       7.901   4.727  16.746  0.00  0.00    +0.000 N 
ATOM      4  N   UNL     1       7.300   4.538  15.494  0.00  0.00    +0.000 NA
ATOM      5  C   UNL     1       6.013   4.303  15.430  0.00  0.00    +0.000 A 
ATOM      6 CL   UNL     1       5.319   4.078  13.879  0.00  0.00    +0.000 Cl
ATOM      7  C   UNL     1       5.240   4.242  16.654  0.00  0.00    +0.000 A 
ATOM      8  N   UNL     1       3.898   4.011  16.838  0.00  0.00    +0.000 NA
ATOM      9  C   UNL     1       3.722   4.062  18.143  0.00  0.00    +0.000 A 
ATOM     10  N   UNL     1       4.894   4.317  18.808  0.00  0.00    +0.000 N 
ATOM     11  C   UNL     1       5.865   4.433  17.859  0.00  0.00    +0.000 A 
ATOM     12  H   UNL     1       8.900   4.904  16.740  0.00  0.00    +0.000 HD
ATOM     13  H   UNL     1       5.020   4.404  19.810  0.00  0.00    +0.000 HD
ENDROOT
TORSDOF 0
ENDMDL
MODEL 8
REMARK VINA RESULT:      -5.5      2.228      3.426
REMARK  Name = 
REMARK  0 active torsions:
REMARK  status: ('A' for Active; 'I' for Inactive)
REMARK                            x       y       z     vdW  Elec       q    Type
REMARK                         _______ _______ _______ _____ _____    ______ ____
ROOT
ATOM      1  O   UNL     1       8.153   6.669  18.677  0.00  0.00    +0.000 OA
ATOM      2  C   UNL     1       7.273   5.851  18.449  0.00  0.00    +0.000 A 
ATOM      3  N   UNL     1       6.499   5.264  19.444  0.00  0.00    +0.000 N 
ATOM      4  N   UNL     1       5.479   4.323  19.255  0.00  0.00    +0.000 NA
ATOM      5  C   UNL     1       5.191   3.926  18.039  0.00  0.00    +0.000 A 
ATOM      6 CL   UNL     1       3.937   2.773  17.853  0.00  0.00    +0.000 Cl
ATOM      7  C   UNL     1       5.933   4.470  16.920  0.00  0.00    +0.000 A 
ATOM      8  N   UNL     1       5.813   4.214  15.575  0.00  0.00    +0.000 NA
ATOM      9  C   UNL     1       6.725   4.975  15.003  0.00  0.00    +0.000 A 
ATOM     10  N   UNL     1       7.428   5.710  15.923  0.00  0.00    +0.000 N 
ATOM     11  C   UNL     1       6.924   5.390  17.147  0.00  0.00    +0.000 A 
ATOM     12  H   UNL     1       6.682   5.539  20.404  0.00  0.00    +0.000 HD
ATOM     13  H   UNL     1       8.177   6.366  15.734  0.00  0.00    +0.000 HD
ENDROOT
TORSDOF 0
ENDMDL
MODEL 9
REMARK VINA RESULT:      -5.5      2.444      3.618
REMARK  Name = 
REMARK  0 active torsions:
REMARK  status: ('A' for Active; 'I' for Inactive)
REMARK                            x       y       z     vdW  Elec       q    Type
REMARK                         _______ _______ _______ _____ _____    ______ ____
ROOT
ATOM      1  O   UNL     1       4.155   2.989  17.861  0.00  0.00    +0.000 OA
ATOM      2  C   UNL     1       5.037   3.825  18.006  0.00  0.00    +0.000 A 
ATOM      3  N   UNL     1       5.412   4.332  19.245  0.00  0.00    +0.000 N 
ATOM      4  N   UNL     1       6.410   5.286  19.483  0.00  0.00    +0.000 NA
ATOM      5  C   UNL     1       7.081   5.777  18.470  0.00  0.00    +0.000 A 
ATOM      6 CL   UNL     1       8.292   6.943  18.805  0.00  0.00    +0.000 Cl
ATOM      7  C   UNL     1       6.777   5.322  17.129  0.00  0.00    +0.000 A 
ATOM      8  N   UNL     1       7.338   5.684  15.927  0.00  0.00    +0.000 NA
ATOM      9  C   UNL     1       6.695   4.969  15.025  0.00  0.00    +0.000 A 
ATOM     10  N   UNL     1       5.743   4.162  15.595  0.00  0.00    +0.000 N 
ATOM     11  C   UNL     1       5.793   4.386  16.938  0.00  0.00    +0.000 A 
ATOM     12  H   UNL     1       4.923   3.982  20.063  0.00  0.00    +0.000 HD
ATOM     13  H   UNL     1       5.120   3.522  15.116  0.00  0.00    +0.000 HD
ENDROOT
TORSDOF 0
ENDMDL
