MODEL 1
REMARK VINA RESULT:      -7.5      0.000      0.000
REMARK  Name = 
REMARK  4 active torsions:
REMARK  status: ('A' for Active; 'I' for Inactive)
REMARK    1  A    between atoms: C_1  and  C_2
REMARK    2  A    between atoms: C_6  and  O_7
REMARK    3  A    between atoms: N_9  and  C_10
REMARK    4  A    between atoms: C_10  and  C_11
REMARK                            x       y       z     vdW  Elec       q    Type
REMARK                         _______ _______ _______ _____ _____    ______ ____
ROOT
ATOM      1  C   UNL     1       3.486   7.328  17.548  0.00  0.00    +0.000 C 
ATOM      2  C   UNL     1       4.712   6.449  17.489  0.00  0.00    +0.000 A 
ATOM      3  C   UNL     1       5.540   6.588  16.435  0.00  0.00    +0.000 A 
ATOM      4  C   UNL     1       6.760   5.756  16.345  0.00  0.00    +0.000 A 
ATOM      5  O   UNL     1       7.533   5.831  15.393  0.00  0.00    +0.000 OA
ATOM      6  C   UNL     1       7.033   4.816  17.459  0.00  0.00    +0.000 A 
ATOM      7  C   UNL     1       6.142   4.763  18.454  0.00  0.00    +0.000 A 
ATOM      8  N   UNL     1       4.971   5.525  18.526  0.00  0.00    +0.000 N 
ENDROOT
BRANCH   6   9
ATOM      9  O   UNL     1       8.174   4.043  17.423  0.00  0.00    +0.000 OA
ATOM     10  H   UNL     1       8.648   4.342  16.619  0.00  0.00    +0.000 HD
ENDBRANCH   6   9
BRANCH   8  11
ATOM     11  C   UNL     1       4.041   5.296  19.659  0.00  0.00    +0.000 C 
BRANCH  11  12
ATOM     12  C   UNL     1       2.968   4.253  19.400  0.00  0.00    +0.000 A 
ATOM     13  C   UNL     1       2.997   3.367  18.313  0.00  0.00    +0.000 A 
ATOM     14  C   UNL     1       1.945   2.477  18.086  0.00  0.00    +0.000 A 
ATOM     15  C   UNL     1       0.856   2.443  18.954  0.00  0.00    +0.000 A 
ATOM     16  C   UNL     1       0.829   3.283  20.063  0.00  0.00    +0.000 A 
ATOM     17  C   UNL     1       1.879   4.177  20.287  0.00  0.00    +0.000 A 
ENDBRANCH  11  12
ENDBRANCH   8  11
TORSDOF 3
ENDMDL
MODEL 2
REMARK VINA RESULT:      -7.4      0.133      1.209
REMARK  Name = 
REMARK  4 active torsions:
REMARK  status: ('A' for Active; 'I' for Inactive)
REMARK    1  A    between atoms: C_1  and  C_2
REMARK    2  A    between atoms: C_6  and  O_7
REMARK    3  A    between atoms: N_9  and  C_10
REMARK    4  A    between atoms: C_10  and  C_11
REMARK                            x       y       z     vdW  Elec       q    Type
REMARK                         _______ _______ _______ _____ _____    ______ ____
ROOT
ATOM      1  C   UNL     1       3.493   7.167  17.515  0.00  0.00    +0.000 C 
ATOM      2  C   UNL     1       4.743   6.323  17.451  0.00  0.00    +0.000 A 
ATOM      3  C   UNL     1       5.534   6.444  16.367  0.00  0.00    +0.000 A 
ATOM      4  C   UNL     1       6.775   5.645  16.271  0.00  0.00    +0.000 A 
ATOM      5  O   UNL     1       7.516   5.705  15.293  0.00  0.00    +0.000 OA
ATOM      6  C   UNL     1       7.109   4.757  17.411  0.00  0.00    +0.000 A 
ATOM      7  C   UNL     1       6.250   4.717  18.435  0.00  0.00    +0.000 A 
ATOM      8  N   UNL     1       5.060   5.447  18.515  0.00  0.00    +0.000 N 
ENDROOT
BRANCH   6   9
ATOM      9  O   UNL     1       8.272   4.017  17.369  0.00  0.00    +0.000 OA
ATOM     10  H   UNL     1       8.980   4.659  17.584  0.00  0.00    +0.000 HD
ENDBRANCH   6   9
BRANCH   8  11
ATOM     11  C   UNL     1       4.172   5.236  19.683  0.00  0.00    +0.000 C 
BRANCH  11  12
ATOM     12  C   UNL     1       2.989   4.318  19.425  0.00  0.00    +0.000 A 
ATOM     13  C   UNL     1       1.820   4.328  20.199  0.00  0.00    +0.000 A 
ATOM     14  C   UNL     1       0.793   3.411  19.958  0.00  0.00    +0.000 A 
ATOM     15  C   UNL     1       0.911   2.483  18.926  0.00  0.00    +0.000 A 
ATOM     16  C   UNL     1       2.044   2.486  18.119  0.00  0.00    +0.000 A 
ATOM     17  C   UNL     1       3.072   3.400  18.363  0.00  0.00    +0.000 A 
ENDBRANCH  11  12
ENDBRANCH   8  11
TORSDOF 3
ENDMDL
MODEL 3
REMARK VINA RESULT:      -7.3      1.417      2.371
REMARK  Name = 
REMARK  4 active torsions:
REMARK  status: ('A' for Active; 'I' for Inactive)
REMARK    1  A    between atoms: C_1  and  C_2
REMARK    2  A    between atoms: C_6  and  O_7
REMARK    3  A    between atoms: N_9  and  C_10
REMARK    4  A    between atoms: C_10  and  C_11
REMARK                            x       y       z     vdW  Elec       q    Type
REMARK                         _______ _______ _______ _____ _____    ______ ____
ROOT
ATOM      1  C   UNL     1       4.884   4.696  15.258  0.00  0.00    +0.000 C 
ATOM      2  C   UNL     1       5.609   4.869  16.571  0.00  0.00    +0.000 A 
ATOM      3  C   UNL     1       6.874   4.412  16.661  0.00  0.00    +0.000 A 
ATOM      4  C   UNL     1       7.625   4.573  17.925  0.00  0.00    +0.000 A 
ATOM      5  O   UNL     1       8.771   4.153  18.062  0.00  0.00    +0.000 OA
ATOM      6  C   UNL     1       6.945   5.275  19.041  0.00  0.00    +0.000 A 
ATOM      7  C   UNL     1       5.690   5.686  18.839  0.00  0.00    +0.000 A 
ATOM      8  N   UNL     1       4.966   5.507  17.656  0.00  0.00    +0.000 N 
ENDROOT
BRANCH   6   9
ATOM      9  O   UNL     1       7.623   5.467  20.226  0.00  0.00    +0.000 OA
ATOM     10  H   UNL     1       8.513   5.773  19.953  0.00  0.00    +0.000 HD
ENDBRANCH   6   9
BRANCH   8  11
ATOM     11  C   UNL     1       3.552   5.952  17.612  0.00  0.00    +0.000 C 
BRANCH  11  12
ATOM     12  C   UNL     1       2.593   5.107  18.433  0.00  0.00    +0.000 A 
ATOM     13  C   UNL     1       2.228   5.412  19.752  0.00  0.00    +0.000 A 
ATOM     14  C   UNL     1       1.398   4.558  20.482  0.00  0.00    +0.000 A 
ATOM     15  C   UNL     1       0.901   3.395  19.898  0.00  0.00    +0.000 A 
ATOM     16  C   UNL     1       1.216   3.097  18.576  0.00  0.00    +0.000 A 
ATOM     17  C   UNL     1       2.050   3.948  17.847  0.00  0.00    +0.000 A 
ENDBRANCH  11  12
ENDBRANCH   8  11
TORSDOF 3
ENDMDL
MODEL 4
REMARK VINA RESULT:      -7.2      1.408      2.089
REMARK  Name = 
REMARK  4 active torsions:
REMARK  status: ('A' for Active; 'I' for Inactive)
REMARK    1  A    between atoms: C_1  and  C_2
REMARK    2  A    between atoms: C_6  and  O_7
REMARK    3  A    between atoms: N_9  and  C_10
REMARK    4  A    between atoms: C_10  and  C_11
REMARK                            x       y       z     vdW  Elec       q    Type
REMARK                         _______ _______ _______ _____ _____    ______ ____
ROOT
ATOM      1  C   UNL     1       4.833   4.636  15.316  0.00  0.00    +0.000 C 
ATOM      2  C   UNL     1       5.597   4.825  16.604  0.00  0.00    +0.000 A 
ATOM      3  C   UNL     1       6.867   4.378  16.658  0.00  0.00    +0.000 A 
ATOM      4  C   UNL     1       7.656   4.556  17.897  0.00  0.00    +0.000 A 
ATOM      5  O   UNL     1       8.809   4.145  18.001  0.00  0.00    +0.000 OA
ATOM      6  C   UNL     1       7.007   5.263  19.027  0.00  0.00    +0.000 A 
ATOM      7  C   UNL     1       5.742   5.663  18.861  0.00  0.00    +0.000 A 
ATOM      8  N   UNL     1       4.983   5.468  17.703  0.00  0.00    +0.000 N 
ENDROOT
BRANCH   6   9
ATOM      9  O   UNL     1       7.720   5.470  20.189  0.00  0.00    +0.000 OA
ATOM     10  H   UNL     1       8.344   6.193  19.968  0.00  0.00    +0.000 HD
ENDBRANCH   6   9
BRANCH   8  11
ATOM     11  C   UNL     1       3.565   5.902  17.700  0.00  0.00    +0.000 C 
BRANCH  11  12
ATOM     12  C   UNL     1       2.621   4.998  18.473  0.00  0.00    +0.000 A 
ATOM     13  C   UNL     1       2.071   3.821  17.944  0.00  0.00    +0.000 A 
ATOM     14  C   UNL     1       1.153   3.067  18.678  0.00  0.00    +0.000 A 
ATOM     15  C   UNL     1       0.783   3.466  19.960  0.00  0.00    +0.000 A 
ATOM     16  C   UNL     1       1.351   4.607  20.520  0.00  0.00    +0.000 A 
ATOM     17  C   UNL     1       2.266   5.363  19.784  0.00  0.00    +0.000 A 
ENDBRANCH  11  12
ENDBRANCH   8  11
TORSDOF 3
ENDMDL
MODEL 5
REMARK VINA RESULT:      -7.1      1.935      2.333
REMARK  Name = 
REMARK  4 active torsions:
REMARK  status: ('A' for Active; 'I' for Inactive)
REMARK    1  A    between atoms: C_1  and  C_2
REMARK    2  A    between atoms: C_6  and  O_7
REMARK    3  A    between atoms: N_9  and  C_10
REMARK    4  A    between atoms: C_10  and  C_11
REMARK                            x       y       z     vdW  Elec       q    Type
REMARK                         _______ _______ _______ _____ _____    ______ ____
ROOT
ATOM      1  C   UNL     1       5.387   6.070  15.272  0.00  0.00    +0.000 C 
ATOM      2  C   UNL     1       6.085   5.904  16.600  0.00  0.00    +0.000 A 
ATOM      3  C   UNL     1       6.928   6.877  17.000  0.00  0.00    +0.000 A 
ATOM      4  C   UNL     1       7.622   6.759  18.301  0.00  0.00    +0.000 A 
ATOM      5  O   UNL     1       8.415   7.609  18.697  0.00  0.00    +0.000 OA
ATOM      6  C   UNL     1       7.322   5.568  19.132  0.00  0.00    +0.000 A 
ATOM      7  C   UNL     1       6.470   4.667  18.636  0.00  0.00    +0.000 A 
ATOM      8  N   UNL     1       5.837   4.759  17.392  0.00  0.00    +0.000 N 
ENDROOT
BRANCH   6   9
ATOM      9  O   UNL     1       7.930   5.438  20.363  0.00  0.00    +0.000 OA
ATOM     10  H   UNL     1       8.475   6.246  20.455  0.00  0.00    +0.000 HD
ENDBRANCH   6   9
BRANCH   8  11
ATOM     11  C   UNL     1       4.975   3.637  16.946  0.00  0.00    +0.000 C 
BRANCH  11  12
ATOM     12  C   UNL     1       3.659   3.510  17.694  0.00  0.00    +0.000 A 
ATOM     13  C   UNL     1       2.635   4.465  17.624  0.00  0.00    +0.000 A 
ATOM     14  C   UNL     1       1.474   4.329  18.390  0.00  0.00    +0.000 A 
ATOM     15  C   UNL     1       1.311   3.226  19.224  0.00  0.00    +0.000 A 
ATOM     16  C   UNL     1       2.296   2.244  19.274  0.00  0.00    +0.000 A 
ATOM     17  C   UNL     1       3.458   2.382  18.512  0.00  0.00    +0.000 A 
ENDBRANCH  11  12
ENDBRANCH   8  11
TORSDOF 3
ENDMDL
MODEL 6
REMARK VINA RESULT:      -7.1      1.283      1.839
REMARK  Name = 
REMARK  4 active torsions:
REMARK  status: ('A' for Active; 'I' for Inactive)
REMARK    1  A    between atoms: C_1  and  C_2
REMARK    2  A    between atoms: C_6  and  O_7
REMARK    3  A    between atoms: N_9  and  C_10
REMARK    4  A    between atoms: C_10  and  C_11
REMARK                            x       y       z     vdW  Elec       q    Type
REMARK                         _______ _______ _______ _____ _____    ______ ____
ROOT
ATOM      1  C   UNL     1       2.818   6.683  17.953  0.00  0.00    +0.000 C 
ATOM      2  C   UNL     1       4.144   6.098  17.529  0.00  0.00    +0.000 A 
ATOM      3  C   UNL     1       5.196   6.933  17.416  0.00  0.00    +0.000 A 
ATOM      4  C   UNL     1       6.516   6.399  17.016  0.00  0.00    +0.000 A 
ATOM      5  O   UNL     1       7.499   7.123  16.878  0.00  0.00    +0.000 OA
ATOM      6  C   UNL     1       6.625   4.937  16.790  0.00  0.00    +0.000 A 
ATOM      7  C   UNL     1       5.515   4.206  16.931  0.00  0.00    +0.000 A 
ATOM      8  N   UNL     1       4.258   4.712  17.277  0.00  0.00    +0.000 N 
ENDROOT
BRANCH   6   9
ATOM      9  O   UNL     1       7.846   4.400  16.442  0.00  0.00    +0.000 OA
ATOM     10  H   UNL     1       7.624   3.634  15.872  0.00  0.00    +0.000 HD
ENDBRANCH   6   9
BRANCH   8  11
ATOM     11  C   UNL     1       3.103   3.782  17.320  0.00  0.00    +0.000 C 
BRANCH  11  12
ATOM     12  C   UNL     1       2.599   3.458  18.715  0.00  0.00    +0.000 A 
ATOM     13  C   UNL     1       1.267   3.635  19.117  0.00  0.00    +0.000 A 
ATOM     14  C   UNL     1       0.877   3.386  20.436  0.00  0.00    +0.000 A 
ATOM     15  C   UNL     1       1.808   2.937  21.369  0.00  0.00    +0.000 A 
ATOM     16  C   UNL     1       3.126   2.714  20.979  0.00  0.00    +0.000 A 
ATOM     17  C   UNL     1       3.517   2.966  19.663  0.00  0.00    +0.000 A 
ENDBRANCH  11  12
ENDBRANCH   8  11
TORSDOF 3
ENDMDL
MODEL 7
REMARK VINA RESULT:      -7.1      1.868      2.294
REMARK  Name = 
REMARK  4 active torsions:
REMARK  status: ('A' for Active; 'I' for Inactive)
REMARK    1  A    between atoms: C_1  and  C_2
REMARK    2  A    between atoms: C_6  and  O_7
REMARK    3  A    between atoms: N_9  and  C_10
REMARK    4  A    between atoms: C_10  and  C_11
REMARK                            x       y       z     vdW  Elec       q    Type
REMARK                         _______ _______ _______ _____ _____    ______ ____
ROOT
ATOM      1  C   UNL     1       5.206   6.519  15.407  0.00  0.00    +0.000 C 
ATOM      2  C   UNL     1       6.063   6.207  16.610  0.00  0.00    +0.000 A 
ATOM      3  C   UNL     1       6.876   7.175  17.075  0.00  0.00    +0.000 A 
ATOM      4  C   UNL     1       7.723   6.916  18.260  0.00  0.00    +0.000 A 
ATOM      5  O   UNL     1       8.496   7.759  18.707  0.00  0.00    +0.000 OA
ATOM      6  C   UNL     1       7.605   5.588  18.910  0.00  0.00    +0.000 A 
ATOM      7  C   UNL     1       6.765   4.705  18.361  0.00  0.00    +0.000 A 
ATOM      8  N   UNL     1       5.988   4.935  17.222  0.00  0.00    +0.000 N 
ENDROOT
BRANCH   6   9
ATOM      9  O   UNL     1       8.359   5.319  20.032  0.00  0.00    +0.000 OA
ATOM     10  H   UNL     1       8.245   4.358  20.180  0.00  0.00    +0.000 HD
ENDBRANCH   6   9
BRANCH   8  11
ATOM     11  C   UNL     1       5.160   3.826  16.688  0.00  0.00    +0.000 C 
BRANCH  11  12
ATOM     12  C   UNL     1       3.836   3.619  17.404  0.00  0.00    +0.000 A 
ATOM     13  C   UNL     1       3.343   2.358  17.769  0.00  0.00    +0.000 A 
ATOM     14  C   UNL     1       2.086   2.225  18.362  0.00  0.00    +0.000 A 
ATOM     15  C   UNL     1       1.309   3.352  18.619  0.00  0.00    +0.000 A 
ATOM     16  C   UNL     1       1.799   4.616  18.305  0.00  0.00    +0.000 A 
ATOM     17  C   UNL     1       3.054   4.749  17.708  0.00  0.00    +0.000 A 
ENDBRANCH  11  12
ENDBRANCH   8  11
TORSDOF 3
ENDMDL
MODEL 8
REMARK VINA RESULT:      -7.0      1.413      1.811
REMARK  Name = 
REMARK  4 active torsions:
REMARK  status: ('A' for Active; 'I' for Inactive)
REMARK    1  A    between atoms: C_1  and  C_2
REMARK    2  A    between atoms: C_6  and  O_7
REMARK    3  A    between atoms: N_9  and  C_10
REMARK    4  A    between atoms: C_10  and  C_11
REMARK                            x       y       z     vdW  Elec       q    Type
REMARK                         _______ _______ _______ _____ _____    ______ ____
ROOT
ATOM      1  C   UNL     1       3.277   7.790  17.906  0.00  0.00    +0.000 C 
ATOM      2  C   UNL     1       4.059   6.611  17.381  0.00  0.00    +0.000 A 
ATOM      3  C   UNL     1       5.306   6.831  16.921  0.00  0.00    +0.000 A 
ATOM      4  C   UNL     1       6.112   5.701  16.410  0.00  0.00    +0.000 A 
ATOM      5  O   UNL     1       7.244   5.856  15.961  0.00  0.00    +0.000 OA
ATOM      6  C   UNL     1       5.506   4.348  16.463  0.00  0.00    +0.000 A 
ATOM      7  C   UNL     1       4.261   4.248  16.940  0.00  0.00    +0.000 A 
ATOM      8  N   UNL     1       3.485   5.319  17.393  0.00  0.00    +0.000 N 
ENDROOT
BRANCH   6   9
ATOM      9  O   UNL     1       6.237   3.266  16.020  0.00  0.00    +0.000 OA
ATOM     10  H   UNL     1       6.396   2.732  16.826  0.00  0.00    +0.000 HD
ENDBRANCH   6   9
BRANCH   8  11
ATOM     11  C   UNL     1       2.089   5.056  17.821  0.00  0.00    +0.000 C 
BRANCH  11  12
ATOM     12  C   UNL     1       1.958   4.245  19.099  0.00  0.00    +0.000 A 
ATOM     13  C   UNL     1       1.363   2.976  19.151  0.00  0.00    +0.000 A 
ATOM     14  C   UNL     1       1.207   2.308  20.369  0.00  0.00    +0.000 A 
ATOM     15  C   UNL     1       1.661   2.888  21.550  0.00  0.00    +0.000 A 
ATOM     16  C   UNL     1       2.295   4.127  21.513  0.00  0.00    +0.000 A 
ATOM     17  C   UNL     1       2.447   4.797  20.297  0.00  0.00    +0.000 A 
ENDBRANCH  11  12
ENDBRANCH   8  11
TORSDOF 3
ENDMDL
MODEL 9
REMARK VINA RESULT:      -6.9      1.765      2.123
REMARK  Name = 
REMARK  4 active torsions:
REMARK  status: ('A' for Active; 'I' for Inactive)
REMARK    1  A    between atoms: C_1  and  C_2
REMARK    2  A    between atoms: C_6  and  O_7
REMARK    3  A    between atoms: N_9  and  C_10
REMARK    4  A    between atoms: C_10  and  C_11
REMARK                            x       y       z     vdW  Elec       q    Type
REMARK                         _______ _______ _______ _____ _____    ______ ____
ROOT
ATOM      1  C   UNL     1       4.891   6.484  15.852  0.00  0.00    +0.000 C 
ATOM      2  C   UNL     1       5.739   6.191  17.066  0.00  0.00    +0.000 A 
ATOM      3  C   UNL     1       6.782   7.005  17.320  0.00  0.00    +0.000 A 
ATOM      4  C   UNL     1       7.631   6.762  18.507  0.00  0.00    +0.000 A 
ATOM      5  O   UNL     1       8.605   7.463  18.768  0.00  0.00    +0.000 OA
ATOM      6  C   UNL     1       7.263   5.631  19.393  0.00  0.00    +0.000 A 
ATOM      7  C   UNL     1       6.208   4.890  19.042  0.00  0.00    +0.000 A 
ATOM      8  N   UNL     1       5.422   5.097  17.904  0.00  0.00    +0.000 N 
ENDROOT
BRANCH   6   9
ATOM      9  O   UNL     1       8.015   5.389  20.523  0.00  0.00    +0.000 OA
ATOM     10  H   UNL     1       8.700   6.090  20.517  0.00  0.00    +0.000 HD
ENDBRANCH   6   9
BRANCH   8  11
ATOM     11  C   UNL     1       4.329   4.140  17.608  0.00  0.00    +0.000 C 
BRANCH  11  12
ATOM     12  C   UNL     1       3.281   4.015  18.700  0.00  0.00    +0.000 A 
ATOM     13  C   UNL     1       2.861   2.787  19.232  0.00  0.00    +0.000 A 
ATOM     14  C   UNL     1       1.842   2.731  20.186  0.00  0.00    +0.000 A 
ATOM     15  C   UNL     1       1.239   3.902  20.638  0.00  0.00    +0.000 A 
ATOM     16  C   UNL     1       1.671   5.133  20.154  0.00  0.00    +0.000 A 
ATOM     17  C   UNL     1       2.687   5.190  19.198  0.00  0.00    +0.000 A 
ENDBRANCH  11  12
ENDBRANCH   8  11
TORSDOF 3
ENDMDL
