MODEL 1
REMARK VINA RESULT:      -7.6      0.000      0.000
REMARK  Name = 
REMARK  3 active torsions:
REMARK  status: ('A' for Active; 'I' for Inactive)
REMARK    1  A    between atoms: C_2  and  C_3
REMARK    2  A    between atoms: C_3  and  N_4
REMARK    3  A    between atoms: N_13  and  C_14
REMARK                            x       y       z     vdW  Elec       q    Type
REMARK                         _______ _______ _______ _____ _____    ______ ____
ROOT
ATOM      1  O   UNL     1       4.638   5.356  16.531  0.00  0.00    +0.000 OA
ATOM      2  C   UNL     1       5.392   4.445  16.866  0.00  0.00    +0.000 C 
ATOM      3  N   UNL     1       6.275   3.775  16.030  0.00  0.00    +0.000 N 
ATOM      4  H   UNL     1       6.733   2.948  16.397  0.00  0.00    +0.000 HD
ENDROOT
BRANCH   3   5
ATOM      5  C   UNL     1       6.513   4.068  14.670  0.00  0.00    +0.000 A 
ATOM      6  C   UNL     1       5.796   3.479  13.620  0.00  0.00    +0.000 A 
ATOM      7  C   UNL     1       6.111   3.766  12.289  0.00  0.00    +0.000 A 
ATOM      8  C   UNL     1       7.143   4.649  12.004  0.00  0.00    +0.000 A 
ATOM      9  F   UNL     1       7.465   4.898  10.728  0.00  0.00    +0.000 F 
ATOM     10  C   UNL     1       7.835   5.266  13.037  0.00  0.00    +0.000 A 
ATOM     11  F   UNL     1       8.829   6.122  12.763  0.00  0.00    +0.000 F 
ATOM     12  C   UNL     1       7.518   4.996  14.368  0.00  0.00    +0.000 A 
ENDBRANCH   3   5
BRANCH   2  13
ATOM     13  C   UNL     1       5.400   3.962  18.298  0.00  0.00    +0.000 C 
BRANCH  13  14
ATOM     14  N   UNL     1       4.152   3.311  18.629  0.00  0.00    +0.000 N 
ATOM     15  C   UNL     1       3.812   2.039  18.261  0.00  0.00    +0.000 A 
ATOM     16  N   UNL     1       2.604   1.726  18.668  0.00  0.00    +0.000 NA
ATOM     17  C   UNL     1       2.151   2.832  19.342  0.00  0.00    +0.000 A 
ATOM     18  C   UNL     1       0.922   3.042  19.983  0.00  0.00    +0.000 A 
ATOM     19  C   UNL     1       0.692   4.269  20.616  0.00  0.00    +0.000 A 
ATOM     20  C   UNL     1       1.668   5.265  20.614  0.00  0.00    +0.000 A 
ATOM     21  C   UNL     1       2.900   5.079  19.976  0.00  0.00    +0.000 A 
ATOM     22  C   UNL     1       3.108   3.847  19.344  0.00  0.00    +0.000 A 
ENDBRANCH  13  14
ENDBRANCH   2  13
TORSDOF 3
ENDMDL
MODEL 2
REMARK VINA RESULT:      -7.5      1.845      2.673
REMARK  Name = 
REMARK  3 active torsions:
REMARK  status: ('A' for Active; 'I' for Inactive)
REMARK    1  A    between atoms: C_2  and  C_3
REMARK    2  A    between atoms: C_3  and  N_4
REMARK    3  A    between atoms: N_13  and  C_14
REMARK                            x       y       z     vdW  Elec       q    Type
REMARK                         _______ _______ _______ _____ _____    ______ ____
ROOT
ATOM      1  O   UNL     1       8.078   4.406  17.322  0.00  0.00    +0.000 OA
ATOM      2  C   UNL     1       6.880   4.678  17.324  0.00  0.00    +0.000 C 
ATOM      3  N   UNL     1       6.085   4.848  16.199  0.00  0.00    +0.000 N 
ATOM      4  H   UNL     1       5.149   5.213  16.336  0.00  0.00    +0.000 HD
ENDROOT
BRANCH   3   5
ATOM      5  C   UNL     1       6.494   4.669  14.860  0.00  0.00    +0.000 A 
ATOM      6  C   UNL     1       7.533   5.401  14.270  0.00  0.00    +0.000 A 
ATOM      7  C   UNL     1       7.861   5.220  12.923  0.00  0.00    +0.000 A 
ATOM      8  C   UNL     1       7.152   4.300  12.163  0.00  0.00    +0.000 A 
ATOM      9  F   UNL     1       7.446   4.151  10.865  0.00  0.00    +0.000 F 
ATOM     10  C   UNL     1       6.147   3.543  12.748  0.00  0.00    +0.000 A 
ATOM     11  F   UNL     1       5.464   2.651  12.016  0.00  0.00    +0.000 F 
ATOM     12  C   UNL     1       5.823   3.708  14.094  0.00  0.00    +0.000 A 
ENDBRANCH   3   5
BRANCH   2  13
ATOM     13  C   UNL     1       6.152   4.863  18.636  0.00  0.00    +0.000 C 
BRANCH  13  14
ATOM     14  N   UNL     1       4.729   4.997  18.420  0.00  0.00    +0.000 N 
ATOM     15  C   UNL     1       4.084   6.176  18.165  0.00  0.00    +0.000 A 
ATOM     16  N   UNL     1       2.788   6.002  18.049  0.00  0.00    +0.000 NA
ATOM     17  C   UNL     1       2.588   4.655  18.218  0.00  0.00    +0.000 A 
ATOM     18  C   UNL     1       1.392   3.923  18.190  0.00  0.00    +0.000 A 
ATOM     19  C   UNL     1       1.444   2.538  18.385  0.00  0.00    +0.000 A 
ATOM     20  C   UNL     1       2.662   1.894  18.600  0.00  0.00    +0.000 A 
ATOM     21  C   UNL     1       3.868   2.606  18.636  0.00  0.00    +0.000 A 
ATOM     22  C   UNL     1       3.794   3.991  18.444  0.00  0.00    +0.000 A 
ENDBRANCH  13  14
ENDBRANCH   2  13
TORSDOF 3
ENDMDL
MODEL 3
REMARK VINA RESULT:      -7.5      1.289      2.020
REMARK  Name = 
REMARK  3 active torsions:
REMARK  status: ('A' for Active; 'I' for Inactive)
REMARK    1  A    between atoms: C_2  and  C_3
REMARK    2  A    between atoms: C_3  and  N_4
REMARK    3  A    between atoms: N_13  and  C_14
REMARK                            x       y       z     vdW  Elec       q    Type
REMARK                         _______ _______ _______ _____ _____    ______ ____
ROOT
ATOM      1  O   UNL     1       4.810   6.527  16.744  0.00  0.00    +0.000 OA
ATOM      2  C   UNL     1       5.313   5.543  17.282  0.00  0.00    +0.000 C 
ATOM      3  N   UNL     1       5.985   4.518  16.631  0.00  0.00    +0.000 N 
ATOM      4  H   UNL     1       6.223   3.694  17.173  0.00  0.00    +0.000 HD
ENDROOT
BRANCH   3   5
ATOM      5  C   UNL     1       6.270   4.459  15.250  0.00  0.00    +0.000 A 
ATOM      6  C   UNL     1       5.516   3.704  14.341  0.00  0.00    +0.000 A 
ATOM      7  C   UNL     1       5.876   3.639  12.993  0.00  0.00    +0.000 A 
ATOM      8  C   UNL     1       6.991   4.335  12.547  0.00  0.00    +0.000 A 
ATOM      9  F   UNL     1       7.354   4.246  11.261  0.00  0.00    +0.000 F 
ATOM     10  C   UNL     1       7.722   5.115  13.431  0.00  0.00    +0.000 A 
ATOM     11  F   UNL     1       8.797   5.792  13.001  0.00  0.00    +0.000 F 
ATOM     12  C   UNL     1       7.362   5.196  14.776  0.00  0.00    +0.000 A 
ENDBRANCH   3   5
BRANCH   2  13
ATOM     13  C   UNL     1       5.219   5.375  18.782  0.00  0.00    +0.000 C 
BRANCH  13  14
ATOM     14  N   UNL     1       3.847   5.178  19.192  0.00  0.00    +0.000 N 
ATOM     15  C   UNL     1       3.097   6.093  19.878  0.00  0.00    +0.000 A 
ATOM     16  N   UNL     1       1.900   5.630  20.150  0.00  0.00    +0.000 NA
ATOM     17  C   UNL     1       1.866   4.373  19.602  0.00  0.00    +0.000 A 
ATOM     18  C   UNL     1       0.826   3.432  19.596  0.00  0.00    +0.000 A 
ATOM     19  C   UNL     1       1.030   2.203  18.959  0.00  0.00    +0.000 A 
ATOM     20  C   UNL     1       2.246   1.917  18.336  0.00  0.00    +0.000 A 
ATOM     21  C   UNL     1       3.299   2.839  18.335  0.00  0.00    +0.000 A 
ATOM     22  C   UNL     1       3.076   4.061  18.982  0.00  0.00    +0.000 A 
ENDBRANCH  13  14
ENDBRANCH   2  13
TORSDOF 3
ENDMDL
MODEL 4
REMARK VINA RESULT:      -7.4      1.681      2.365
REMARK  Name = 
REMARK  3 active torsions:
REMARK  status: ('A' for Active; 'I' for Inactive)
REMARK    1  A    between atoms: C_2  and  C_3
REMARK    2  A    between atoms: C_3  and  N_4
REMARK    3  A    between atoms: N_13  and  C_14
REMARK                            x       y       z     vdW  Elec       q    Type
REMARK                         _______ _______ _______ _____ _____    ______ ____
ROOT
ATOM      1  O   UNL     1       4.812   7.038  15.556  0.00  0.00    +0.000 OA
ATOM      2  C   UNL     1       5.316   6.236  16.339  0.00  0.00    +0.000 C 
ATOM      3  N   UNL     1       6.096   5.142  15.988  0.00  0.00    +0.000 N 
ATOM      4  H   UNL     1       6.328   4.477  16.718  0.00  0.00    +0.000 HD
ENDROOT
BRANCH   3   5
ATOM      5  C   UNL     1       6.505   4.801  14.681  0.00  0.00    +0.000 A 
ATOM      6  C   UNL     1       7.588   5.410  14.032  0.00  0.00    +0.000 A 
ATOM      7  C   UNL     1       7.917   5.071  12.717  0.00  0.00    +0.000 A 
ATOM      8  C   UNL     1       7.165   4.116  12.047  0.00  0.00    +0.000 A 
ATOM      9  F   UNL     1       7.461   3.815  10.776  0.00  0.00    +0.000 F 
ATOM     10  C   UNL     1       6.114   3.480  12.694  0.00  0.00    +0.000 A 
ATOM     11  F   UNL     1       5.390   2.553  12.050  0.00  0.00    +0.000 F 
ATOM     12  C   UNL     1       5.788   3.802  14.011  0.00  0.00    +0.000 A 
ENDBRANCH   3   5
BRANCH   2  13
ATOM     13  C   UNL     1       5.098   6.395  17.826  0.00  0.00    +0.000 C 
BRANCH  13  14
ATOM     14  N   UNL     1       4.753   5.130  18.434  0.00  0.00    +0.000 N 
ATOM     15  C   UNL     1       5.611   4.352  19.162  0.00  0.00    +0.000 A 
ATOM     16  N   UNL     1       5.036   3.242  19.560  0.00  0.00    +0.000 NA
ATOM     17  C   UNL     1       3.749   3.311  19.087  0.00  0.00    +0.000 A 
ATOM     18  C   UNL     1       2.701   2.391  19.224  0.00  0.00    +0.000 A 
ATOM     19  C   UNL     1       1.460   2.691  18.651  0.00  0.00    +0.000 A 
ATOM     20  C   UNL     1       1.266   3.887  17.958  0.00  0.00    +0.000 A 
ATOM     21  C   UNL     1       2.301   4.817  17.804  0.00  0.00    +0.000 A 
ATOM     22  C   UNL     1       3.536   4.495  18.381  0.00  0.00    +0.000 A 
ENDBRANCH  13  14
ENDBRANCH   2  13
TORSDOF 3
ENDMDL
MODEL 5
REMARK VINA RESULT:      -7.4      1.673      2.202
REMARK  Name = 
REMARK  3 active torsions:
REMARK  status: ('A' for Active; 'I' for Inactive)
REMARK    1  A    between atoms: C_2  and  C_3
REMARK    2  A    between atoms: C_3  and  N_4
REMARK    3  A    between atoms: N_13  and  C_14
REMARK                            x       y       z     vdW  Elec       q    Type
REMARK                         _______ _______ _______ _____ _____    ______ ____
ROOT
ATOM      1  O   UNL     1       7.770   4.421  17.495  0.00  0.00    +0.000 OA
ATOM      2  C   UNL     1       6.614   4.838  17.499  0.00  0.00    +0.000 C 
ATOM      3  N   UNL     1       5.825   5.051  16.377  0.00  0.00    +0.000 N 
ATOM      4  H   UNL     1       4.943   5.534  16.508  0.00  0.00    +0.000 HD
ENDROOT
BRANCH   3   5
ATOM      5  C   UNL     1       6.184   4.759  15.043  0.00  0.00    +0.000 A 
ATOM      6  C   UNL     1       5.499   3.829  14.249  0.00  0.00    +0.000 A 
ATOM      7  C   UNL     1       5.931   3.540  12.952  0.00  0.00    +0.000 A 
ATOM      8  C   UNL     1       7.049   4.185  12.443  0.00  0.00    +0.000 A 
ATOM      9  F   UNL     1       7.482   3.884  11.211  0.00  0.00    +0.000 F 
ATOM     10  C   UNL     1       7.713   5.135  13.207  0.00  0.00    +0.000 A 
ATOM     11  F   UNL     1       8.790   5.763  12.715  0.00  0.00    +0.000 F 
ATOM     12  C   UNL     1       7.279   5.440  14.498  0.00  0.00    +0.000 A 
ENDBRANCH   3   5
BRANCH   2  13
ATOM     13  C   UNL     1       5.939   5.173  18.809  0.00  0.00    +0.000 C 
BRANCH  13  14
ATOM     14  N   UNL     1       4.501   5.147  18.668  0.00  0.00    +0.000 N 
ATOM     15  C   UNL     1       3.708   6.253  18.527  0.00  0.00    +0.000 A 
ATOM     16  N   UNL     1       2.438   5.931  18.458  0.00  0.00    +0.000 NA
ATOM     17  C   UNL     1       2.407   4.561  18.539  0.00  0.00    +0.000 A 
ATOM     18  C   UNL     1       1.307   3.693  18.513  0.00  0.00    +0.000 A 
ATOM     19  C   UNL     1       1.531   2.315  18.607  0.00  0.00    +0.000 A 
ATOM     20  C   UNL     1       2.828   1.811  18.719  0.00  0.00    +0.000 A 
ATOM     21  C   UNL     1       3.940   2.660  18.751  0.00  0.00    +0.000 A 
ATOM     22  C   UNL     1       3.693   4.035  18.662  0.00  0.00    +0.000 A 
ENDBRANCH  13  14
ENDBRANCH   2  13
TORSDOF 3
ENDMDL
MODEL 6
REMARK VINA RESULT:      -7.4      4.492      7.458
REMARK  Name = 
REMARK  3 active torsions:
REMARK  status: ('A' for Active; 'I' for Inactive)
REMARK    1  A    between atoms: C_2  and  C_3
REMARK    2  A    between atoms: C_3  and  N_4
REMARK    3  A    between atoms: N_13  and  C_14
REMARK                            x       y       z     vdW  Elec       q    Type
REMARK                         _______ _______ _______ _____ _____    ______ ____
ROOT
ATOM      1  O   UNL     1       1.671   4.731  17.952  0.00  0.00    +0.000 OA
ATOM      2  C   UNL     1       2.701   4.910  18.596  0.00  0.00    +0.000 C 
ATOM      3  N   UNL     1       3.091   6.104  19.188  0.00  0.00    +0.000 N 
ATOM      4  H   UNL     1       4.030   6.157  19.565  0.00  0.00    +0.000 HD
ENDROOT
BRANCH   3   5
ATOM      5  C   UNL     1       2.340   7.299  19.214  0.00  0.00    +0.000 A 
ATOM      6  C   UNL     1       2.164   8.120  18.092  0.00  0.00    +0.000 A 
ATOM      7  C   UNL     1       1.455   9.321  18.189  0.00  0.00    +0.000 A 
ATOM      8  C   UNL     1       0.916   9.702  19.409  0.00  0.00    +0.000 A 
ATOM      9  F   UNL     1       0.265  10.869  19.508  0.00  0.00    +0.000 F 
ATOM     10  C   UNL     1       1.053   8.878  20.518  0.00  0.00    +0.000 A 
ATOM     11  F   UNL     1       0.529   9.243  21.697  0.00  0.00    +0.000 F 
ATOM     12  C   UNL     1       1.747   7.671  20.427  0.00  0.00    +0.000 A 
ENDBRANCH   3   5
BRANCH   2  13
ATOM     13  C   UNL     1       3.676   3.770  18.792  0.00  0.00    +0.000 C 
BRANCH  13  14
ATOM     14  N   UNL     1       4.998   4.141  18.339  0.00  0.00    +0.000 N 
ATOM     15  C   UNL     1       6.049   4.445  19.160  0.00  0.00    +0.000 A 
ATOM     16  N   UNL     1       7.116   4.781  18.474  0.00  0.00    +0.000 NA
ATOM     17  C   UNL     1       6.747   4.673  17.156  0.00  0.00    +0.000 A 
ATOM     18  C   UNL     1       7.502   4.912  15.999  0.00  0.00    +0.000 A 
ATOM     19  C   UNL     1       6.899   4.724  14.749  0.00  0.00    +0.000 A 
ATOM     20  C   UNL     1       5.573   4.302  14.655  0.00  0.00    +0.000 A 
ATOM     21  C   UNL     1       4.800   4.062  15.798  0.00  0.00    +0.000 A 
ATOM     22  C   UNL     1       5.420   4.261  17.037  0.00  0.00    +0.000 A 
ENDBRANCH  13  14
ENDBRANCH   2  13
TORSDOF 3
ENDMDL
MODEL 7
REMARK VINA RESULT:      -7.4      1.375      1.890
REMARK  Name = 
REMARK  3 active torsions:
REMARK  status: ('A' for Active; 'I' for Inactive)
REMARK    1  A    between atoms: C_2  and  C_3
REMARK    2  A    between atoms: C_3  and  N_4
REMARK    3  A    between atoms: N_13  and  C_14
REMARK                            x       y       z     vdW  Elec       q    Type
REMARK                         _______ _______ _______ _____ _____    ______ ____
ROOT
ATOM      1  O   UNL     1       7.645   4.295  17.890  0.00  0.00    +0.000 OA
ATOM      2  C   UNL     1       6.492   4.714  17.825  0.00  0.00    +0.000 C 
ATOM      3  N   UNL     1       5.798   5.003  16.657  0.00  0.00    +0.000 N 
ATOM      4  H   UNL     1       4.907   5.479  16.746  0.00  0.00    +0.000 HD
ENDROOT
BRANCH   3   5
ATOM      5  C   UNL     1       6.268   4.798  15.342  0.00  0.00    +0.000 A 
ATOM      6  C   UNL     1       7.431   5.399  14.840  0.00  0.00    +0.000 A 
ATOM      7  C   UNL     1       7.820   5.204  13.512  0.00  0.00    +0.000 A 
ATOM      8  C   UNL     1       7.049   4.402  12.682  0.00  0.00    +0.000 A 
ATOM      9  F   UNL     1       7.406   4.243  11.401  0.00  0.00    +0.000 F 
ATOM     10  C   UNL     1       5.917   3.773  13.180  0.00  0.00    +0.000 A 
ATOM     11  F   UNL     1       5.173   2.994  12.381  0.00  0.00    +0.000 F 
ATOM     12  C   UNL     1       5.529   3.951  14.508  0.00  0.00    +0.000 A 
ENDBRANCH   3   5
BRANCH   2  13
ATOM     13  C   UNL     1       5.709   4.965  19.094  0.00  0.00    +0.000 C 
BRANCH  13  14
ATOM     14  N   UNL     1       4.658   3.984  19.252  0.00  0.00    +0.000 N 
ATOM     15  C   UNL     1       4.779   2.654  18.958  0.00  0.00    +0.000 A 
ATOM     16  N   UNL     1       3.654   2.009  19.165  0.00  0.00    +0.000 NA
ATOM     17  C   UNL     1       2.776   2.956  19.628  0.00  0.00    +0.000 A 
ATOM     18  C   UNL     1       1.433   2.814  20.006  0.00  0.00    +0.000 A 
ATOM     19  C   UNL     1       0.736   3.941  20.457  0.00  0.00    +0.000 A 
ATOM     20  C   UNL     1       1.365   5.183  20.535  0.00  0.00    +0.000 A 
ATOM     21  C   UNL     1       2.703   5.349  20.158  0.00  0.00    +0.000 A 
ATOM     22  C   UNL     1       3.381   4.211  19.704  0.00  0.00    +0.000 A 
ENDBRANCH  13  14
ENDBRANCH   2  13
TORSDOF 3
ENDMDL
MODEL 8
REMARK VINA RESULT:      -7.3      4.224      7.482
REMARK  Name = 
REMARK  3 active torsions:
REMARK  status: ('A' for Active; 'I' for Inactive)
REMARK    1  A    between atoms: C_2  and  C_3
REMARK    2  A    between atoms: C_3  and  N_4
REMARK    3  A    between atoms: N_13  and  C_14
REMARK                            x       y       z     vdW  Elec       q    Type
REMARK                         _______ _______ _______ _____ _____    ______ ____
ROOT
ATOM      1  O   UNL     1       1.893   5.111  18.008  0.00  0.00    +0.000 OA
ATOM      2  C   UNL     1       2.744   5.164  18.893  0.00  0.00    +0.000 C 
ATOM      3  N   UNL     1       2.940   6.224  19.767  0.00  0.00    +0.000 N 
ATOM      4  H   UNL     1       3.768   6.203  20.353  0.00  0.00    +0.000 HD
ENDROOT
BRANCH   3   5
ATOM      5  C   UNL     1       2.154   7.393  19.842  0.00  0.00    +0.000 A 
ATOM      6  C   UNL     1       1.400   7.742  20.971  0.00  0.00    +0.000 A 
ATOM      7  C   UNL     1       0.596   8.885  20.970  0.00  0.00    +0.000 A 
ATOM      8  C   UNL     1       0.547   9.687  19.839  0.00  0.00    +0.000 A 
ATOM      9  F   UNL     1      -0.249  10.764  19.828  0.00  0.00    +0.000 F 
ATOM     10  C   UNL     1       1.318   9.371  18.729  0.00  0.00    +0.000 A 
ATOM     11  F   UNL     1       1.275  10.148  17.637  0.00  0.00    +0.000 F 
ATOM     12  C   UNL     1       2.134   8.240  18.727  0.00  0.00    +0.000 A 
ENDBRANCH   3   5
BRANCH   2  13
ATOM     13  C   UNL     1       3.697   4.006  19.092  0.00  0.00    +0.000 C 
BRANCH  13  14
ATOM     14  N   UNL     1       5.012   4.330  18.587  0.00  0.00    +0.000 N 
ATOM     15  C   UNL     1       6.079   4.695  19.361  0.00  0.00    +0.000 A 
ATOM     16  N   UNL     1       7.135   4.966  18.630  0.00  0.00    +0.000 NA
ATOM     17  C   UNL     1       6.742   4.751  17.333  0.00  0.00    +0.000 A 
ATOM     18  C   UNL     1       7.476   4.889  16.147  0.00  0.00    +0.000 A 
ATOM     19  C   UNL     1       6.850   4.602  14.928  0.00  0.00    +0.000 A 
ATOM     20  C   UNL     1       5.521   4.182  14.892  0.00  0.00    +0.000 A 
ATOM     21  C   UNL     1       4.768   4.042  16.065  0.00  0.00    +0.000 A 
ATOM     22  C   UNL     1       5.411   4.339  17.272  0.00  0.00    +0.000 A 
ENDBRANCH  13  14
ENDBRANCH   2  13
TORSDOF 3
ENDMDL
MODEL 9
REMARK VINA RESULT:      -7.3      1.376      2.453
REMARK  Name = 
REMARK  3 active torsions:
REMARK  status: ('A' for Active; 'I' for Inactive)
REMARK    1  A    between atoms: C_2  and  C_3
REMARK    2  A    between atoms: C_3  and  N_4
REMARK    3  A    between atoms: N_13  and  C_14
REMARK                            x       y       z     vdW  Elec       q    Type
REMARK                         _______ _______ _______ _____ _____    ______ ____
ROOT
ATOM      1  O   UNL     1       4.679   6.156  16.651  0.00  0.00    +0.000 OA
ATOM      2  C   UNL     1       5.374   5.307  17.205  0.00  0.00    +0.000 C 
ATOM      3  N   UNL     1       6.269   4.455  16.574  0.00  0.00    +0.000 N 
ATOM      4  H   UNL     1       6.671   3.704  17.125  0.00  0.00    +0.000 HD
ENDROOT
BRANCH   3   5
ATOM      5  C   UNL     1       6.592   4.461  15.200  0.00  0.00    +0.000 A 
ATOM      6  C   UNL     1       7.619   5.244  14.655  0.00  0.00    +0.000 A 
ATOM      7  C   UNL     1       7.859   5.252  13.278  0.00  0.00    +0.000 A 
ATOM      8  C   UNL     1       7.075   4.471  12.441  0.00  0.00    +0.000 A 
ATOM      9  F   UNL     1       7.285   4.505  11.119  0.00  0.00    +0.000 F 
ATOM     10  C   UNL     1       6.080   3.664  12.974  0.00  0.00    +0.000 A 
ATOM     11  F   UNL     1       5.324   2.905  12.167  0.00  0.00    +0.000 F 
ATOM     12  C   UNL     1       5.842   3.639  14.349  0.00  0.00    +0.000 A 
ENDBRANCH   3   5
BRANCH   2  13
ATOM     13  C   UNL     1       5.286   5.121  18.703  0.00  0.00    +0.000 C 
BRANCH  13  14
ATOM     14  N   UNL     1       3.908   5.016  19.128  0.00  0.00    +0.000 N 
ATOM     15  C   UNL     1       3.226   5.979  19.818  0.00  0.00    +0.000 A 
ATOM     16  N   UNL     1       2.004   5.596  20.103  0.00  0.00    +0.000 NA
ATOM     17  C   UNL     1       1.883   4.342  19.560  0.00  0.00    +0.000 A 
ATOM     18  C   UNL     1       0.784   3.472  19.567  0.00  0.00    +0.000 A 
ATOM     19  C   UNL     1       0.901   2.230  18.932  0.00  0.00    +0.000 A 
ATOM     20  C   UNL     1       2.089   1.864  18.298  0.00  0.00    +0.000 A 
ATOM     21  C   UNL     1       3.200   2.715  18.283  0.00  0.00    +0.000 A 
ATOM     22  C   UNL     1       3.064   3.950  18.929  0.00  0.00    +0.000 A 
ENDBRANCH  13  14
ENDBRANCH   2  13
TORSDOF 3
ENDMDL
