MODEL 1
REMARK VINA RESULT:      -6.9      0.000      0.000
REMARK  Name = 
REMARK  9 active torsions:
REMARK  status: ('A' for Active; 'I' for Inactive)
REMARK    1  A    between atoms: C_1  and  C_2
REMARK    2  A    between atoms: C_2  and  O_3
REMARK    3  A    between atoms: O_3  and  C_4
REMARK    4  A    between atoms: C_11  and  O_12
REMARK    5  A    between atoms: O_12  and  C_13
REMARK    6  A    between atoms: C_16  and  C_17
REMARK    7  A    between atoms: C_17  and  C_18
REMARK    8  A    between atoms: C_17  and  N_19
REMARK    9  A    between atoms: C_20  and  C_21
REMARK                            x       y       z     vdW  Elec       q    Type
REMARK                         _______ _______ _______ _____ _____    ______ ____
ROOT
ATOM      1  C   UNL     1       1.066  11.047  19.030  0.00  0.00    +0.000 A 
ATOM      2  C   UNL     1       2.006  10.574  18.150  0.00  0.00    +0.000 A 
ATOM      3  N   UNL     1       2.407   9.289  18.092  0.00  0.00    +0.000 NA
ATOM      4  C   UNL     1       1.875   8.422  18.968  0.00  0.00    +0.000 A 
ATOM      5  N   UNL     1       2.266   7.108  18.882  0.00  0.00    +0.000 N 
ATOM      6  C   UNL     1       2.239   6.253  20.058  0.00  0.00    +0.000 C 
ATOM      7  C   UNL     1       3.584   5.528  20.011  0.00  0.00    +0.000 C 
ATOM      8  C   UNL     1       3.872   5.422  18.514  0.00  0.00    +0.000 C 
ATOM      9  C   UNL     1       3.397   6.793  18.016  0.00  0.00    +0.000 C 
ATOM     10  N   UNL     1       0.964   8.787  19.885  0.00  0.00    +0.000 NA
ATOM     11  C   UNL     1       0.578  10.086  19.887  0.00  0.00    +0.000 A 
ENDROOT
BRANCH   1  12
ATOM     12  O   UNL     1       0.589  12.318  19.127  0.00  0.00    +0.000 OA
BRANCH  12  14
ATOM     13  C   UNL     1       1.805  14.322  18.604  0.00  0.00    +0.000 C 
ATOM     14  C   UNL     1       1.507  13.276  19.660  0.00  0.00    +0.000 C 
ENDBRANCH  12  14
ENDBRANCH   1  12
BRANCH   8  15
ATOM     15  O   UNL     1       5.262   5.274  18.244  0.00  0.00    +0.000 OA
BRANCH  15  16
ATOM     16  C   UNL     1       5.649   4.968  16.971  0.00  0.00    +0.000 A 
ATOM     17  C   UNL     1       6.766   5.467  16.307  0.00  0.00    +0.000 A 
ATOM     18  C   UNL     1       7.039   5.076  14.993  0.00  0.00    +0.000 A 
ATOM     19  C   UNL     1       6.195   4.187  14.315  0.00  0.00    +0.000 A 
ATOM     20  C   UNL     1       5.080   3.678  14.994  0.00  0.00    +0.000 A 
ATOM     21  C   UNL     1       4.813   4.065  16.310  0.00  0.00    +0.000 A 
BRANCH  19  22
ATOM     22  C   UNL     1       6.494   3.822  12.873  0.00  0.00    +0.000 C 
ATOM     23  C   UNL     1       7.564   4.743  12.285  0.00  0.00    +0.000 C 
BRANCH  22  24
ATOM     24  N   UNL     1       5.276   3.842  12.083  0.00  0.00    +0.000 N 
ATOM     25  C   UNL     1       4.847   2.745  11.375  0.00  0.00    +0.000 C 
ATOM     26  C   UNL     1       3.584   2.973  10.587  0.00  0.00    +0.000 C 
ATOM     27  O   UNL     1       5.432   1.667  11.366  0.00  0.00    +0.000 OA
ATOM     28  H   UNL     1       4.769   4.712  12.008  0.00  0.00    +0.000 HD
ENDBRANCH  22  24
ENDBRANCH  19  22
ENDBRANCH  15  16
ENDBRANCH   8  15
TORSDOF 6
ENDMDL
MODEL 2
REMARK VINA RESULT:      -6.8      4.583      7.189
REMARK  Name = 
REMARK  9 active torsions:
REMARK  status: ('A' for Active; 'I' for Inactive)
REMARK    1  A    between atoms: C_1  and  C_2
REMARK    2  A    between atoms: C_2  and  O_3
REMARK    3  A    between atoms: O_3  and  C_4
REMARK    4  A    between atoms: C_11  and  O_12
REMARK    5  A    between atoms: O_12  and  C_13
REMARK    6  A    between atoms: C_16  and  C_17
REMARK    7  A    between atoms: C_17  and  C_18
REMARK    8  A    between atoms: C_17  and  N_19
REMARK    9  A    between atoms: C_20  and  C_21
REMARK                            x       y       z     vdW  Elec       q    Type
REMARK                         _______ _______ _______ _____ _____    ______ ____
ROOT
ATOM      1  C   UNL     1      -5.494  13.505  22.057  0.00  0.00    +0.000 A 
ATOM      2  C   UNL     1      -4.260  13.261  22.605  0.00  0.00    +0.000 A 
ATOM      3  N   UNL     1      -3.192  12.838  21.902  0.00  0.00    +0.000 NA
ATOM      4  C   UNL     1      -3.349  12.616  20.587  0.00  0.00    +0.000 A 
ATOM      5  N   UNL     1      -2.248  12.215  19.871  0.00  0.00    +0.000 N 
ATOM      6  C   UNL     1      -2.403  11.415  18.667  0.00  0.00    +0.000 C 
ATOM      7  C   UNL     1      -1.355  10.313  18.825  0.00  0.00    +0.000 C 
ATOM      8  C   UNL     1      -0.244  10.998  19.621  0.00  0.00    +0.000 C 
ATOM      9  C   UNL     1      -1.057  11.830  20.621  0.00  0.00    +0.000 C 
ATOM     10  N   UNL     1      -4.521  12.803  19.958  0.00  0.00    +0.000 NA
ATOM     11  C   UNL     1      -5.559  13.250  20.705  0.00  0.00    +0.000 A 
ENDROOT
BRANCH   1  12
ATOM     12  O   UNL     1      -6.607  13.961  22.694  0.00  0.00    +0.000 OA
BRANCH  12  14
ATOM     13  C   UNL     1      -6.430  16.337  22.993  0.00  0.00    +0.000 C 
ATOM     14  C   UNL     1      -6.378  14.982  23.669  0.00  0.00    +0.000 C 
ENDBRANCH  12  14
ENDBRANCH   1  12
BRANCH   8  15
ATOM     15  O   UNL     1       0.565  10.063  20.327  0.00  0.00    +0.000 OA
BRANCH  15  16
ATOM     16  C   UNL     1       1.302   9.167  19.608  0.00  0.00    +0.000 A 
ATOM     17  C   UNL     1       1.753   9.332  18.302  0.00  0.00    +0.000 A 
ATOM     18  C   UNL     1       2.493   8.322  17.678  0.00  0.00    +0.000 A 
ATOM     19  C   UNL     1       2.786   7.125  18.346  0.00  0.00    +0.000 A 
ATOM     20  C   UNL     1       2.340   6.972  19.666  0.00  0.00    +0.000 A 
ATOM     21  C   UNL     1       1.607   7.986  20.289  0.00  0.00    +0.000 A 
BRANCH  19  22
ATOM     22  C   UNL     1       3.548   6.031  17.623  0.00  0.00    +0.000 C 
ATOM     23  C   UNL     1       3.057   4.647  18.049  0.00  0.00    +0.000 C 
BRANCH  22  24
ATOM     24  N   UNL     1       4.977   6.183  17.837  0.00  0.00    +0.000 N 
ATOM     25  C   UNL     1       5.831   6.553  16.827  0.00  0.00    +0.000 C 
ATOM     26  C   UNL     1       7.279   6.621  17.235  0.00  0.00    +0.000 C 
ATOM     27  O   UNL     1       5.467   6.805  15.683  0.00  0.00    +0.000 OA
ATOM     28  H   UNL     1       5.352   5.947  18.744  0.00  0.00    +0.000 HD
ENDBRANCH  22  24
ENDBRANCH  19  22
ENDBRANCH  15  16
ENDBRANCH   8  15
TORSDOF 6
ENDMDL
MODEL 3
REMARK VINA RESULT:      -6.8      4.296     11.677
REMARK  Name = 
REMARK  9 active torsions:
REMARK  status: ('A' for Active; 'I' for Inactive)
REMARK    1  A    between atoms: C_1  and  C_2
REMARK    2  A    between atoms: C_2  and  O_3
REMARK    3  A    between atoms: O_3  and  C_4
REMARK    4  A    between atoms: C_11  and  O_12
REMARK    5  A    between atoms: O_12  and  C_13
REMARK    6  A    between atoms: C_16  and  C_17
REMARK    7  A    between atoms: C_17  and  C_18
REMARK    8  A    between atoms: C_17  and  N_19
REMARK    9  A    between atoms: C_20  and  C_21
REMARK                            x       y       z     vdW  Elec       q    Type
REMARK                         _______ _______ _______ _____ _____    ______ ____
ROOT
ATOM      1  C   UNL     1       4.213   5.562  18.444  0.00  0.00    +0.000 A 
ATOM      2  C   UNL     1       3.399   5.855  19.509  0.00  0.00    +0.000 A 
ATOM      3  N   UNL     1       2.570   6.916  19.557  0.00  0.00    +0.000 NA
ATOM      4  C   UNL     1       2.558   7.755  18.509  0.00  0.00    +0.000 A 
ATOM      5  N   UNL     1       1.689   8.817  18.551  0.00  0.00    +0.000 N 
ATOM      6  C   UNL     1       1.984  10.041  17.824  0.00  0.00    +0.000 C 
ATOM      7  C   UNL     1       1.679  11.147  18.835  0.00  0.00    +0.000 C 
ATOM      8  C   UNL     1       0.554  10.549  19.679  0.00  0.00    +0.000 C 
ATOM      9  C   UNL     1       1.020   9.094  19.818  0.00  0.00    +0.000 C 
ATOM     10  N   UNL     1       3.332   7.570  17.427  0.00  0.00    +0.000 NA
ATOM     11  C   UNL     1       4.132   6.476  17.418  0.00  0.00    +0.000 A 
ENDROOT
BRANCH   1  12
ATOM     12  O   UNL     1       5.049   4.496  18.311  0.00  0.00    +0.000 OA
BRANCH  12  14
ATOM     13  C   UNL     1       7.130   4.453  17.113  0.00  0.00    +0.000 C 
ATOM     14  C   UNL     1       6.443   4.796  18.420  0.00  0.00    +0.000 C 
ENDBRANCH  12  14
ENDBRANCH   1  12
BRANCH   8  15
ATOM     15  O   UNL     1       0.474  11.147  20.968  0.00  0.00    +0.000 OA
BRANCH  15  16
ATOM     16  C   UNL     1      -0.744  11.576  21.413  0.00  0.00    +0.000 A 
ATOM     17  C   UNL     1      -1.721  12.211  20.651  0.00  0.00    +0.000 A 
ATOM     18  C   UNL     1      -2.925  12.610  21.240  0.00  0.00    +0.000 A 
ATOM     19  C   UNL     1      -3.170  12.389  22.601  0.00  0.00    +0.000 A 
ATOM     20  C   UNL     1      -2.187  11.737  23.359  0.00  0.00    +0.000 A 
ATOM     21  C   UNL     1      -0.988  11.333  22.766  0.00  0.00    +0.000 A 
BRANCH  19  22
ATOM     22  C   UNL     1      -4.467  12.879  23.218  0.00  0.00    +0.000 C 
ATOM     23  C   UNL     1      -4.525  12.548  24.710  0.00  0.00    +0.000 C 
BRANCH  22  24
ATOM     24  N   UNL     1      -5.606  12.331  22.502  0.00  0.00    +0.000 N 
ATOM     25  C   UNL     1      -6.736  13.071  22.252  0.00  0.00    +0.000 C 
ATOM     26  C   UNL     1      -7.822  12.318  21.531  0.00  0.00    +0.000 C 
ATOM     27  O   UNL     1      -6.871  14.244  22.585  0.00  0.00    +0.000 OA
ATOM     28  H   UNL     1      -5.581  11.356  22.239  0.00  0.00    +0.000 HD
ENDBRANCH  22  24
ENDBRANCH  19  22
ENDBRANCH  15  16
ENDBRANCH   8  15
TORSDOF 6
ENDMDL
MODEL 4
REMARK VINA RESULT:      -6.7      2.823      4.256
REMARK  Name = 
REMARK  9 active torsions:
REMARK  status: ('A' for Active; 'I' for Inactive)
REMARK    1  A    between atoms: C_1  and  C_2
REMARK    2  A    between atoms: C_2  and  O_3
REMARK    3  A    between atoms: O_3  and  C_4
REMARK    4  A    between atoms: C_11  and  O_12
REMARK    5  A    between atoms: O_12  and  C_13
REMARK    6  A    between atoms: C_16  and  C_17
REMARK    7  A    between atoms: C_17  and  C_18
REMARK    8  A    between atoms: C_17  and  N_19
REMARK    9  A    between atoms: C_20  and  C_21
REMARK                            x       y       z     vdW  Elec       q    Type
REMARK                         _______ _______ _______ _____ _____    ______ ____
ROOT
ATOM      1  C   UNL     1      -1.348  11.684  22.845  0.00  0.00    +0.000 A 
ATOM      2  C   UNL     1      -0.908  10.386  22.895  0.00  0.00    +0.000 A 
ATOM      3  N   UNL     1      -0.062   9.840  22.000  0.00  0.00    +0.000 NA
ATOM      4  C   UNL     1       0.357  10.606  20.980  0.00  0.00    +0.000 A 
ATOM      5  N   UNL     1       1.244  10.052  20.089  0.00  0.00    +0.000 N 
ATOM      6  C   UNL     1       1.298  10.523  18.714  0.00  0.00    +0.000 C 
ATOM      7  C   UNL     1       1.338   9.235  17.891  0.00  0.00    +0.000 C 
ATOM      8  C   UNL     1       2.075   8.258  18.805  0.00  0.00    +0.000 C 
ATOM      9  C   UNL     1       1.479   8.615  20.173  0.00  0.00    +0.000 C 
ATOM     10  N   UNL     1      -0.031  11.883  20.827  0.00  0.00    +0.000 NA
ATOM     11  C   UNL     1      -0.865  12.391  21.766  0.00  0.00    +0.000 A 
ENDROOT
BRANCH   1  12
ATOM     12  O   UNL     1      -2.174  12.313  23.726  0.00  0.00    +0.000 OA
BRANCH  12  14
ATOM     13  C   UNL     1      -3.562  13.885  22.557  0.00  0.00    +0.000 C 
ATOM     14  C   UNL     1      -3.505  12.542  23.259  0.00  0.00    +0.000 C 
ENDBRANCH  12  14
ENDBRANCH   1  12
BRANCH   8  15
ATOM     15  O   UNL     1       1.774   6.901  18.495  0.00  0.00    +0.000 OA
BRANCH  15  16
ATOM     16  C   UNL     1       2.781   6.097  18.044  0.00  0.00    +0.000 A 
ATOM     17  C   UNL     1       2.669   4.755  17.694  0.00  0.00    +0.000 A 
ATOM     18  C   UNL     1       3.790   4.044  17.256  0.00  0.00    +0.000 A 
ATOM     19  C   UNL     1       5.046   4.659  17.171  0.00  0.00    +0.000 A 
ATOM     20  C   UNL     1       5.149   6.015  17.512  0.00  0.00    +0.000 A 
ATOM     21  C   UNL     1       4.025   6.725  17.942  0.00  0.00    +0.000 A 
BRANCH  19  22
ATOM     22  C   UNL     1       6.251   3.845  16.739  0.00  0.00    +0.000 C 
ATOM     23  C   UNL     1       7.546   4.637  16.931  0.00  0.00    +0.000 C 
BRANCH  22  24
ATOM     24  N   UNL     1       6.095   3.399  15.365  0.00  0.00    +0.000 N 
ATOM     25  C   UNL     1       6.355   4.221  14.296  0.00  0.00    +0.000 C 
ATOM     26  C   UNL     1       6.099   3.590  12.954  0.00  0.00    +0.000 C 
ATOM     27  O   UNL     1       6.756   5.375  14.405  0.00  0.00    +0.000 OA
ATOM     28  H   UNL     1       5.724   2.473  15.203  0.00  0.00    +0.000 HD
ENDBRANCH  22  24
ENDBRANCH  19  22
ENDBRANCH  15  16
ENDBRANCH   8  15
TORSDOF 6
ENDMDL
MODEL 5
REMARK VINA RESULT:      -6.6      2.709     10.210
REMARK  Name = 
REMARK  9 active torsions:
REMARK  status: ('A' for Active; 'I' for Inactive)
REMARK    1  A    between atoms: C_1  and  C_2
REMARK    2  A    between atoms: C_2  and  O_3
REMARK    3  A    between atoms: O_3  and  C_4
REMARK    4  A    between atoms: C_11  and  O_12
REMARK    5  A    between atoms: O_12  and  C_13
REMARK    6  A    between atoms: C_16  and  C_17
REMARK    7  A    between atoms: C_17  and  C_18
REMARK    8  A    between atoms: C_17  and  N_19
REMARK    9  A    between atoms: C_20  and  C_21
REMARK                            x       y       z     vdW  Elec       q    Type
REMARK                         _______ _______ _______ _____ _____    ______ ____
ROOT
ATOM      1  C   UNL     1       5.508   5.736  16.048  0.00  0.00    +0.000 A 
ATOM      2  C   UNL     1       4.684   6.794  16.338  0.00  0.00    +0.000 A 
ATOM      3  N   UNL     1       4.002   6.925  17.493  0.00  0.00    +0.000 NA
ATOM      4  C   UNL     1       4.113   5.948  18.406  0.00  0.00    +0.000 A 
ATOM      5  N   UNL     1       3.440   6.104  19.593  0.00  0.00    +0.000 N 
ATOM      6  C   UNL     1       3.013   4.942  20.356  0.00  0.00    +0.000 C 
ATOM      7  C   UNL     1       1.571   5.271  20.744  0.00  0.00    +0.000 C 
ATOM      8  C   UNL     1       1.581   6.794  20.869  0.00  0.00    +0.000 C 
ATOM      9  C   UNL     1       2.469   7.190  19.683  0.00  0.00    +0.000 C 
ATOM     10  N   UNL     1       4.877   4.860  18.212  0.00  0.00    +0.000 NA
ATOM     11  C   UNL     1       5.560   4.786  17.044  0.00  0.00    +0.000 A 
ENDROOT
BRANCH   1  12
ATOM     12  O   UNL     1       6.251   5.551  14.923  0.00  0.00    +0.000 OA
BRANCH  12  14
ATOM     13  C   UNL     1       5.996   3.756  13.348  0.00  0.00    +0.000 C 
ATOM     14  C   UNL     1       6.625   4.197  14.654  0.00  0.00    +0.000 C 
ENDBRANCH  12  14
ENDBRANCH   1  12
BRANCH   8  15
ATOM     15  O   UNL     1       0.284   7.356  20.700  0.00  0.00    +0.000 OA
BRANCH  15  16
ATOM     16  C   UNL     1       0.037   8.593  21.221  0.00  0.00    +0.000 A 
ATOM     17  C   UNL     1      -0.055   8.913  22.573  0.00  0.00    +0.000 A 
ATOM     18  C   UNL     1      -0.327  10.226  22.970  0.00  0.00    +0.000 A 
ATOM     19  C   UNL     1      -0.521  11.240  22.022  0.00  0.00    +0.000 A 
ATOM     20  C   UNL     1      -0.413  10.913  20.664  0.00  0.00    +0.000 A 
ATOM     21  C   UNL     1      -0.134   9.601  20.270  0.00  0.00    +0.000 A 
BRANCH  19  22
ATOM     22  C   UNL     1      -0.862  12.644  22.487  0.00  0.00    +0.000 C 
ATOM     23  C   UNL     1      -2.311  12.724  22.970  0.00  0.00    +0.000 C 
BRANCH  22  24
ATOM     24  N   UNL     1      -0.594  13.605  21.432  0.00  0.00    +0.000 N 
ATOM     25  C   UNL     1       0.523  14.405  21.439  0.00  0.00    +0.000 C 
ATOM     26  C   UNL     1       0.606  15.363  20.281  0.00  0.00    +0.000 C 
ATOM     27  O   UNL     1       1.387  14.361  22.309  0.00  0.00    +0.000 OA
ATOM     28  H   UNL     1      -1.287  13.726  20.708  0.00  0.00    +0.000 HD
ENDBRANCH  22  24
ENDBRANCH  19  22
ENDBRANCH  15  16
ENDBRANCH   8  15
TORSDOF 6
ENDMDL
MODEL 6
REMARK VINA RESULT:      -6.6      3.839      6.207
REMARK  Name = 
REMARK  9 active torsions:
REMARK  status: ('A' for Active; 'I' for Inactive)
REMARK    1  A    between atoms: C_1  and  C_2
REMARK    2  A    between atoms: C_2  and  O_3
REMARK    3  A    between atoms: O_3  and  C_4
REMARK    4  A    between atoms: C_11  and  O_12
REMARK    5  A    between atoms: O_12  and  C_13
REMARK    6  A    between atoms: C_16  and  C_17
REMARK    7  A    between atoms: C_17  and  C_18
REMARK    8  A    between atoms: C_17  and  N_19
REMARK    9  A    between atoms: C_20  and  C_21
REMARK                            x       y       z     vdW  Elec       q    Type
REMARK                         _______ _______ _______ _____ _____    ______ ____
ROOT
ATOM      1  C   UNL     1      -3.125  13.218  22.727  0.00  0.00    +0.000 A 
ATOM      2  C   UNL     1      -2.566  12.137  23.361  0.00  0.00    +0.000 A 
ATOM      3  N   UNL     1      -1.574  11.387  22.841  0.00  0.00    +0.000 NA
ATOM      4  C   UNL     1      -1.122  11.699  21.616  0.00  0.00    +0.000 A 
ATOM      5  N   UNL     1      -0.090  10.949  21.107  0.00  0.00    +0.000 N 
ATOM      6  C   UNL     1       0.070  10.796  19.670  0.00  0.00    +0.000 C 
ATOM      7  C   UNL     1       0.331   9.300  19.490  0.00  0.00    +0.000 C 
ATOM      8  C   UNL     1       1.055   8.914  20.779  0.00  0.00    +0.000 C 
ATOM      9  C   UNL     1       0.277   9.730  21.820  0.00  0.00    +0.000 C 
ATOM     10  N   UNL     1      -1.616  12.724  20.903  0.00  0.00    +0.000 NA
ATOM     11  C   UNL     1      -2.597  13.461  21.478  0.00  0.00    +0.000 A 
ENDROOT
BRANCH   1  12
ATOM     12  O   UNL     1      -4.102  14.039  23.199  0.00  0.00    +0.000 OA
BRANCH  12  14
ATOM     13  C   UNL     1      -6.456  13.654  23.475  0.00  0.00    +0.000 C 
ATOM     14  C   UNL     1      -5.345  13.976  22.495  0.00  0.00    +0.000 C 
ENDBRANCH  12  14
ENDBRANCH   1  12
BRANCH   8  15
ATOM     15  O   UNL     1       0.927   7.527  21.072  0.00  0.00    +0.000 OA
BRANCH  15  16
ATOM     16  C   UNL     1       1.759   6.649  20.438  0.00  0.00    +0.000 A 
ATOM     17  C   UNL     1       2.712   6.967  19.474  0.00  0.00    +0.000 A 
ATOM     18  C   UNL     1       3.492   5.962  18.894  0.00  0.00    +0.000 A 
ATOM     19  C   UNL     1       3.326   4.620  19.260  0.00  0.00    +0.000 A 
ATOM     20  C   UNL     1       2.374   4.308  20.240  0.00  0.00    +0.000 A 
ATOM     21  C   UNL     1       1.601   5.316  20.823  0.00  0.00    +0.000 A 
BRANCH  19  22
ATOM     22  C   UNL     1       4.155   3.549  18.575  0.00  0.00    +0.000 C 
ATOM     23  C   UNL     1       3.906   2.177  19.204  0.00  0.00    +0.000 C 
BRANCH  22  24
ATOM     24  N   UNL     1       5.563   3.904  18.603  0.00  0.00    +0.000 N 
ATOM     25  C   UNL     1       6.224   4.358  17.488  0.00  0.00    +0.000 C 
ATOM     26  C   UNL     1       7.687   4.638  17.707  0.00  0.00    +0.000 C 
ATOM     27  O   UNL     1       5.689   4.522  16.397  0.00  0.00    +0.000 OA
ATOM     28  H   UNL     1       6.078   3.751  19.459  0.00  0.00    +0.000 HD
ENDBRANCH  22  24
ENDBRANCH  19  22
ENDBRANCH  15  16
ENDBRANCH   8  15
TORSDOF 6
ENDMDL
MODEL 7
REMARK VINA RESULT:      -6.6      4.469     11.011
REMARK  Name = 
REMARK  9 active torsions:
REMARK  status: ('A' for Active; 'I' for Inactive)
REMARK    1  A    between atoms: C_1  and  C_2
REMARK    2  A    between atoms: C_2  and  O_3
REMARK    3  A    between atoms: O_3  and  C_4
REMARK    4  A    between atoms: C_11  and  O_12
REMARK    5  A    between atoms: O_12  and  C_13
REMARK    6  A    between atoms: C_16  and  C_17
REMARK    7  A    between atoms: C_17  and  C_18
REMARK    8  A    between atoms: C_17  and  N_19
REMARK    9  A    between atoms: C_20  and  C_21
REMARK                            x       y       z     vdW  Elec       q    Type
REMARK                         _______ _______ _______ _____ _____    ______ ____
ROOT
ATOM      1  C   UNL     1       3.300   5.402  18.589  0.00  0.00    +0.000 A 
ATOM      2  C   UNL     1       3.177   6.512  17.792  0.00  0.00    +0.000 A 
ATOM      3  N   UNL     1       2.589   7.660  18.181  0.00  0.00    +0.000 NA
ATOM      4  C   UNL     1       2.067   7.714  19.416  0.00  0.00    +0.000 A 
ATOM      5  N   UNL     1       1.497   8.898  19.817  0.00  0.00    +0.000 N 
ATOM      6  C   UNL     1       0.438   8.906  20.814  0.00  0.00    +0.000 C 
ATOM      7  C   UNL     1      -0.608   9.853  20.226  0.00  0.00    +0.000 C 
ATOM      8  C   UNL     1       0.232  10.849  19.426  0.00  0.00    +0.000 C 
ATOM      9  C   UNL     1       1.285   9.924  18.802  0.00  0.00    +0.000 C 
ATOM     10  N   UNL     1       2.114   6.676  20.267  0.00  0.00    +0.000 NA
ATOM     11  C   UNL     1       2.735   5.552  19.836  0.00  0.00    +0.000 A 
ENDROOT
BRANCH   1  12
ATOM     12  O   UNL     1       3.905   4.223  18.278  0.00  0.00    +0.000 OA
BRANCH  12  14
ATOM     13  C   UNL     1       5.366   4.028  16.383  0.00  0.00    +0.000 C 
ATOM     14  C   UNL     1       5.270   4.327  17.866  0.00  0.00    +0.000 C 
ENDBRANCH  12  14
ENDBRANCH   1  12
BRANCH   8  15
ATOM     15  O   UNL     1      -0.520  11.478  18.394  0.00  0.00    +0.000 OA
BRANCH  15  16
ATOM     16  C   UNL     1      -1.871  11.597  18.552  0.00  0.00    +0.000 A 
ATOM     17  C   UNL     1      -2.522  12.321  19.547  0.00  0.00    +0.000 A 
ATOM     18  C   UNL     1      -3.920  12.347  19.599  0.00  0.00    +0.000 A 
ATOM     19  C   UNL     1      -4.689  11.642  18.664  0.00  0.00    +0.000 A 
ATOM     20  C   UNL     1      -4.026  10.926  17.658  0.00  0.00    +0.000 A 
ATOM     21  C   UNL     1      -2.630  10.908  17.604  0.00  0.00    +0.000 A 
BRANCH  19  22
ATOM     22  C   UNL     1      -6.202  11.653  18.780  0.00  0.00    +0.000 C 
ATOM     23  C   UNL     1      -6.839  12.354  17.578  0.00  0.00    +0.000 C 
BRANCH  22  24
ATOM     24  N   UNL     1      -6.610  12.261  20.034  0.00  0.00    +0.000 N 
ATOM     25  C   UNL     1      -7.200  11.535  21.039  0.00  0.00    +0.000 C 
ATOM     26  C   UNL     1      -7.585  12.349  22.246  0.00  0.00    +0.000 C 
ATOM     27  O   UNL     1      -7.410  10.328  20.977  0.00  0.00    +0.000 OA
ATOM     28  H   UNL     1      -6.508  13.261  20.136  0.00  0.00    +0.000 HD
ENDBRANCH  22  24
ENDBRANCH  19  22
ENDBRANCH  15  16
ENDBRANCH   8  15
TORSDOF 6
ENDMDL
MODEL 8
REMARK VINA RESULT:      -6.6      4.219     11.629
REMARK  Name = 
REMARK  9 active torsions:
REMARK  status: ('A' for Active; 'I' for Inactive)
REMARK    1  A    between atoms: C_1  and  C_2
REMARK    2  A    between atoms: C_2  and  O_3
REMARK    3  A    between atoms: O_3  and  C_4
REMARK    4  A    between atoms: C_11  and  O_12
REMARK    5  A    between atoms: O_12  and  C_13
REMARK    6  A    between atoms: C_16  and  C_17
REMARK    7  A    between atoms: C_17  and  C_18
REMARK    8  A    between atoms: C_17  and  N_19
REMARK    9  A    between atoms: C_20  and  C_21
REMARK                            x       y       z     vdW  Elec       q    Type
REMARK                         _______ _______ _______ _____ _____    ______ ____
ROOT
ATOM      1  C   UNL     1       3.320   4.981  19.537  0.00  0.00    +0.000 A 
ATOM      2  C   UNL     1       2.520   5.659  20.422  0.00  0.00    +0.000 A 
ATOM      3  N   UNL     1       1.936   6.844  20.157  0.00  0.00    +0.000 NA
ATOM      4  C   UNL     1       2.171   7.411  18.964  0.00  0.00    +0.000 A 
ATOM      5  N   UNL     1       1.547   8.603  18.690  0.00  0.00    +0.000 N 
ATOM      6  C   UNL     1       2.144   9.551  17.762  0.00  0.00    +0.000 C 
ATOM      7  C   UNL     1       2.017  10.894  18.483  0.00  0.00    +0.000 C 
ATOM      8  C   UNL     1       0.738  10.731  19.303  0.00  0.00    +0.000 C 
ATOM      9  C   UNL     1       0.872   9.283  19.791  0.00  0.00    +0.000 C 
ATOM     10  N   UNL     1       2.956   6.841  18.035  0.00  0.00    +0.000 NA
ATOM     11  C   UNL     1       3.503   5.640  18.341  0.00  0.00    +0.000 A 
ENDROOT
BRANCH   1  12
ATOM     12  O   UNL     1       3.917   3.772  19.720  0.00  0.00    +0.000 OA
BRANCH  12  14
ATOM     13  C   UNL     1       2.991   1.964  18.439  0.00  0.00    +0.000 C 
ATOM     14  C   UNL     1       4.098   2.995  18.533  0.00  0.00    +0.000 C 
ENDBRANCH  12  14
ENDBRANCH   1  12
BRANCH   8  15
ATOM     15  O   UNL     1       0.703  11.608  20.424  0.00  0.00    +0.000 OA
BRANCH  15  16
ATOM     16  C   UNL     1      -0.508  11.916  20.973  0.00  0.00    +0.000 A 
ATOM     17  C   UNL     1      -1.593  12.482  20.308  0.00  0.00    +0.000 A 
ATOM     18  C   UNL     1      -2.777  12.759  20.999  0.00  0.00    +0.000 A 
ATOM     19  C   UNL     1      -2.895  12.483  22.368  0.00  0.00    +0.000 A 
ATOM     20  C   UNL     1      -1.803  11.901  23.027  0.00  0.00    +0.000 A 
ATOM     21  C   UNL     1      -0.623  11.619  22.332  0.00  0.00    +0.000 A 
BRANCH  19  22
ATOM     22  C   UNL     1      -4.177  12.841  23.096  0.00  0.00    +0.000 C 
ATOM     23  C   UNL     1      -4.165  12.297  24.526  0.00  0.00    +0.000 C 
BRANCH  22  24
ATOM     24  N   UNL     1      -5.330  12.368  22.352  0.00  0.00    +0.000 N 
ATOM     25  C   UNL     1      -6.484  13.106  22.247  0.00  0.00    +0.000 C 
ATOM     26  C   UNL     1      -7.581  12.432  21.467  0.00  0.00    +0.000 C 
ATOM     27  O   UNL     1      -6.630  14.218  22.744  0.00  0.00    +0.000 OA
ATOM     28  H   UNL     1      -5.296  11.440  21.954  0.00  0.00    +0.000 HD
ENDBRANCH  22  24
ENDBRANCH  19  22
ENDBRANCH  15  16
ENDBRANCH   8  15
TORSDOF 6
ENDMDL
MODEL 9
REMARK VINA RESULT:      -6.5      2.968      5.030
REMARK  Name = 
REMARK  9 active torsions:
REMARK  status: ('A' for Active; 'I' for Inactive)
REMARK    1  A    between atoms: C_1  and  C_2
REMARK    2  A    between atoms: C_2  and  O_3
REMARK    3  A    between atoms: O_3  and  C_4
REMARK    4  A    between atoms: C_11  and  O_12
REMARK    5  A    between atoms: O_12  and  C_13
REMARK    6  A    between atoms: C_16  and  C_17
REMARK    7  A    between atoms: C_17  and  C_18
REMARK    8  A    between atoms: C_17  and  N_19
REMARK    9  A    between atoms: C_20  and  C_21
REMARK                            x       y       z     vdW  Elec       q    Type
REMARK                         _______ _______ _______ _____ _____    ______ ____
ROOT
ATOM      1  C   UNL     1       2.153  14.730  18.265  0.00  0.00    +0.000 A 
ATOM      2  C   UNL     1       2.763  13.510  18.113  0.00  0.00    +0.000 A 
ATOM      3  N   UNL     1       2.213  12.339  18.487  0.00  0.00    +0.000 NA
ATOM      4  C   UNL     1       1.003  12.367  19.069  0.00  0.00    +0.000 A 
ATOM      5  N   UNL     1       0.436  11.166  19.419  0.00  0.00    +0.000 N 
ATOM      6  C   UNL     1      -0.513  11.093  20.518  0.00  0.00    +0.000 C 
ATOM      7  C   UNL     1      -0.052   9.872  21.315  0.00  0.00    +0.000 C 
ATOM      8  C   UNL     1       0.546   8.961  20.244  0.00  0.00    +0.000 C 
ATOM      9  C   UNL     1       1.277   9.976  19.356  0.00  0.00    +0.000 C 
ATOM     10  N   UNL     1       0.331  13.510  19.283  0.00  0.00    +0.000 NA
ATOM     11  C   UNL     1       0.918  14.659  18.869  0.00  0.00    +0.000 A 
ENDROOT
BRANCH   1  12
ATOM     12  O   UNL     1       2.630  15.947  17.885  0.00  0.00    +0.000 OA
BRANCH  12  14
ATOM     13  C   UNL     1       1.551  17.943  17.100  0.00  0.00    +0.000 C 
ATOM     14  C   UNL     1       1.846  17.067  18.302  0.00  0.00    +0.000 C 
ENDBRANCH  12  14
ENDBRANCH   1  12
BRANCH   8  15
ATOM     15  O   UNL     1       1.488   8.040  20.786  0.00  0.00    +0.000 OA
BRANCH  15  16
ATOM     16  C   UNL     1       2.045   7.113  19.954  0.00  0.00    +0.000 A 
ATOM     17  C   UNL     1       2.643   7.366  18.723  0.00  0.00    +0.000 A 
ATOM     18  C   UNL     1       3.166   6.314  17.964  0.00  0.00    +0.000 A 
ATOM     19  C   UNL     1       3.092   4.991  18.418  0.00  0.00    +0.000 A 
ATOM     20  C   UNL     1       2.501   4.745  19.665  0.00  0.00    +0.000 A 
ATOM     21  C   UNL     1       1.985   5.799  20.424  0.00  0.00    +0.000 A 
BRANCH  19  22
ATOM     22  C   UNL     1       3.626   3.869  17.546  0.00  0.00    +0.000 C 
ATOM     23  C   UNL     1       3.150   2.507  18.053  0.00  0.00    +0.000 C 
BRANCH  22  24
ATOM     24  N   UNL     1       5.074   3.936  17.466  0.00  0.00    +0.000 N 
ATOM     25  C   UNL     1       5.726   4.308  16.316  0.00  0.00    +0.000 C 
ATOM     26  C   UNL     1       7.228   4.280  16.419  0.00  0.00    +0.000 C 
ATOM     27  O   UNL     1       5.153   4.632  15.282  0.00  0.00    +0.000 OA
ATOM     28  H   UNL     1       5.612   3.638  18.268  0.00  0.00    +0.000 HD
ENDBRANCH  22  24
ENDBRANCH  19  22
ENDBRANCH  15  16
ENDBRANCH   8  15
TORSDOF 6
ENDMDL
