MODEL 1
REMARK VINA RESULT:      -9.1      0.000      0.000
REMARK  Name = 
REMARK  5 active torsions:
REMARK  status: ('A' for Active; 'I' for Inactive)
REMARK    1  A    between atoms: C_1  and  C_2
REMARK    2  A    between atoms: C_5  and  C_6
REMARK    3  A    between atoms: C_6  and  N_7
REMARK    4  A    between atoms: C_18  and  C_19
REMARK    5  A    between atoms: C_23  and  C_24
REMARK                            x       y       z     vdW  Elec       q    Type
REMARK                         _______ _______ _______ _____ _____    ______ ____
ROOT
ATOM      1  N   UNL     1       4.994   6.596  16.723  0.00  0.00    +0.000 N 
ATOM      2  C   UNL     1       4.216   6.137  17.758  0.00  0.00    +0.000 A 
ATOM      3  N   UNL     1       4.392   4.953  18.285  0.00  0.00    +0.000 NA
ATOM      4  C   UNL     1       3.550   4.523  19.340  0.00  0.00    +0.000 A 
ATOM      5  C   UNL     1       3.710   3.221  19.815  0.00  0.00    +0.000 A 
ATOM      6  C   UNL     1       2.915   2.750  20.859  0.00  0.00    +0.000 A 
ATOM      7  C   UNL     1       1.953   3.583  21.436  0.00  0.00    +0.000 A 
ATOM      8  C   UNL     1       1.771   4.886  20.963  0.00  0.00    +0.000 A 
ATOM      9  C   UNL     1       2.560   5.354  19.913  0.00  0.00    +0.000 A 
ATOM     10  C   UNL     1       2.417   6.672  19.332  0.00  0.00    +0.000 A 
ATOM     11  N   UNL     1       1.643   7.702  19.609  0.00  0.00    +0.000 NA
ATOM     12  C   UNL     1       2.016   8.651  18.664  0.00  0.00    +0.000 A 
ATOM     13  N   UNL     1       2.983   8.238  17.822  0.00  0.00    +0.000 NA
ATOM     14  N   UNL     1       3.217   6.989  18.272  0.00  0.00    +0.000 N 
ATOM     15  H   UNL     1       4.647   7.364  16.156  0.00  0.00    +0.000 HD
ENDROOT
BRANCH  12  16
ATOM     16  C   UNL     1       1.382   9.968  18.570  0.00  0.00    +0.000 A 
ATOM     17  C   UNL     1       2.151  11.129  18.420  0.00  0.00    +0.000 A 
ATOM     18  C   UNL     1       1.540  12.387  18.401  0.00  0.00    +0.000 A 
ATOM     19  C   UNL     1       0.155  12.500  18.530  0.00  0.00    +0.000 A 
ATOM     20  C   UNL     1      -0.635  11.354  18.661  0.00  0.00    +0.000 A 
ATOM     21  C   UNL     1      -2.123  11.453  18.822  0.00  0.00    +0.000 C 
ATOM     22  C   UNL     1      -0.015  10.095  18.667  0.00  0.00    +0.000 A 
ENDBRANCH  12  16
BRANCH   1  23
ATOM     23  C   UNL     1       6.303   6.067  16.431  0.00  0.00    +0.000 C 
BRANCH  23  28
ATOM     24  C   UNL     1       6.252   2.774  11.619  0.00  0.00    +0.000 C 
ATOM     25  C   UNL     1       6.263   3.650  12.836  0.00  0.00    +0.000 A 
ATOM     26  C   UNL     1       7.316   4.540  13.077  0.00  0.00    +0.000 A 
ATOM     27  C   UNL     1       7.321   5.332  14.228  0.00  0.00    +0.000 A 
ATOM     28  C   UNL     1       6.273   5.255  15.158  0.00  0.00    +0.000 A 
ATOM     29  C   UNL     1       5.222   4.363  14.911  0.00  0.00    +0.000 A 
ATOM     30  C   UNL     1       5.217   3.569  13.762  0.00  0.00    +0.000 A 
ENDBRANCH  23  28
ENDBRANCH   1  23
TORSDOF 3
ENDMDL
MODEL 2
REMARK VINA RESULT:      -9.0      0.292      1.292
REMARK  Name = 
REMARK  5 active torsions:
REMARK  status: ('A' for Active; 'I' for Inactive)
REMARK    1  A    between atoms: C_1  and  C_2
REMARK    2  A    between atoms: C_5  and  C_6
REMARK    3  A    between atoms: C_6  and  N_7
REMARK    4  A    between atoms: C_18  and  C_19
REMARK    5  A    between atoms: C_23  and  C_24
REMARK                            x       y       z     vdW  Elec       q    Type
REMARK                         _______ _______ _______ _____ _____    ______ ____
ROOT
ATOM      1  N   UNL     1       4.963   6.599  16.758  0.00  0.00    +0.000 N 
ATOM      2  C   UNL     1       4.208   6.120  17.801  0.00  0.00    +0.000 A 
ATOM      3  N   UNL     1       4.407   4.934  18.314  0.00  0.00    +0.000 NA
ATOM      4  C   UNL     1       3.589   4.483  19.378  0.00  0.00    +0.000 A 
ATOM      5  C   UNL     1       3.774   3.179  19.837  0.00  0.00    +0.000 A 
ATOM      6  C   UNL     1       3.002   2.688  20.890  0.00  0.00    +0.000 A 
ATOM      7  C   UNL     1       2.039   3.502  21.490  0.00  0.00    +0.000 A 
ATOM      8  C   UNL     1       1.832   4.808  21.033  0.00  0.00    +0.000 A 
ATOM      9  C   UNL     1       2.598   5.295  19.975  0.00  0.00    +0.000 A 
ATOM     10  C   UNL     1       2.428   6.618  19.410  0.00  0.00    +0.000 A 
ATOM     11  N   UNL     1       1.646   7.634  19.709  0.00  0.00    +0.000 NA
ATOM     12  C   UNL     1       1.991   8.597  18.767  0.00  0.00    +0.000 A 
ATOM     13  N   UNL     1       2.950   8.204  17.905  0.00  0.00    +0.000 NA
ATOM     14  N   UNL     1       3.207   6.955  18.339  0.00  0.00    +0.000 N 
ATOM     15  H   UNL     1       4.597   7.368  16.204  0.00  0.00    +0.000 HD
ENDROOT
BRANCH  12  16
ATOM     16  C   UNL     1       1.339   9.907  18.696  0.00  0.00    +0.000 A 
ATOM     17  C   UNL     1      -0.057  10.020  18.743  0.00  0.00    +0.000 A 
ATOM     18  C   UNL     1      -0.672  11.268  18.605  0.00  0.00    +0.000 A 
ATOM     19  C   UNL     1       0.099  12.417  18.418  0.00  0.00    +0.000 A 
ATOM     20  C   UNL     1       1.494  12.331  18.385  0.00  0.00    +0.000 A 
ATOM     21  C   UNL     1       2.340  13.549  18.165  0.00  0.00    +0.000 C 
ATOM     22  C   UNL     1       2.103  11.076  18.538  0.00  0.00    +0.000 A 
ENDBRANCH  12  16
BRANCH   1  23
ATOM     23  C   UNL     1       6.274   6.090  16.440  0.00  0.00    +0.000 C 
BRANCH  23  28
ATOM     24  C   UNL     1       6.155   2.780  11.640  0.00  0.00    +0.000 C 
ATOM     25  C   UNL     1       6.187   3.660  12.854  0.00  0.00    +0.000 A 
ATOM     26  C   UNL     1       7.286   4.481  13.124  0.00  0.00    +0.000 A 
ATOM     27  C   UNL     1       7.308   5.279  14.272  0.00  0.00    +0.000 A 
ATOM     28  C   UNL     1       6.230   5.274  15.169  0.00  0.00    +0.000 A 
ATOM     29  C   UNL     1       5.131   4.451  14.894  0.00  0.00    +0.000 A 
ATOM     30  C   UNL     1       5.110   3.653  13.748  0.00  0.00    +0.000 A 
ENDBRANCH  23  28
ENDBRANCH   1  23
TORSDOF 3
ENDMDL
MODEL 3
REMARK VINA RESULT:      -9.0      1.135      1.222
REMARK  Name = 
REMARK  5 active torsions:
REMARK  status: ('A' for Active; 'I' for Inactive)
REMARK    1  A    between atoms: C_1  and  C_2
REMARK    2  A    between atoms: C_5  and  C_6
REMARK    3  A    between atoms: C_6  and  N_7
REMARK    4  A    between atoms: C_18  and  C_19
REMARK    5  A    between atoms: C_23  and  C_24
REMARK                            x       y       z     vdW  Elec       q    Type
REMARK                         _______ _______ _______ _____ _____    ______ ____
ROOT
ATOM      1  N   UNL     1       4.920   6.510  17.229  0.00  0.00    +0.000 N 
ATOM      2  C   UNL     1       4.235   5.862  18.228  0.00  0.00    +0.000 A 
ATOM      3  N   UNL     1       4.539   4.647  18.602  0.00  0.00    +0.000 NA
ATOM      4  C   UNL     1       3.789   4.019  19.626  0.00  0.00    +0.000 A 
ATOM      5  C   UNL     1       4.086   2.692  19.934  0.00  0.00    +0.000 A 
ATOM      6  C   UNL     1       3.385   2.030  20.942  0.00  0.00    +0.000 A 
ATOM      7  C   UNL     1       2.382   2.695  21.649  0.00  0.00    +0.000 A 
ATOM      8  C   UNL     1       2.062   4.022  21.344  0.00  0.00    +0.000 A 
ATOM      9  C   UNL     1       2.757   4.681  20.331  0.00  0.00    +0.000 A 
ATOM     10  C   UNL     1       2.471   6.039  19.919  0.00  0.00    +0.000 A 
ATOM     11  N   UNL     1       1.622   6.953  20.345  0.00  0.00    +0.000 NA
ATOM     12  C   UNL     1       1.866   8.036  19.509  0.00  0.00    +0.000 A 
ATOM     13  N   UNL     1       2.825   7.817  18.589  0.00  0.00    +0.000 NA
ATOM     14  N   UNL     1       3.190   6.552  18.877  0.00  0.00    +0.000 N 
ATOM     15  H   UNL     1       4.480   7.303  16.772  0.00  0.00    +0.000 HD
ENDROOT
BRANCH  12  16
ATOM     16  C   UNL     1       1.113   9.290  19.597  0.00  0.00    +0.000 A 
ATOM     17  C   UNL     1       1.030  10.159  18.501  0.00  0.00    +0.000 A 
ATOM     18  C   UNL     1       0.368  11.386  18.617  0.00  0.00    +0.000 A 
ATOM     19  C   UNL     1      -0.219  11.758  19.828  0.00  0.00    +0.000 A 
ATOM     20  C   UNL     1      -0.164  10.900  20.930  0.00  0.00    +0.000 A 
ATOM     21  C   UNL     1      -0.769  11.288  22.246  0.00  0.00    +0.000 C 
ATOM     22  C   UNL     1       0.491   9.665  20.801  0.00  0.00    +0.000 A 
ENDBRANCH  12  16
BRANCH   1  23
ATOM     23  C   UNL     1       6.256   6.144  16.829  0.00  0.00    +0.000 C 
BRANCH  23  28
ATOM     24  C   UNL     1       6.190   2.997  11.920  0.00  0.00    +0.000 C 
ATOM     25  C   UNL     1       6.208   3.835  13.163  0.00  0.00    +0.000 A 
ATOM     26  C   UNL     1       7.301   4.653  13.468  0.00  0.00    +0.000 A 
ATOM     27  C   UNL     1       7.310   5.411  14.642  0.00  0.00    +0.000 A 
ATOM     28  C   UNL     1       6.225   5.371  15.531  0.00  0.00    +0.000 A 
ATOM     29  C   UNL     1       5.133   4.552  15.220  0.00  0.00    +0.000 A 
ATOM     30  C   UNL     1       5.124   3.793  14.048  0.00  0.00    +0.000 A 
ENDBRANCH  23  28
ENDBRANCH   1  23
TORSDOF 3
ENDMDL
MODEL 4
REMARK VINA RESULT:      -8.8      0.748      1.169
REMARK  Name = 
REMARK  5 active torsions:
REMARK  status: ('A' for Active; 'I' for Inactive)
REMARK    1  A    between atoms: C_1  and  C_2
REMARK    2  A    between atoms: C_5  and  C_6
REMARK    3  A    between atoms: C_6  and  N_7
REMARK    4  A    between atoms: C_18  and  C_19
REMARK    5  A    between atoms: C_23  and  C_24
REMARK                            x       y       z     vdW  Elec       q    Type
REMARK                         _______ _______ _______ _____ _____    ______ ____
ROOT
ATOM      1  N   UNL     1       4.889   6.685  17.053  0.00  0.00    +0.000 N 
ATOM      2  C   UNL     1       4.167   6.097  18.063  0.00  0.00    +0.000 A 
ATOM      3  N   UNL     1       4.460   4.908  18.524  0.00  0.00    +0.000 NA
ATOM      4  C   UNL     1       3.673   4.343  19.556  0.00  0.00    +0.000 A 
ATOM      5  C   UNL     1       3.961   3.038  19.957  0.00  0.00    +0.000 A 
ATOM      6  C   UNL     1       3.224   2.437  20.978  0.00  0.00    +0.000 A 
ATOM      7  C   UNL     1       2.193   3.141  21.603  0.00  0.00    +0.000 A 
ATOM      8  C   UNL     1       1.882   4.445  21.203  0.00  0.00    +0.000 A 
ATOM      9  C   UNL     1       2.613   5.042  20.178  0.00  0.00    +0.000 A 
ATOM     10  C   UNL     1       2.340   6.371  19.672  0.00  0.00    +0.000 A 
ATOM     11  N   UNL     1       1.474   7.305  20.008  0.00  0.00    +0.000 NA
ATOM     12  C   UNL     1       1.746   8.336  19.116  0.00  0.00    +0.000 A 
ATOM     13  N   UNL     1       2.740   8.064  18.248  0.00  0.00    +0.000 NA
ATOM     14  N   UNL     1       3.097   6.821  18.628  0.00  0.00    +0.000 N 
ATOM     15  H   UNL     1       4.465   7.445  16.530  0.00  0.00    +0.000 HD
ENDROOT
BRANCH  12  16
ATOM     16  C   UNL     1       0.988   9.589  19.097  0.00  0.00    +0.000 A 
ATOM     17  C   UNL     1       1.289  10.627  19.989  0.00  0.00    +0.000 A 
ATOM     18  C   UNL     1       0.515  11.791  20.009  0.00  0.00    +0.000 A 
ATOM     19  C   UNL     1      -0.567  11.933  19.139  0.00  0.00    +0.000 A 
ATOM     20  C   UNL     1      -0.876  10.920  18.227  0.00  0.00    +0.000 A 
ATOM     21  C   UNL     1      -2.046  11.042  17.298  0.00  0.00    +0.000 C 
ATOM     22  C   UNL     1      -0.085   9.759  18.205  0.00  0.00    +0.000 A 
ENDBRANCH  12  16
BRANCH   1  23
ATOM     23  C   UNL     1       6.239   6.300  16.726  0.00  0.00    +0.000 C 
BRANCH  23  28
ATOM     24  C   UNL     1       6.263   3.037  11.894  0.00  0.00    +0.000 C 
ATOM     25  C   UNL     1       6.254   3.847  13.156  0.00  0.00    +0.000 A 
ATOM     26  C   UNL     1       5.139   3.858  14.000  0.00  0.00    +0.000 A 
ATOM     27  C   UNL     1       5.139   4.636  15.161  0.00  0.00    +0.000 A 
ATOM     28  C   UNL     1       6.256   5.414  15.503  0.00  0.00    +0.000 A 
ATOM     29  C   UNL     1       7.370   5.398  14.655  0.00  0.00    +0.000 A 
ATOM     30  C   UNL     1       7.369   4.622  13.494  0.00  0.00    +0.000 A 
ENDBRANCH  23  28
ENDBRANCH   1  23
TORSDOF 3
ENDMDL
MODEL 5
REMARK VINA RESULT:      -8.8      4.025      7.376
REMARK  Name = 
REMARK  5 active torsions:
REMARK  status: ('A' for Active; 'I' for Inactive)
REMARK    1  A    between atoms: C_1  and  C_2
REMARK    2  A    between atoms: C_5  and  C_6
REMARK    3  A    between atoms: C_6  and  N_7
REMARK    4  A    between atoms: C_18  and  C_19
REMARK    5  A    between atoms: C_23  and  C_24
REMARK                            x       y       z     vdW  Elec       q    Type
REMARK                         _______ _______ _______ _____ _____    ______ ____
ROOT
ATOM      1  N   UNL     1       7.080   6.762  18.142  0.00  0.00    +0.000 N 
ATOM      2  C   UNL     1       6.770   6.038  17.016  0.00  0.00    +0.000 A 
ATOM      3  N   UNL     1       7.513   6.078  15.941  0.00  0.00    +0.000 NA
ATOM      4  C   UNL     1       7.138   5.325  14.801  0.00  0.00    +0.000 A 
ATOM      5  C   UNL     1       7.906   5.463  13.645  0.00  0.00    +0.000 A 
ATOM      6  C   UNL     1       7.588   4.735  12.498  0.00  0.00    +0.000 A 
ATOM      7  C   UNL     1       6.497   3.863  12.504  0.00  0.00    +0.000 A 
ATOM      8  C   UNL     1       5.709   3.723  13.651  0.00  0.00    +0.000 A 
ATOM      9  C   UNL     1       6.023   4.456  14.794  0.00  0.00    +0.000 A 
ATOM     10  C   UNL     1       5.244   4.405  16.014  0.00  0.00    +0.000 A 
ATOM     11  N   UNL     1       4.183   3.715  16.380  0.00  0.00    +0.000 NA
ATOM     12  C   UNL     1       3.947   4.148  17.680  0.00  0.00    +0.000 A 
ATOM     13  N   UNL     1       4.820   5.077  18.117  0.00  0.00    +0.000 NA
ATOM     14  N   UNL     1       5.627   5.214  17.046  0.00  0.00    +0.000 N 
ATOM     15  H   UNL     1       6.348   6.941  18.823  0.00  0.00    +0.000 HD
ENDROOT
BRANCH  12  16
ATOM     16  C   UNL     1       2.823   3.665  18.485  0.00  0.00    +0.000 A 
ATOM     17  C   UNL     1       1.580   3.395  17.898  0.00  0.00    +0.000 A 
ATOM     18  C   UNL     1       0.494   3.001  18.686  0.00  0.00    +0.000 A 
ATOM     19  C   UNL     1       0.637   2.872  20.069  0.00  0.00    +0.000 A 
ATOM     20  C   UNL     1       1.872   3.119  20.675  0.00  0.00    +0.000 A 
ATOM     21  C   UNL     1       2.043   3.007  22.161  0.00  0.00    +0.000 C 
ATOM     22  C   UNL     1       2.960   3.502  19.874  0.00  0.00    +0.000 A 
ENDBRANCH  12  16
BRANCH   1  23
ATOM     23  C   UNL     1       8.409   7.243  18.425  0.00  0.00    +0.000 C 
BRANCH  23  28
ATOM     24  C   UNL     1       8.684  13.055  18.035  0.00  0.00    +0.000 C 
ATOM     25  C   UNL     1       8.602  11.563  18.168  0.00  0.00    +0.000 A 
ATOM     26  C   UNL     1       9.379  10.877  19.107  0.00  0.00    +0.000 A 
ATOM     27  C   UNL     1       9.305   9.484  19.202  0.00  0.00    +0.000 A 
ATOM     28  C   UNL     1       8.450   8.752  18.365  0.00  0.00    +0.000 A 
ATOM     29  C   UNL     1       7.673   9.444  17.428  0.00  0.00    +0.000 A 
ATOM     30  C   UNL     1       7.748  10.836  17.331  0.00  0.00    +0.000 A 
ENDBRANCH  23  28
ENDBRANCH   1  23
TORSDOF 3
ENDMDL
MODEL 6
REMARK VINA RESULT:      -8.5      1.186      7.711
REMARK  Name = 
REMARK  5 active torsions:
REMARK  status: ('A' for Active; 'I' for Inactive)
REMARK    1  A    between atoms: C_1  and  C_2
REMARK    2  A    between atoms: C_5  and  C_6
REMARK    3  A    between atoms: C_6  and  N_7
REMARK    4  A    between atoms: C_18  and  C_19
REMARK    5  A    between atoms: C_23  and  C_24
REMARK                            x       y       z     vdW  Elec       q    Type
REMARK                         _______ _______ _______ _____ _____    ______ ____
ROOT
ATOM      1  N   UNL     1       2.442   7.841  17.793  0.00  0.00    +0.000 N 
ATOM      2  C   UNL     1       2.718   6.618  18.354  0.00  0.00    +0.000 A 
ATOM      3  N   UNL     1       2.144   6.217  19.459  0.00  0.00    +0.000 NA
ATOM      4  C   UNL     1       2.478   4.953  20.004  0.00  0.00    +0.000 A 
ATOM      5  C   UNL     1       1.913   4.599  21.229  0.00  0.00    +0.000 A 
ATOM      6  C   UNL     1       2.198   3.361  21.804  0.00  0.00    +0.000 A 
ATOM      7  C   UNL     1       3.053   2.469  21.154  0.00  0.00    +0.000 A 
ATOM      8  C   UNL     1       3.638   2.813  19.931  0.00  0.00    +0.000 A 
ATOM      9  C   UNL     1       3.359   4.053  19.360  0.00  0.00    +0.000 A 
ATOM     10  C   UNL     1       3.947   4.512  18.119  0.00  0.00    +0.000 A 
ATOM     11  N   UNL     1       4.769   3.958  17.250  0.00  0.00    +0.000 NA
ATOM     12  C   UNL     1       4.932   4.945  16.285  0.00  0.00    +0.000 A 
ATOM     13  N   UNL     1       4.245   6.078  16.534  0.00  0.00    +0.000 NA
ATOM     14  N   UNL     1       3.631   5.771  17.694  0.00  0.00    +0.000 N 
ATOM     15  H   UNL     1       3.105   8.234  17.131  0.00  0.00    +0.000 HD
ENDROOT
BRANCH  12  16
ATOM     16  C   UNL     1       5.808   4.780  15.122  0.00  0.00    +0.000 A 
ATOM     17  C   UNL     1       6.989   5.522  14.999  0.00  0.00    +0.000 A 
ATOM     18  C   UNL     1       7.782   5.408  13.852  0.00  0.00    +0.000 A 
ATOM     19  C   UNL     1       7.405   4.550  12.817  0.00  0.00    +0.000 A 
ATOM     20  C   UNL     1       6.239   3.786  12.925  0.00  0.00    +0.000 A 
ATOM     21  C   UNL     1       5.804   2.875  11.817  0.00  0.00    +0.000 C 
ATOM     22  C   UNL     1       5.456   3.898  14.085  0.00  0.00    +0.000 A 
ENDBRANCH  12  16
BRANCH   1  23
ATOM     23  C   UNL     1       1.232   8.575  18.067  0.00  0.00    +0.000 C 
BRANCH  23  28
ATOM     24  C   UNL     1       2.307  14.096  19.605  0.00  0.00    +0.000 C 
ATOM     25  C   UNL     1       2.064  12.669  19.214  0.00  0.00    +0.000 A 
ATOM     26  C   UNL     1       2.644  12.127  18.062  0.00  0.00    +0.000 A 
ATOM     27  C   UNL     1       2.390  10.801  17.700  0.00  0.00    +0.000 A 
ATOM     28  C   UNL     1       1.555   9.991  18.485  0.00  0.00    +0.000 A 
ATOM     29  C   UNL     1       0.979  10.538  19.637  0.00  0.00    +0.000 A 
ATOM     30  C   UNL     1       1.231  11.864  19.998  0.00  0.00    +0.000 A 
ENDBRANCH  23  28
ENDBRANCH   1  23
TORSDOF 3
ENDMDL
MODEL 7
REMARK VINA RESULT:      -8.4      7.296      9.258
REMARK  Name = 
REMARK  5 active torsions:
REMARK  status: ('A' for Active; 'I' for Inactive)
REMARK    1  A    between atoms: C_1  and  C_2
REMARK    2  A    between atoms: C_5  and  C_6
REMARK    3  A    between atoms: C_6  and  N_7
REMARK    4  A    between atoms: C_18  and  C_19
REMARK    5  A    between atoms: C_23  and  C_24
REMARK                            x       y       z     vdW  Elec       q    Type
REMARK                         _______ _______ _______ _____ _____    ______ ____
ROOT
ATOM      1  N   UNL     1       8.741   9.677  18.914  0.00  0.00    +0.000 N 
ATOM      2  C   UNL     1       9.433  10.861  18.989  0.00  0.00    +0.000 A 
ATOM      3  N   UNL     1      10.119  11.329  17.978  0.00  0.00    +0.000 NA
ATOM      4  C   UNL     1      10.827  12.547  18.115  0.00  0.00    +0.000 A 
ATOM      5  C   UNL     1      11.618  12.967  17.045  0.00  0.00    +0.000 A 
ATOM      6  C   UNL     1      12.327  14.165  17.123  0.00  0.00    +0.000 A 
ATOM      7  C   UNL     1      12.248  14.952  18.274  0.00  0.00    +0.000 A 
ATOM      8  C   UNL     1      11.469  14.539  19.360  0.00  0.00    +0.000 A 
ATOM      9  C   UNL     1      10.767  13.337  19.286  0.00  0.00    +0.000 A 
ATOM     10  C   UNL     1       9.968  12.811  20.372  0.00  0.00    +0.000 A 
ATOM     11  N   UNL     1       9.665  13.263  21.572  0.00  0.00    +0.000 NA
ATOM     12  C   UNL     1       8.860  12.261  22.102  0.00  0.00    +0.000 A 
ATOM     13  N   UNL     1       8.665  11.216  21.273  0.00  0.00    +0.000 NA
ATOM     14  N   UNL     1       9.372  11.595  20.191  0.00  0.00    +0.000 N 
ATOM     15  H   UNL     1       8.483   9.208  19.777  0.00  0.00    +0.000 HD
ENDROOT
BRANCH  12  16
ATOM     16  C   UNL     1       8.308  12.321  23.458  0.00  0.00    +0.000 A 
ATOM     17  C   UNL     1       8.958  13.041  24.469  0.00  0.00    +0.000 A 
ATOM     18  C   UNL     1       8.460  13.035  25.776  0.00  0.00    +0.000 A 
ATOM     19  C   UNL     1       7.308  12.310  26.088  0.00  0.00    +0.000 A 
ATOM     20  C   UNL     1       6.632  11.600  25.092  0.00  0.00    +0.000 A 
ATOM     21  C   UNL     1       5.405  10.798  25.408  0.00  0.00    +0.000 C 
ATOM     22  C   UNL     1       7.132  11.622  23.780  0.00  0.00    +0.000 A 
ENDBRANCH  12  16
BRANCH   1  23
ATOM     23  C   UNL     1       8.326   9.087  17.665  0.00  0.00    +0.000 C 
BRANCH  23  28
ATOM     24  C   UNL     1       5.503   4.052  18.487  0.00  0.00    +0.000 C 
ATOM     25  C   UNL     1       6.202   5.364  18.290  0.00  0.00    +0.000 A 
ATOM     26  C   UNL     1       5.661   6.356  17.466  0.00  0.00    +0.000 A 
ATOM     27  C   UNL     1       6.337   7.564  17.277  0.00  0.00    +0.000 A 
ATOM     28  C   UNL     1       7.565   7.807  17.912  0.00  0.00    +0.000 A 
ATOM     29  C   UNL     1       8.101   6.811  18.737  0.00  0.00    +0.000 A 
ATOM     30  C   UNL     1       7.427   5.602  18.924  0.00  0.00    +0.000 A 
ENDBRANCH  23  28
ENDBRANCH   1  23
TORSDOF 3
ENDMDL
MODEL 8
REMARK VINA RESULT:      -8.3      7.510      9.530
REMARK  Name = 
REMARK  5 active torsions:
REMARK  status: ('A' for Active; 'I' for Inactive)
REMARK    1  A    between atoms: C_1  and  C_2
REMARK    2  A    between atoms: C_5  and  C_6
REMARK    3  A    between atoms: C_6  and  N_7
REMARK    4  A    between atoms: C_18  and  C_19
REMARK    5  A    between atoms: C_23  and  C_24
REMARK                            x       y       z     vdW  Elec       q    Type
REMARK                         _______ _______ _______ _____ _____    ______ ____
ROOT
ATOM      1  N   UNL     1       8.893   9.725  18.868  0.00  0.00    +0.000 N 
ATOM      2  C   UNL     1       9.548  10.930  18.956  0.00  0.00    +0.000 A 
ATOM      3  N   UNL     1      10.211  11.433  17.947  0.00  0.00    +0.000 NA
ATOM      4  C   UNL     1      10.883  12.671  18.097  0.00  0.00    +0.000 A 
ATOM      5  C   UNL     1      11.652  13.131  17.028  0.00  0.00    +0.000 A 
ATOM      6  C   UNL     1      12.325  14.349  17.118  0.00  0.00    +0.000 A 
ATOM      7  C   UNL     1      12.230  15.115  18.282  0.00  0.00    +0.000 A 
ATOM      8  C   UNL     1      11.473  14.663  19.368  0.00  0.00    +0.000 A 
ATOM      9  C   UNL     1      10.808  13.441  19.280  0.00  0.00    +0.000 A 
ATOM     10  C   UNL     1      10.034  12.874  20.365  0.00  0.00    +0.000 A 
ATOM     11  N   UNL     1       9.726  13.299  21.573  0.00  0.00    +0.000 NA
ATOM     12  C   UNL     1       8.956  12.265  22.094  0.00  0.00    +0.000 A 
ATOM     13  N   UNL     1       8.787  11.227  21.251  0.00  0.00    +0.000 NA
ATOM     14  N   UNL     1       9.474  11.644  20.169  0.00  0.00    +0.000 N 
ATOM     15  H   UNL     1       8.656   9.236  19.726  0.00  0.00    +0.000 HD
ENDROOT
BRANCH  12  16
ATOM     16  C   UNL     1       8.414  12.288  23.454  0.00  0.00    +0.000 A 
ATOM     17  C   UNL     1       7.296  11.516  23.797  0.00  0.00    +0.000 A 
ATOM     18  C   UNL     1       6.744  11.598  25.080  0.00  0.00    +0.000 A 
ATOM     19  C   UNL     1       7.302  12.451  26.034  0.00  0.00    +0.000 A 
ATOM     20  C   UNL     1       8.428  13.218  25.720  0.00  0.00    +0.000 A 
ATOM     21  C   UNL     1       9.031  14.156  26.723  0.00  0.00    +0.000 C 
ATOM     22  C   UNL     1       8.983  13.120  24.435  0.00  0.00    +0.000 A 
ENDBRANCH  12  16
BRANCH   1  23
ATOM     23  C   UNL     1       8.487   9.142  17.614  0.00  0.00    +0.000 C 
BRANCH  23  28
ATOM     24  C   UNL     1       5.628   4.123  18.413  0.00  0.00    +0.000 C 
ATOM     25  C   UNL     1       6.335   5.431  18.218  0.00  0.00    +0.000 A 
ATOM     26  C   UNL     1       5.881   6.366  17.282  0.00  0.00    +0.000 A 
ATOM     27  C   UNL     1       6.565   7.571  17.098  0.00  0.00    +0.000 A 
ATOM     28  C   UNL     1       7.712   7.867  17.850  0.00  0.00    +0.000 A 
ATOM     29  C   UNL     1       8.161   6.929  18.787  0.00  0.00    +0.000 A 
ATOM     30  C   UNL     1       7.479   5.724  18.970  0.00  0.00    +0.000 A 
ENDBRANCH  23  28
ENDBRANCH   1  23
TORSDOF 3
ENDMDL
MODEL 9
REMARK VINA RESULT:      -8.3      1.400      1.811
REMARK  Name = 
REMARK  5 active torsions:
REMARK  status: ('A' for Active; 'I' for Inactive)
REMARK    1  A    between atoms: C_1  and  C_2
REMARK    2  A    between atoms: C_5  and  C_6
REMARK    3  A    between atoms: C_6  and  N_7
REMARK    4  A    between atoms: C_18  and  C_19
REMARK    5  A    between atoms: C_23  and  C_24
REMARK                            x       y       z     vdW  Elec       q    Type
REMARK                         _______ _______ _______ _____ _____    ______ ____
ROOT
ATOM      1  N   UNL     1       4.609   7.031  17.843  0.00  0.00    +0.000 N 
ATOM      2  C   UNL     1       3.908   6.227  18.708  0.00  0.00    +0.000 A 
ATOM      3  N   UNL     1       4.236   4.978  18.915  0.00  0.00    +0.000 NA
ATOM      4  C   UNL     1       3.468   4.189  19.806  0.00  0.00    +0.000 A 
ATOM      5  C   UNL     1       3.796   2.839  19.931  0.00  0.00    +0.000 A 
ATOM      6  C   UNL     1       3.079   2.020  20.803  0.00  0.00    +0.000 A 
ATOM      7  C   UNL     1       2.029   2.549  21.556  0.00  0.00    +0.000 A 
ATOM      8  C   UNL     1       1.680   3.898  21.433  0.00  0.00    +0.000 A 
ATOM      9  C   UNL     1       2.391   4.715  20.555  0.00  0.00    +0.000 A 
ATOM     10  C   UNL     1       2.077   6.111  20.332  0.00  0.00    +0.000 A 
ATOM     11  N   UNL     1       1.185   6.930  20.850  0.00  0.00    +0.000 NA
ATOM     12  C   UNL     1       1.425   8.130  20.190  0.00  0.00    +0.000 A 
ATOM     13  N   UNL     1       2.425   8.071  19.289  0.00  0.00    +0.000 NA
ATOM     14  N   UNL     1       2.818   6.788  19.406  0.00  0.00    +0.000 N 
ATOM     15  H   UNL     1       4.162   7.871  17.487  0.00  0.00    +0.000 HD
ENDROOT
BRANCH  12  16
ATOM     16  C   UNL     1       0.631   9.338  20.427  0.00  0.00    +0.000 A 
ATOM     17  C   UNL     1       0.410   9.811  21.727  0.00  0.00    +0.000 A 
ATOM     18  C   UNL     1      -0.407  10.925  21.947  0.00  0.00    +0.000 A 
ATOM     19  C   UNL     1      -1.012  11.579  20.871  0.00  0.00    +0.000 A 
ATOM     20  C   UNL     1      -0.791  11.135  19.564  0.00  0.00    +0.000 A 
ATOM     21  C   UNL     1      -1.447  11.809  18.396  0.00  0.00    +0.000 C 
ATOM     22  C   UNL     1       0.040  10.024  19.352  0.00  0.00    +0.000 A 
ENDBRANCH  12  16
BRANCH   1  23
ATOM     23  C   UNL     1       5.970   6.762  17.449  0.00  0.00    +0.000 C 
BRANCH  23  28
ATOM     24  C   UNL     1       6.242   3.321  12.749  0.00  0.00    +0.000 C 
ATOM     25  C   UNL     1       6.140   4.193  13.965  0.00  0.00    +0.000 A 
ATOM     26  C   UNL     1       5.166   5.192  14.058  0.00  0.00    +0.000 A 
ATOM     27  C   UNL     1       5.099   6.010  15.190  0.00  0.00    +0.000 A 
ATOM     28  C   UNL     1       6.002   5.843  16.251  0.00  0.00    +0.000 A 
ATOM     29  C   UNL     1       6.974   4.840  16.153  0.00  0.00    +0.000 A 
ATOM     30  C   UNL     1       7.042   4.023  15.022  0.00  0.00    +0.000 A 
ENDBRANCH  23  28
ENDBRANCH   1  23
TORSDOF 3
ENDMDL
