MODEL 1
REMARK VINA RESULT:      -7.3      0.000      0.000
REMARK  Name = 
REMARK  9 active torsions:
REMARK  status: ('A' for Active; 'I' for Inactive)
REMARK    1  A    between atoms: C_1  and  C_2
REMARK    2  A    between atoms: C_2  and  O_3
REMARK    3  A    between atoms: C_2  and  C_15
REMARK    4  A    between atoms: O_3  and  C_4
REMARK    5  A    between atoms: C_7  and  C_8
REMARK    6  A    between atoms: C_8  and  C_9
REMARK    7  A    between atoms: C_9  and  C_10
REMARK    8  A    between atoms: C_10  and  O_12
REMARK    9  A    between atoms: C_17  and  C_18
REMARK                            x       y       z     vdW  Elec       q    Type
REMARK                         _______ _______ _______ _____ _____    ______ ____
ROOT
ATOM      1  O   UNL     1       7.517   5.072  16.942  0.00  0.00    +0.000 OA
ENDROOT
BRANCH   1   2
ATOM      2  C   UNL     1       7.074   4.636  15.722  0.00  0.00    +0.000 A 
ATOM      3  C   UNL     1       7.764   5.140  14.618  0.00  0.00    +0.000 A 
ATOM      4  C   UNL     1       7.361   4.816  13.318  0.00  0.00    +0.000 A 
ATOM      5  C   UNL     1       6.272   3.960  13.104  0.00  0.00    +0.000 A 
ATOM      6  C   UNL     1       5.601   3.438  14.215  0.00  0.00    +0.000 A 
ATOM      7  C   UNL     1       6.007   3.760  15.513  0.00  0.00    +0.000 A 
BRANCH   5   8
ATOM      8  C   UNL     1       5.809   3.611  11.710  0.00  0.00    +0.000 C 
BRANCH   8   9
ATOM      9  C   UNL     1       5.190   2.219  11.635  0.00  0.00    +0.000 C 
BRANCH   9  10
ATOM     10  C   UNL     1       6.208   1.186  11.223  0.00  0.00    +0.000 C 
ATOM     11  O   UNL     1       5.972   0.014  10.988  0.00  0.00    +0.000 OA
BRANCH  10  12
ATOM     12  O   UNL     1       7.457   1.705  11.137  0.00  0.00    +0.000 OA
ATOM     13  H   UNL     1       7.502   2.661  11.329  0.00  0.00    +0.000 HD
ENDBRANCH  10  12
ENDBRANCH   9  10
ENDBRANCH   8   9
ENDBRANCH   5   8
ENDBRANCH   1   2
BRANCH   1  15
ATOM     14  C   UNL     1       7.917   6.890  18.552  0.00  0.00    +0.000 C 
ATOM     15  C   UNL     1       7.090   6.376  17.369  0.00  0.00    +0.000 C 
BRANCH  15  16
ATOM     16  C   UNL     1       5.667   6.278  17.819  0.00  0.00    +0.000 A 
ATOM     17  N   UNL     1       5.161   5.495  18.748  0.00  0.00    +0.000 NA
ATOM     18  C   UNL     1       3.814   5.560  18.487  0.00  0.00    +0.000 A 
ATOM     19  N   UNL     1       3.484   6.399  17.492  0.00  0.00    +0.000 NA
ATOM     20  O   UNL     1       4.715   6.876  17.044  0.00  0.00    +0.000 OA
BRANCH  18  21
ATOM     21  C   UNL     1       2.813   4.700  19.189  0.00  0.00    +0.000 A 
ATOM     22  C   UNL     1       2.722   4.571  20.562  0.00  0.00    +0.000 A 
ATOM     23  C   UNL     1       1.649   3.717  20.952  0.00  0.00    +0.000 A 
ATOM     24  C   UNL     1       0.967   3.216  19.865  0.00  0.00    +0.000 A 
ATOM     25  S   UNL     1       1.609   3.791  18.387  0.00  0.00    +0.000 S 
ENDBRANCH  18  21
ENDBRANCH  15  16
ENDBRANCH   1  15
TORSDOF 8
ENDMDL
MODEL 2
REMARK VINA RESULT:      -7.1      2.860      7.385
REMARK  Name = 
REMARK  9 active torsions:
REMARK  status: ('A' for Active; 'I' for Inactive)
REMARK    1  A    between atoms: C_1  and  C_2
REMARK    2  A    between atoms: C_2  and  O_3
REMARK    3  A    between atoms: C_2  and  C_15
REMARK    4  A    between atoms: O_3  and  C_4
REMARK    5  A    between atoms: C_7  and  C_8
REMARK    6  A    between atoms: C_8  and  C_9
REMARK    7  A    between atoms: C_9  and  C_10
REMARK    8  A    between atoms: C_10  and  O_12
REMARK    9  A    between atoms: C_17  and  C_18
REMARK                            x       y       z     vdW  Elec       q    Type
REMARK                         _______ _______ _______ _____ _____    ______ ____
ROOT
ATOM      1  O   UNL     1       4.889   6.619  17.329  0.00  0.00    +0.000 OA
ENDROOT
BRANCH   1   2
ATOM      2  C   UNL     1       3.868   5.872  17.852  0.00  0.00    +0.000 A 
ATOM      3  C   UNL     1       3.293   6.376  19.019  0.00  0.00    +0.000 A 
ATOM      4  C   UNL     1       2.285   5.666  19.680  0.00  0.00    +0.000 A 
ATOM      5  C   UNL     1       1.818   4.449  19.165  0.00  0.00    +0.000 A 
ATOM      6  C   UNL     1       2.380   3.962  17.980  0.00  0.00    +0.000 A 
ATOM      7  C   UNL     1       3.385   4.675  17.319  0.00  0.00    +0.000 A 
BRANCH   5   8
ATOM      8  C   UNL     1       0.743   3.658  19.871  0.00  0.00    +0.000 C 
BRANCH   8   9
ATOM      9  C   UNL     1       1.293   2.407  20.550  0.00  0.00    +0.000 C 
BRANCH   9  10
ATOM     10  C   UNL     1       2.443   2.739  21.466  0.00  0.00    +0.000 C 
ATOM     11  O   UNL     1       2.362   3.374  22.502  0.00  0.00    +0.000 OA
BRANCH  10  12
ATOM     12  O   UNL     1       3.620   2.246  21.009  0.00  0.00    +0.000 OA
ATOM     13  H   UNL     1       3.992   1.535  21.563  0.00  0.00    +0.000 HD
ENDBRANCH  10  12
ENDBRANCH   9  10
ENDBRANCH   8   9
ENDBRANCH   5   8
ENDBRANCH   1   2
BRANCH   1  15
ATOM     14  C   UNL     1       7.293   6.951  17.743  0.00  0.00    +0.000 C 
ATOM     15  C   UNL     1       6.187   6.005  17.264  0.00  0.00    +0.000 C 
BRANCH  15  16
ATOM     16  C   UNL     1       6.471   5.661  15.837  0.00  0.00    +0.000 A 
ATOM     17  N   UNL     1       5.742   4.936  15.015  0.00  0.00    +0.000 NA
ATOM     18  C   UNL     1       6.628   4.657  14.003  0.00  0.00    +0.000 A 
ATOM     19  N   UNL     1       7.830   5.239  14.144  0.00  0.00    +0.000 NA
ATOM     20  O   UNL     1       7.730   5.906  15.365  0.00  0.00    +0.000 OA
BRANCH  18  21
ATOM     21  C   UNL     1       6.310   3.712  12.888  0.00  0.00    +0.000 A 
ATOM     22  C   UNL     1       7.258   3.057  12.127  0.00  0.00    +0.000 A 
ATOM     23  C   UNL     1       6.667   2.188  11.163  0.00  0.00    +0.000 A 
ATOM     24  C   UNL     1       5.291   2.219  11.216  0.00  0.00    +0.000 A 
ATOM     25  S   UNL     1       4.721   3.277  12.434  0.00  0.00    +0.000 S 
ENDBRANCH  18  21
ENDBRANCH  15  16
ENDBRANCH   1  15
TORSDOF 8
ENDMDL
MODEL 3
REMARK VINA RESULT:      -6.9      2.992      7.020
REMARK  Name = 
REMARK  9 active torsions:
REMARK  status: ('A' for Active; 'I' for Inactive)
REMARK    1  A    between atoms: C_1  and  C_2
REMARK    2  A    between atoms: C_2  and  O_3
REMARK    3  A    between atoms: C_2  and  C_15
REMARK    4  A    between atoms: O_3  and  C_4
REMARK    5  A    between atoms: C_7  and  C_8
REMARK    6  A    between atoms: C_8  and  C_9
REMARK    7  A    between atoms: C_9  and  C_10
REMARK    8  A    between atoms: C_10  and  O_12
REMARK    9  A    between atoms: C_17  and  C_18
REMARK                            x       y       z     vdW  Elec       q    Type
REMARK                         _______ _______ _______ _____ _____    ______ ____
ROOT
ATOM      1  O   UNL     1       5.064   6.668  17.426  0.00  0.00    +0.000 OA
ENDROOT
BRANCH   1   2
ATOM      2  C   UNL     1       4.025   6.081  18.096  0.00  0.00    +0.000 A 
ATOM      3  C   UNL     1       4.300   5.695  19.409  0.00  0.00    +0.000 A 
ATOM      4  C   UNL     1       3.335   5.027  20.171  0.00  0.00    +0.000 A 
ATOM      5  C   UNL     1       2.068   4.757  19.636  0.00  0.00    +0.000 A 
ATOM      6  C   UNL     1       1.790   5.170  18.328  0.00  0.00    +0.000 A 
ATOM      7  C   UNL     1       2.754   5.840  17.570  0.00  0.00    +0.000 A 
BRANCH   5   8
ATOM      8  C   UNL     1       1.018   4.023  20.435  0.00  0.00    +0.000 C 
BRANCH   8   9
ATOM      9  C   UNL     1       1.248   2.514  20.448  0.00  0.00    +0.000 C 
BRANCH   9  10
ATOM     10  C   UNL     1       1.496   1.984  19.059  0.00  0.00    +0.000 C 
ATOM     11  O   UNL     1       2.577   1.638  18.615  0.00  0.00    +0.000 OA
BRANCH  10  12
ATOM     12  O   UNL     1       0.360   1.927  18.323  0.00  0.00    +0.000 OA
ATOM     13  H   UNL     1       0.448   2.307  17.429  0.00  0.00    +0.000 HD
ENDBRANCH  10  12
ENDBRANCH   9  10
ENDBRANCH   8   9
ENDBRANCH   5   8
ENDBRANCH   1   2
BRANCH   1  15
ATOM     14  C   UNL     1       7.511   6.673  17.695  0.00  0.00    +0.000 C 
ATOM     15  C   UNL     1       6.264   5.894  17.265  0.00  0.00    +0.000 C 
BRANCH  15  16
ATOM     16  C   UNL     1       6.416   5.562  15.815  0.00  0.00    +0.000 A 
ATOM     17  N   UNL     1       5.623   4.830  15.062  0.00  0.00    +0.000 NA
ATOM     18  C   UNL     1       6.412   4.570  13.967  0.00  0.00    +0.000 A 
ATOM     19  N   UNL     1       7.612   5.170  13.997  0.00  0.00    +0.000 NA
ATOM     20  O   UNL     1       7.619   5.829  15.226  0.00  0.00    +0.000 OA
BRANCH  18  21
ATOM     21  C   UNL     1       6.002   3.626  12.882  0.00  0.00    +0.000 A 
ATOM     22  C   UNL     1       4.710   3.491  12.412  0.00  0.00    +0.000 A 
ATOM     23  C   UNL     1       4.620   2.547  11.348  0.00  0.00    +0.000 A 
ATOM     24  C   UNL     1       5.843   1.986  11.052  0.00  0.00    +0.000 A 
ATOM     25  S   UNL     1       7.091   2.614  12.040  0.00  0.00    +0.000 S 
ENDBRANCH  18  21
ENDBRANCH  15  16
ENDBRANCH   1  15
TORSDOF 8
ENDMDL
MODEL 4
REMARK VINA RESULT:      -6.9      1.727      2.145
REMARK  Name = 
REMARK  9 active torsions:
REMARK  status: ('A' for Active; 'I' for Inactive)
REMARK    1  A    between atoms: C_1  and  C_2
REMARK    2  A    between atoms: C_2  and  O_3
REMARK    3  A    between atoms: C_2  and  C_15
REMARK    4  A    between atoms: O_3  and  C_4
REMARK    5  A    between atoms: C_7  and  C_8
REMARK    6  A    between atoms: C_8  and  C_9
REMARK    7  A    between atoms: C_9  and  C_10
REMARK    8  A    between atoms: C_10  and  O_12
REMARK    9  A    between atoms: C_17  and  C_18
REMARK                            x       y       z     vdW  Elec       q    Type
REMARK                         _______ _______ _______ _____ _____    ______ ____
ROOT
ATOM      1  O   UNL     1       7.269   5.177  16.491  0.00  0.00    +0.000 OA
ENDROOT
BRANCH   1   2
ATOM      2  C   UNL     1       6.841   4.796  15.248  0.00  0.00    +0.000 A 
ATOM      3  C   UNL     1       5.648   4.073  15.220  0.00  0.00    +0.000 A 
ATOM      4  C   UNL     1       5.146   3.575  14.013  0.00  0.00    +0.000 A 
ATOM      5  C   UNL     1       5.821   3.815  12.809  0.00  0.00    +0.000 A 
ATOM      6  C   UNL     1       7.004   4.563  12.840  0.00  0.00    +0.000 A 
ATOM      7  C   UNL     1       7.502   5.063  14.047  0.00  0.00    +0.000 A 
BRANCH   5   8
ATOM      8  C   UNL     1       5.307   3.272  11.498  0.00  0.00    +0.000 C 
BRANCH   8   9
ATOM      9  C   UNL     1       3.784   3.164  11.471  0.00  0.00    +0.000 C 
BRANCH   9  10
ATOM     10  C   UNL     1       3.227   3.591  10.136  0.00  0.00    +0.000 C 
ATOM     11  O   UNL     1       3.069   4.742   9.771  0.00  0.00    +0.000 OA
BRANCH  10  12
ATOM     12  O   UNL     1       2.906   2.533   9.354  0.00  0.00    +0.000 OA
ATOM     13  H   UNL     1       3.438   2.468   8.538  0.00  0.00    +0.000 HD
ENDBRANCH  10  12
ENDBRANCH   9  10
ENDBRANCH   8   9
ENDBRANCH   5   8
ENDBRANCH   1   2
BRANCH   1  15
ATOM     14  C   UNL     1       7.863   7.077  17.940  0.00  0.00    +0.000 C 
ATOM     15  C   UNL     1       6.851   6.468  16.963  0.00  0.00    +0.000 C 
BRANCH  15  16
ATOM     16  C   UNL     1       5.558   6.303  17.696  0.00  0.00    +0.000 A 
ATOM     17  N   UNL     1       5.246   5.396  18.598  0.00  0.00    +0.000 NA
ATOM     18  C   UNL     1       3.876   5.491  18.649  0.00  0.00    +0.000 A 
ATOM     19  N   UNL     1       3.360   6.457  17.873  0.00  0.00    +0.000 NA
ATOM     20  O   UNL     1       4.476   6.997  17.236  0.00  0.00    +0.000 OA
BRANCH  18  21
ATOM     21  C   UNL     1       3.030   4.536  19.430  0.00  0.00    +0.000 A 
ATOM     22  C   UNL     1       1.875   4.888  20.100  0.00  0.00    +0.000 A 
ATOM     23  C   UNL     1       1.252   3.767  20.725  0.00  0.00    +0.000 A 
ATOM     24  C   UNL     1       1.960   2.604  20.518  0.00  0.00    +0.000 A 
ATOM     25  S   UNL     1       3.354   2.864  19.561  0.00  0.00    +0.000 S 
ENDBRANCH  18  21
ENDBRANCH  15  16
ENDBRANCH   1  15
TORSDOF 8
ENDMDL
MODEL 5
REMARK VINA RESULT:      -6.8      3.837      6.560
REMARK  Name = 
REMARK  9 active torsions:
REMARK  status: ('A' for Active; 'I' for Inactive)
REMARK    1  A    between atoms: C_1  and  C_2
REMARK    2  A    between atoms: C_2  and  O_3
REMARK    3  A    between atoms: C_2  and  C_15
REMARK    4  A    between atoms: O_3  and  C_4
REMARK    5  A    between atoms: C_7  and  C_8
REMARK    6  A    between atoms: C_8  and  C_9
REMARK    7  A    between atoms: C_9  and  C_10
REMARK    8  A    between atoms: C_10  and  O_12
REMARK    9  A    between atoms: C_17  and  C_18
REMARK                            x       y       z     vdW  Elec       q    Type
REMARK                         _______ _______ _______ _____ _____    ______ ____
ROOT
ATOM      1  O   UNL     1       4.831   3.870  16.864  0.00  0.00    +0.000 OA
ENDROOT
BRANCH   1   2
ATOM      2  C   UNL     1       5.699   4.877  17.189  0.00  0.00    +0.000 A 
ATOM      3  C   UNL     1       6.621   4.575  18.193  0.00  0.00    +0.000 A 
ATOM      4  C   UNL     1       7.516   5.546  18.653  0.00  0.00    +0.000 A 
ATOM      5  C   UNL     1       7.518   6.832  18.097  0.00  0.00    +0.000 A 
ATOM      6  C   UNL     1       6.609   7.121  17.072  0.00  0.00    +0.000 A 
ATOM      7  C   UNL     1       5.718   6.148  16.611  0.00  0.00    +0.000 A 
BRANCH   5   8
ATOM      8  C   UNL     1       8.463   7.900  18.591  0.00  0.00    +0.000 C 
BRANCH   8   9
ATOM      9  C   UNL     1       8.229   9.245  17.908  0.00  0.00    +0.000 C 
BRANCH   9  10
ATOM     10  C   UNL     1       9.002  10.348  18.585  0.00  0.00    +0.000 C 
ATOM     11  O   UNL     1       9.491  10.287  19.700  0.00  0.00    +0.000 OA
BRANCH  10  12
ATOM     12  O   UNL     1       9.103  11.453  17.809  0.00  0.00    +0.000 OA
ATOM     13  H   UNL     1       8.248  11.773  17.463  0.00  0.00    +0.000 HD
ENDBRANCH  10  12
ENDBRANCH   9  10
ENDBRANCH   8   9
ENDBRANCH   5   8
ENDBRANCH   1   2
BRANCH   1  15
ATOM     14  C   UNL     1       2.969   2.352  17.400  0.00  0.00    +0.000 C 
ATOM     15  C   UNL     1       4.031   3.324  17.925  0.00  0.00    +0.000 C 
BRANCH  15  16
ATOM     16  C   UNL     1       3.318   4.451  18.602  0.00  0.00    +0.000 A 
ATOM     17  N   UNL     1       2.722   5.485  18.046  0.00  0.00    +0.000 NA
ATOM     18  C   UNL     1       2.574   6.344  19.108  0.00  0.00    +0.000 A 
ATOM     19  N   UNL     1       2.988   5.847  20.284  0.00  0.00    +0.000 NA
ATOM     20  O   UNL     1       3.486   4.588  19.950  0.00  0.00    +0.000 OA
BRANCH  18  21
ATOM     21  C   UNL     1       2.080   7.747  18.948  0.00  0.00    +0.000 A 
ATOM     22  C   UNL     1       2.202   8.489  17.789  0.00  0.00    +0.000 A 
ATOM     23  C   UNL     1       1.605   9.778  17.910  0.00  0.00    +0.000 A 
ATOM     24  C   UNL     1       1.060   9.978  19.159  0.00  0.00    +0.000 A 
ATOM     25  S   UNL     1       1.251   8.609  20.168  0.00  0.00    +0.000 S 
ENDBRANCH  18  21
ENDBRANCH  15  16
ENDBRANCH   1  15
TORSDOF 8
ENDMDL
MODEL 6
REMARK VINA RESULT:      -6.8      4.901      7.718
REMARK  Name = 
REMARK  9 active torsions:
REMARK  status: ('A' for Active; 'I' for Inactive)
REMARK    1  A    between atoms: C_1  and  C_2
REMARK    2  A    between atoms: C_2  and  O_3
REMARK    3  A    between atoms: C_2  and  C_15
REMARK    4  A    between atoms: O_3  and  C_4
REMARK    5  A    between atoms: C_7  and  C_8
REMARK    6  A    between atoms: C_8  and  C_9
REMARK    7  A    between atoms: C_9  and  C_10
REMARK    8  A    between atoms: C_10  and  O_12
REMARK    9  A    between atoms: C_17  and  C_18
REMARK                            x       y       z     vdW  Elec       q    Type
REMARK                         _______ _______ _______ _____ _____    ______ ____
ROOT
ATOM      1  O   UNL     1       6.323   7.741  17.001  0.00  0.00    +0.000 OA
ENDROOT
BRANCH   1   2
ATOM      2  C   UNL     1       5.525   6.630  16.929  0.00  0.00    +0.000 A 
ATOM      3  C   UNL     1       4.423   6.627  17.785  0.00  0.00    +0.000 A 
ATOM      4  C   UNL     1       3.572   5.518  17.846  0.00  0.00    +0.000 A 
ATOM      5  C   UNL     1       3.800   4.402  17.030  0.00  0.00    +0.000 A 
ATOM      6  C   UNL     1       4.892   4.422  16.155  0.00  0.00    +0.000 A 
ATOM      7  C   UNL     1       5.738   5.533  16.092  0.00  0.00    +0.000 A 
BRANCH   5   8
ATOM      8  C   UNL     1       2.906   3.187  17.092  0.00  0.00    +0.000 C 
BRANCH   8   9
ATOM      9  C   UNL     1       3.439   2.121  18.045  0.00  0.00    +0.000 C 
BRANCH   9  10
ATOM     10  C   UNL     1       2.785   2.218  19.400  0.00  0.00    +0.000 C 
ATOM     11  O   UNL     1       1.606   2.016  19.632  0.00  0.00    +0.000 OA
BRANCH  10  12
ATOM     12  O   UNL     1       3.665   2.565  20.369  0.00  0.00    +0.000 OA
ATOM     13  H   UNL     1       4.519   2.892  20.029  0.00  0.00    +0.000 HD
ENDBRANCH  10  12
ENDBRANCH   9  10
ENDBRANCH   8   9
ENDBRANCH   5   8
ENDBRANCH   1   2
BRANCH   1  15
ATOM     14  C   UNL     1       7.766   6.470  18.537  0.00  0.00    +0.000 C 
ATOM     15  C   UNL     1       7.672   7.553  17.457  0.00  0.00    +0.000 C 
BRANCH  15  16
ATOM     16  C   UNL     1       8.144   8.837  18.062  0.00  0.00    +0.000 A 
ATOM     17  N   UNL     1       8.151  10.036  17.518  0.00  0.00    +0.000 NA
ATOM     18  C   UNL     1       8.997  10.731  18.349  0.00  0.00    +0.000 A 
ATOM     19  N   UNL     1       9.441  10.026  19.401  0.00  0.00    +0.000 NA
ATOM     20  O   UNL     1       8.877   8.764  19.212  0.00  0.00    +0.000 OA
BRANCH  18  21
ATOM     21  C   UNL     1       9.457  12.123  18.052  0.00  0.00    +0.000 A 
ATOM     22  C   UNL     1       8.676  13.252  18.210  0.00  0.00    +0.000 A 
ATOM     23  C   UNL     1       9.387  14.446  17.890  0.00  0.00    +0.000 A 
ATOM     24  C   UNL     1      10.678  14.186  17.488  0.00  0.00    +0.000 A 
ATOM     25  S   UNL     1      11.033  12.512  17.518  0.00  0.00    +0.000 S 
ENDBRANCH  18  21
ENDBRANCH  15  16
ENDBRANCH   1  15
TORSDOF 8
ENDMDL
MODEL 7
REMARK VINA RESULT:      -6.8      4.520      8.790
REMARK  Name = 
REMARK  9 active torsions:
REMARK  status: ('A' for Active; 'I' for Inactive)
REMARK    1  A    between atoms: C_1  and  C_2
REMARK    2  A    between atoms: C_2  and  O_3
REMARK    3  A    between atoms: C_2  and  C_15
REMARK    4  A    between atoms: O_3  and  C_4
REMARK    5  A    between atoms: C_7  and  C_8
REMARK    6  A    between atoms: C_8  and  C_9
REMARK    7  A    between atoms: C_9  and  C_10
REMARK    8  A    between atoms: C_10  and  O_12
REMARK    9  A    between atoms: C_17  and  C_18
REMARK                            x       y       z     vdW  Elec       q    Type
REMARK                         _______ _______ _______ _____ _____    ______ ____
ROOT
ATOM      1  O   UNL     1       2.713   5.850  20.550  0.00  0.00    +0.000 OA
ENDROOT
BRANCH   1   2
ATOM      2  C   UNL     1       2.051   7.008  20.244  0.00  0.00    +0.000 A 
ATOM      3  C   UNL     1       2.278   7.509  18.961  0.00  0.00    +0.000 A 
ATOM      4  C   UNL     1       1.706   8.720  18.558  0.00  0.00    +0.000 A 
ATOM      5  C   UNL     1       0.876   9.438  19.428  0.00  0.00    +0.000 A 
ATOM      6  C   UNL     1       0.630   8.918  20.704  0.00  0.00    +0.000 A 
ATOM      7  C   UNL     1       1.200   7.706  21.104  0.00  0.00    +0.000 A 
BRANCH   5   8
ATOM      8  C   UNL     1       0.263  10.756  19.020  0.00  0.00    +0.000 C 
BRANCH   8   9
ATOM      9  C   UNL     1      -0.914  10.579  18.065  0.00  0.00    +0.000 C 
BRANCH   9  10
ATOM     10  C   UNL     1      -1.775  11.815  18.018  0.00  0.00    +0.000 C 
ATOM     11  O   UNL     1      -2.892  11.919  18.495  0.00  0.00    +0.000 OA
BRANCH  10  12
ATOM     12  O   UNL     1      -1.167  12.838  17.371  0.00  0.00    +0.000 OA
ATOM     13  H   UNL     1      -1.385  12.891  16.421  0.00  0.00    +0.000 HD
ENDBRANCH  10  12
ENDBRANCH   9  10
ENDBRANCH   8   9
ENDBRANCH   5   8
ENDBRANCH   1   2
BRANCH   1  15
ATOM     14  C   UNL     1       2.187   3.538  21.214  0.00  0.00    +0.000 C 
ATOM     15  C   UNL     1       2.110   4.616  20.127  0.00  0.00    +0.000 C 
BRANCH  15  16
ATOM     16  C   UNL     1       2.860   4.113  18.936  0.00  0.00    +0.000 A 
ATOM     17  N   UNL     1       4.084   4.416  18.559  0.00  0.00    +0.000 NA
ATOM     18  C   UNL     1       4.111   3.971  17.259  0.00  0.00    +0.000 A 
ATOM     19  N   UNL     1       2.987   3.354  16.863  0.00  0.00    +0.000 NA
ATOM     20  O   UNL     1       2.151   3.448  17.976  0.00  0.00    +0.000 OA
BRANCH  18  21
ATOM     21  C   UNL     1       5.260   4.237  16.339  0.00  0.00    +0.000 A 
ATOM     22  C   UNL     1       5.223   4.046  14.971  0.00  0.00    +0.000 A 
ATOM     23  C   UNL     1       6.448   4.418  14.343  0.00  0.00    +0.000 A 
ATOM     24  C   UNL     1       7.377   4.869  15.253  0.00  0.00    +0.000 A 
ATOM     25  S   UNL     1       6.766   4.860  16.851  0.00  0.00    +0.000 S 
ENDBRANCH  18  21
ENDBRANCH  15  16
ENDBRANCH   1  15
TORSDOF 8
ENDMDL
MODEL 8
REMARK VINA RESULT:      -6.8      4.587      7.452
REMARK  Name = 
REMARK  9 active torsions:
REMARK  status: ('A' for Active; 'I' for Inactive)
REMARK    1  A    between atoms: C_1  and  C_2
REMARK    2  A    between atoms: C_2  and  O_3
REMARK    3  A    between atoms: C_2  and  C_15
REMARK    4  A    between atoms: O_3  and  C_4
REMARK    5  A    between atoms: C_7  and  C_8
REMARK    6  A    between atoms: C_8  and  C_9
REMARK    7  A    between atoms: C_9  and  C_10
REMARK    8  A    between atoms: C_10  and  O_12
REMARK    9  A    between atoms: C_17  and  C_18
REMARK                            x       y       z     vdW  Elec       q    Type
REMARK                         _______ _______ _______ _____ _____    ______ ____
ROOT
ATOM      1  O   UNL     1       6.349   6.078  16.864  0.00  0.00    +0.000 OA
ENDROOT
BRANCH   1   2
ATOM      2  C   UNL     1       5.135   5.566  17.234  0.00  0.00    +0.000 A 
ATOM      3  C   UNL     1       4.964   4.200  17.005  0.00  0.00    +0.000 A 
ATOM      4  C   UNL     1       3.742   3.579  17.284  0.00  0.00    +0.000 A 
ATOM      5  C   UNL     1       2.677   4.314  17.821  0.00  0.00    +0.000 A 
ATOM      6  C   UNL     1       2.863   5.678  18.073  0.00  0.00    +0.000 A 
ATOM      7  C   UNL     1       4.086   6.296  17.798  0.00  0.00    +0.000 A 
BRANCH   5   8
ATOM      8  C   UNL     1       1.344   3.667  18.113  0.00  0.00    +0.000 C 
BRANCH   8   9
ATOM      9  C   UNL     1       1.490   2.361  18.887  0.00  0.00    +0.000 C 
BRANCH   9  10
ATOM     10  C   UNL     1       1.799   2.615  20.341  0.00  0.00    +0.000 C 
ATOM     11  O   UNL     1       2.901   2.539  20.854  0.00  0.00    +0.000 OA
BRANCH  10  12
ATOM     12  O   UNL     1       0.692   2.947  21.048  0.00  0.00    +0.000 OA
ATOM     13  H   UNL     1       0.009   3.403  20.522  0.00  0.00    +0.000 HD
ENDBRANCH  10  12
ENDBRANCH   9  10
ENDBRANCH   8   9
ENDBRANCH   5   8
ENDBRANCH   1   2
BRANCH   1  15
ATOM     14  C   UNL     1       6.800   5.882  19.276  0.00  0.00    +0.000 C 
ATOM     15  C   UNL     1       7.361   6.172  17.880  0.00  0.00    +0.000 C 
BRANCH  15  16
ATOM     16  C   UNL     1       7.889   7.571  17.886  0.00  0.00    +0.000 A 
ATOM     17  N   UNL     1       8.797   8.093  18.683  0.00  0.00    +0.000 NA
ATOM     18  C   UNL     1       8.622   9.442  18.487  0.00  0.00    +0.000 A 
ATOM     19  N   UNL     1       7.702   9.750  17.559  0.00  0.00    +0.000 NA
ATOM     20  O   UNL     1       7.210   8.508  17.159  0.00  0.00    +0.000 OA
BRANCH  18  21
ATOM     21  C   UNL     1       9.330  10.475  19.304  0.00  0.00    +0.000 A 
ATOM     22  C   UNL     1       9.120  10.680  20.653  0.00  0.00    +0.000 A 
ATOM     23  C   UNL     1       9.961  11.704  21.180  0.00  0.00    +0.000 A 
ATOM     24  C   UNL     1      10.775  12.250  20.212  0.00  0.00    +0.000 A 
ATOM     25  S   UNL     1      10.535  11.516  18.685  0.00  0.00    +0.000 S 
ENDBRANCH  18  21
ENDBRANCH  15  16
ENDBRANCH   1  15
TORSDOF 8
ENDMDL
MODEL 9
REMARK VINA RESULT:      -6.8      1.000      1.140
REMARK  Name = 
REMARK  9 active torsions:
REMARK  status: ('A' for Active; 'I' for Inactive)
REMARK    1  A    between atoms: C_1  and  C_2
REMARK    2  A    between atoms: C_2  and  O_3
REMARK    3  A    between atoms: C_2  and  C_15
REMARK    4  A    between atoms: O_3  and  C_4
REMARK    5  A    between atoms: C_7  and  C_8
REMARK    6  A    between atoms: C_8  and  C_9
REMARK    7  A    between atoms: C_9  and  C_10
REMARK    8  A    between atoms: C_10  and  O_12
REMARK    9  A    between atoms: C_17  and  C_18
REMARK                            x       y       z     vdW  Elec       q    Type
REMARK                         _______ _______ _______ _____ _____    ______ ____
ROOT
ATOM      1  O   UNL     1       7.643   5.434  16.153  0.00  0.00    +0.000 OA
ENDROOT
BRANCH   1   2
ATOM      2  C   UNL     1       7.152   4.844  15.019  0.00  0.00    +0.000 A 
ATOM      3  C   UNL     1       7.746   5.254  13.825  0.00  0.00    +0.000 A 
ATOM      4  C   UNL     1       7.283   4.769  12.597  0.00  0.00    +0.000 A 
ATOM      5  C   UNL     1       6.233   3.844  12.549  0.00  0.00    +0.000 A 
ATOM      6  C   UNL     1       5.659   3.416  13.752  0.00  0.00    +0.000 A 
ATOM      7  C   UNL     1       6.125   3.899  14.978  0.00  0.00    +0.000 A 
BRANCH   5   8
ATOM      8  C   UNL     1       5.706   3.320  11.234  0.00  0.00    +0.000 C 
BRANCH   8   9
ATOM      9  C   UNL     1       5.188   1.889  11.344  0.00  0.00    +0.000 C 
BRANCH   9  10
ATOM     10  C   UNL     1       6.296   0.887  11.141  0.00  0.00    +0.000 C 
ATOM     11  O   UNL     1       6.148  -0.318  11.029  0.00  0.00    +0.000 OA
BRANCH  10  12
ATOM     12  O   UNL     1       7.515   1.474  11.095  0.00  0.00    +0.000 OA
ATOM     13  H   UNL     1       7.553   2.262  10.521  0.00  0.00    +0.000 HD
ENDBRANCH  10  12
ENDBRANCH   9  10
ENDBRANCH   8   9
ENDBRANCH   5   8
ENDBRANCH   1   2
BRANCH   1  15
ATOM     14  C   UNL     1       7.550   7.422  17.601  0.00  0.00    +0.000 C 
ATOM     15  C   UNL     1       6.771   6.332  16.858  0.00  0.00    +0.000 C 
BRANCH  15  16
ATOM     16  C   UNL     1       6.013   5.543  17.878  0.00  0.00    +0.000 A 
ATOM     17  N   UNL     1       4.865   4.916  17.730  0.00  0.00    +0.000 NA
ATOM     18  C   UNL     1       4.482   4.691  19.030  0.00  0.00    +0.000 A 
ATOM     19  N   UNL     1       5.377   5.091  19.947  0.00  0.00    +0.000 NA
ATOM     20  O   UNL     1       6.396   5.661  19.184  0.00  0.00    +0.000 OA
BRANCH  18  21
ATOM     21  C   UNL     1       3.142   4.134  19.393  0.00  0.00    +0.000 A 
ATOM     22  C   UNL     1       2.731   3.869  20.684  0.00  0.00    +0.000 A 
ATOM     23  C   UNL     1       1.392   3.382  20.734  0.00  0.00    +0.000 A 
ATOM     24  C   UNL     1       0.833   3.282  19.480  0.00  0.00    +0.000 A 
ATOM     25  S   UNL     1       1.914   3.793  18.255  0.00  0.00    +0.000 S 
ENDBRANCH  18  21
ENDBRANCH  15  16
ENDBRANCH   1  15
TORSDOF 8
ENDMDL
