MODEL 1
REMARK VINA RESULT:      -7.6      0.000      0.000
REMARK  Name = 
REMARK  3 active torsions:
REMARK  status: ('A' for Active; 'I' for Inactive)
REMARK    1  A    between atoms: C_9  and  C_10
REMARK    2  A    between atoms: C_10  and  C_11
REMARK    3  A    between atoms: C_16  and  O_17
REMARK                            x       y       z     vdW  Elec       q    Type
REMARK                         _______ _______ _______ _____ _____    ______ ____
ROOT
ATOM      1  O   UNL     1       4.345   7.164  17.421  0.00  0.00    +0.000 OA
ATOM      2  C   UNL     1       5.351   6.480  17.587  0.00  0.00    +0.000 C 
ATOM      3  C   UNL     1       6.658   6.767  16.872  0.00  0.00    +0.000 C 
ATOM      4  C   UNL     1       7.672   7.105  17.969  0.00  0.00    +0.000 C 
ATOM      5  C   UNL     1       7.716   5.967  19.005  0.00  0.00    +0.000 C 
ATOM      6  N   UNL     1       6.868   4.824  18.588  0.00  0.00    +0.000 NA
ATOM      7  C   UNL     1       7.317   4.378  17.255  0.00  0.00    +0.000 C 
ATOM      8  C   UNL     1       7.048   5.452  16.189  0.00  0.00    +0.000 C 
ATOM      9  C   UNL     1       5.432   5.286  18.550  0.00  0.00    +0.000 C 
ENDROOT
BRANCH   9  10
ATOM     10  C   UNL     1       4.400   4.214  18.138  0.00  0.00    +0.000 C 
BRANCH  10  11
ATOM     11  C   UNL     1       3.418   3.858  19.231  0.00  0.00    +0.000 A 
ATOM     12  C   UNL     1       2.188   4.530  19.327  0.00  0.00    +0.000 A 
ATOM     13  C   UNL     1       1.258   4.170  20.308  0.00  0.00    +0.000 A 
ATOM     14  C   UNL     1       1.548   3.144  21.207  0.00  0.00    +0.000 A 
ATOM     15  C   UNL     1       2.773   2.481  21.132  0.00  0.00    +0.000 A 
ATOM     16  C   UNL     1       3.693   2.842  20.152  0.00  0.00    +0.000 A 
BRANCH  16  17
ATOM     17  O   UNL     1       4.892   2.193  20.079  0.00  0.00    +0.000 OA
ATOM     18  H   UNL     1       4.826   1.534  19.370  0.00  0.00    +0.000 HD
ENDBRANCH  16  17
ENDBRANCH  10  11
ENDBRANCH   9  10
TORSDOF 3
ENDMDL
MODEL 2
REMARK VINA RESULT:      -7.6      1.473      1.874
REMARK  Name = 
REMARK  3 active torsions:
REMARK  status: ('A' for Active; 'I' for Inactive)
REMARK    1  A    between atoms: C_9  and  C_10
REMARK    2  A    between atoms: C_10  and  C_11
REMARK    3  A    between atoms: C_16  and  O_17
REMARK                            x       y       z     vdW  Elec       q    Type
REMARK                         _______ _______ _______ _____ _____    ______ ____
ROOT
ATOM      1  O   UNL     1       3.495   6.454  17.819  0.00  0.00    +0.000 OA
ATOM      2  C   UNL     1       4.562   5.941  17.498  0.00  0.00    +0.000 C 
ATOM      3  C   UNL     1       5.487   6.560  16.467  0.00  0.00    +0.000 C 
ATOM      4  C   UNL     1       6.782   6.900  17.212  0.00  0.00    +0.000 C 
ATOM      5  C   UNL     1       7.320   5.641  17.917  0.00  0.00    +0.000 C 
ATOM      6  N   UNL     1       6.513   4.444  17.578  0.00  0.00    +0.000 NA
ATOM      7  C   UNL     1       6.501   4.295  16.109  0.00  0.00    +0.000 C 
ATOM      8  C   UNL     1       5.751   5.457  15.438  0.00  0.00    +0.000 C 
ATOM      9  C   UNL     1       5.115   4.647  18.112  0.00  0.00    +0.000 C 
ENDROOT
BRANCH   9  10
ATOM     10  C   UNL     1       4.131   3.486  17.853  0.00  0.00    +0.000 C 
BRANCH  10  11
ATOM     11  C   UNL     1       3.125   3.277  18.962  0.00  0.00    +0.000 A 
ATOM     12  C   UNL     1       3.537   2.791  20.213  0.00  0.00    +0.000 A 
ATOM     13  C   UNL     1       2.615   2.641  21.255  0.00  0.00    +0.000 A 
ATOM     14  C   UNL     1       1.274   2.967  21.056  0.00  0.00    +0.000 A 
ATOM     15  C   UNL     1       0.849   3.434  19.813  0.00  0.00    +0.000 A 
ATOM     16  C   UNL     1       1.772   3.584  18.782  0.00  0.00    +0.000 A 
BRANCH  16  17
ATOM     17  O   UNL     1       1.356   4.041  17.564  0.00  0.00    +0.000 OA
ATOM     18  H   UNL     1       2.145   4.158  17.010  0.00  0.00    +0.000 HD
ENDBRANCH  16  17
ENDBRANCH  10  11
ENDBRANCH   9  10
TORSDOF 3
ENDMDL
MODEL 3
REMARK VINA RESULT:      -7.5      1.770      2.476
REMARK  Name = 
REMARK  3 active torsions:
REMARK  status: ('A' for Active; 'I' for Inactive)
REMARK    1  A    between atoms: C_9  and  C_10
REMARK    2  A    between atoms: C_10  and  C_11
REMARK    3  A    between atoms: C_16  and  O_17
REMARK                            x       y       z     vdW  Elec       q    Type
REMARK                         _______ _______ _______ _____ _____    ______ ____
ROOT
ATOM      1  O   UNL     1       5.585   4.961  19.736  0.00  0.00    +0.000 OA
ATOM      2  C   UNL     1       5.671   5.135  18.524  0.00  0.00    +0.000 C 
ATOM      3  C   UNL     1       6.875   5.795  17.878  0.00  0.00    +0.000 C 
ATOM      4  C   UNL     1       7.501   4.732  16.970  0.00  0.00    +0.000 C 
ATOM      5  C   UNL     1       6.438   4.189  15.997  0.00  0.00    +0.000 C 
ATOM      6  N   UNL     1       5.158   4.927  16.127  0.00  0.00    +0.000 NA
ATOM      7  C   UNL     1       5.428   6.362  15.910  0.00  0.00    +0.000 C 
ATOM      8  C   UNL     1       6.309   6.938  17.030  0.00  0.00    +0.000 C 
ATOM      9  C   UNL     1       4.608   4.683  17.512  0.00  0.00    +0.000 C 
ENDROOT
BRANCH   9  10
ATOM     10  C   UNL     1       3.264   5.377  17.823  0.00  0.00    +0.000 C 
BRANCH  10  11
ATOM     11  C   UNL     1       2.314   4.531  18.641  0.00  0.00    +0.000 A 
ATOM     12  C   UNL     1       1.622   3.464  18.046  0.00  0.00    +0.000 A 
ATOM     13  C   UNL     1       0.778   2.651  18.812  0.00  0.00    +0.000 A 
ATOM     14  C   UNL     1       0.610   2.901  20.173  0.00  0.00    +0.000 A 
ATOM     15  C   UNL     1       1.279   3.968  20.771  0.00  0.00    +0.000 A 
ATOM     16  C   UNL     1       2.119   4.771  20.005  0.00  0.00    +0.000 A 
BRANCH  16  17
ATOM     17  O   UNL     1       2.773   5.816  20.591  0.00  0.00    +0.000 OA
ATOM     18  H   UNL     1       2.987   6.456  19.892  0.00  0.00    +0.000 HD
ENDBRANCH  16  17
ENDBRANCH  10  11
ENDBRANCH   9  10
TORSDOF 3
ENDMDL
MODEL 4
REMARK VINA RESULT:      -7.5      1.139      1.197
REMARK  Name = 
REMARK  3 active torsions:
REMARK  status: ('A' for Active; 'I' for Inactive)
REMARK    1  A    between atoms: C_9  and  C_10
REMARK    2  A    between atoms: C_10  and  C_11
REMARK    3  A    between atoms: C_16  and  O_17
REMARK                            x       y       z     vdW  Elec       q    Type
REMARK                         _______ _______ _______ _____ _____    ______ ____
ROOT
ATOM      1  O   UNL     1       4.156   6.818  17.462  0.00  0.00    +0.000 OA
ATOM      2  C   UNL     1       5.229   6.235  17.584  0.00  0.00    +0.000 C 
ATOM      3  C   UNL     1       6.483   6.674  16.851  0.00  0.00    +0.000 C 
ATOM      4  C   UNL     1       7.484   7.083  17.935  0.00  0.00    +0.000 C 
ATOM      5  C   UNL     1       7.669   5.925  18.934  0.00  0.00    +0.000 C 
ATOM      6  N   UNL     1       6.931   4.714  18.500  0.00  0.00    +0.000 NA
ATOM      7  C   UNL     1       7.390   4.355  17.144  0.00  0.00    +0.000 C 
ATOM      8  C   UNL     1       6.987   5.427  16.119  0.00  0.00    +0.000 C 
ATOM      9  C   UNL     1       5.455   5.029  18.507  0.00  0.00    +0.000 C 
ENDROOT
BRANCH   9  10
ATOM     10  C   UNL     1       4.528   3.869  18.085  0.00  0.00    +0.000 C 
BRANCH  10  11
ATOM     11  C   UNL     1       3.290   3.731  18.942  0.00  0.00    +0.000 A 
ATOM     12  C   UNL     1       3.056   4.625  20.000  0.00  0.00    +0.000 A 
ATOM     13  C   UNL     1       1.888   4.528  20.765  0.00  0.00    +0.000 A 
ATOM     14  C   UNL     1       0.948   3.536  20.488  0.00  0.00    +0.000 A 
ATOM     15  C   UNL     1       1.178   2.632  19.451  0.00  0.00    +0.000 A 
ATOM     16  C   UNL     1       2.340   2.735  18.692  0.00  0.00    +0.000 A 
BRANCH  16  17
ATOM     17  O   UNL     1       2.565   1.850  17.677  0.00  0.00    +0.000 OA
ATOM     18  H   UNL     1       2.631   2.360  16.853  0.00  0.00    +0.000 HD
ENDBRANCH  16  17
ENDBRANCH  10  11
ENDBRANCH   9  10
TORSDOF 3
ENDMDL
MODEL 5
REMARK VINA RESULT:      -7.4      1.806      2.517
REMARK  Name = 
REMARK  3 active torsions:
REMARK  status: ('A' for Active; 'I' for Inactive)
REMARK    1  A    between atoms: C_9  and  C_10
REMARK    2  A    between atoms: C_10  and  C_11
REMARK    3  A    between atoms: C_16  and  O_17
REMARK                            x       y       z     vdW  Elec       q    Type
REMARK                         _______ _______ _______ _____ _____    ______ ____
ROOT
ATOM      1  O   UNL     1       6.191   5.013  19.792  0.00  0.00    +0.000 OA
ATOM      2  C   UNL     1       6.012   5.163  18.587  0.00  0.00    +0.000 C 
ATOM      3  C   UNL     1       7.048   5.804  17.683  0.00  0.00    +0.000 C 
ATOM      4  C   UNL     1       7.460   4.721  16.682  0.00  0.00    +0.000 C 
ATOM      5  C   UNL     1       6.211   4.165  15.973  0.00  0.00    +0.000 C 
ATOM      6  N   UNL     1       4.991   4.913  16.363  0.00  0.00    +0.000 NA
ATOM      7  C   UNL     1       5.209   6.342  16.065  0.00  0.00    +0.000 C 
ATOM      8  C   UNL     1       6.313   6.934  16.955  0.00  0.00    +0.000 C 
ATOM      9  C   UNL     1       4.754   4.698  17.839  0.00  0.00    +0.000 C 
ENDROOT
BRANCH   9  10
ATOM     10  C   UNL     1       3.511   5.405  18.421  0.00  0.00    +0.000 C 
BRANCH  10  11
ATOM     11  C   UNL     1       2.643   4.511  19.278  0.00  0.00    +0.000 A 
ATOM     12  C   UNL     1       2.846   4.446  20.666  0.00  0.00    +0.000 A 
ATOM     13  C   UNL     1       2.015   3.655  21.468  0.00  0.00    +0.000 A 
ATOM     14  C   UNL     1       0.981   2.918  20.893  0.00  0.00    +0.000 A 
ATOM     15  C   UNL     1       0.781   2.961  19.513  0.00  0.00    +0.000 A 
ATOM     16  C   UNL     1       1.609   3.752  18.722  0.00  0.00    +0.000 A 
BRANCH  16  17
ATOM     17  O   UNL     1       1.413   3.794  17.371  0.00  0.00    +0.000 OA
ATOM     18  H   UNL     1       1.407   2.879  17.047  0.00  0.00    +0.000 HD
ENDBRANCH  16  17
ENDBRANCH  10  11
ENDBRANCH   9  10
TORSDOF 3
ENDMDL
MODEL 6
REMARK VINA RESULT:      -7.4      1.772      2.773
REMARK  Name = 
REMARK  3 active torsions:
REMARK  status: ('A' for Active; 'I' for Inactive)
REMARK    1  A    between atoms: C_9  and  C_10
REMARK    2  A    between atoms: C_10  and  C_11
REMARK    3  A    between atoms: C_16  and  O_17
REMARK                            x       y       z     vdW  Elec       q    Type
REMARK                         _______ _______ _______ _____ _____    ______ ____
ROOT
ATOM      1  O   UNL     1       7.885   4.377  18.354  0.00  0.00    +0.000 OA
ATOM      2  C   UNL     1       6.921   4.770  17.704  0.00  0.00    +0.000 C 
ATOM      3  C   UNL     1       7.047   5.802  16.599  0.00  0.00    +0.000 C 
ATOM      4  C   UNL     1       6.621   5.093  15.310  0.00  0.00    +0.000 C 
ATOM      5  C   UNL     1       5.219   4.483  15.492  0.00  0.00    +0.000 C 
ATOM      6  N   UNL     1       4.633   4.855  16.803  0.00  0.00    +0.000 NA
ATOM      7  C   UNL     1       4.614   6.328  16.899  0.00  0.00    +0.000 C 
ATOM      8  C   UNL     1       6.040   6.901  16.948  0.00  0.00    +0.000 C 
ATOM      9  C   UNL     1       5.487   4.253  17.893  0.00  0.00    +0.000 C 
ENDROOT
BRANCH   9  10
ATOM     10  C   UNL     1       5.017   4.537  19.336  0.00  0.00    +0.000 C 
BRANCH  10  11
ATOM     11  C   UNL     1       3.603   4.083  19.620  0.00  0.00    +0.000 A 
ATOM     12  C   UNL     1       3.248   2.732  19.473  0.00  0.00    +0.000 A 
ATOM     13  C   UNL     1       1.952   2.301  19.780  0.00  0.00    +0.000 A 
ATOM     14  C   UNL     1       0.998   3.214  20.229  0.00  0.00    +0.000 A 
ATOM     15  C   UNL     1       1.334   4.561  20.363  0.00  0.00    +0.000 A 
ATOM     16  C   UNL     1       2.625   4.982  20.059  0.00  0.00    +0.000 A 
BRANCH  16  17
ATOM     17  O   UNL     1       2.954   6.300  20.189  0.00  0.00    +0.000 OA
ATOM     18  H   UNL     1       2.767   6.735  19.341  0.00  0.00    +0.000 HD
ENDBRANCH  16  17
ENDBRANCH  10  11
ENDBRANCH   9  10
TORSDOF 3
ENDMDL
MODEL 7
REMARK VINA RESULT:      -7.3      1.485      5.782
REMARK  Name = 
REMARK  3 active torsions:
REMARK  status: ('A' for Active; 'I' for Inactive)
REMARK    1  A    between atoms: C_9  and  C_10
REMARK    2  A    between atoms: C_10  and  C_11
REMARK    3  A    between atoms: C_16  and  O_17
REMARK                            x       y       z     vdW  Elec       q    Type
REMARK                         _______ _______ _______ _____ _____    ______ ____
ROOT
ATOM      1  O   UNL     1       4.612   2.337  20.199  0.00  0.00    +0.000 OA
ATOM      2  C   UNL     1       3.619   2.985  19.882  0.00  0.00    +0.000 C 
ATOM      3  C   UNL     1       2.211   2.436  20.012  0.00  0.00    +0.000 C 
ATOM      4  C   UNL     1       1.499   3.337  21.025  0.00  0.00    +0.000 C 
ATOM      5  C   UNL     1       1.600   4.806  20.574  0.00  0.00    +0.000 C 
ATOM      6  N   UNL     1       2.242   4.920  19.242  0.00  0.00    +0.000 NA
ATOM      7  C   UNL     1       1.471   4.099  18.287  0.00  0.00    +0.000 C 
ATOM      8  C   UNL     1       1.576   2.604  18.628  0.00  0.00    +0.000 C 
ATOM      9  C   UNL     1       3.664   4.427  19.355  0.00  0.00    +0.000 C 
ENDROOT
BRANCH   9  10
ATOM     10  C   UNL     1       4.490   4.480  18.052  0.00  0.00    +0.000 C 
BRANCH  10  11
ATOM     11  C   UNL     1       5.673   5.419  18.114  0.00  0.00    +0.000 A 
ATOM     12  C   UNL     1       6.694   5.213  19.056  0.00  0.00    +0.000 A 
ATOM     13  C   UNL     1       7.813   6.053  19.085  0.00  0.00    +0.000 A 
ATOM     14  C   UNL     1       7.920   7.110  18.182  0.00  0.00    +0.000 A 
ATOM     15  C   UNL     1       6.904   7.335  17.253  0.00  0.00    +0.000 A 
ATOM     16  C   UNL     1       5.795   6.494  17.227  0.00  0.00    +0.000 A 
BRANCH  16  17
ATOM     17  O   UNL     1       4.801   6.714  16.318  0.00  0.00    +0.000 OA
ATOM     18  H   UNL     1       4.966   7.578  15.907  0.00  0.00    +0.000 HD
ENDBRANCH  16  17
ENDBRANCH  10  11
ENDBRANCH   9  10
TORSDOF 3
ENDMDL
MODEL 8
REMARK VINA RESULT:      -7.3      2.009      5.472
REMARK  Name = 
REMARK  3 active torsions:
REMARK  status: ('A' for Active; 'I' for Inactive)
REMARK    1  A    between atoms: C_9  and  C_10
REMARK    2  A    between atoms: C_10  and  C_11
REMARK    3  A    between atoms: C_16  and  O_17
REMARK                            x       y       z     vdW  Elec       q    Type
REMARK                         _______ _______ _______ _____ _____    ______ ____
ROOT
ATOM      1  O   UNL     1       1.528   6.018  20.742  0.00  0.00    +0.000 OA
ATOM      2  C   UNL     1       1.894   4.923  20.325  0.00  0.00    +0.000 C 
ATOM      3  C   UNL     1       1.447   3.619  20.957  0.00  0.00    +0.000 C 
ATOM      4  C   UNL     1       0.651   2.878  19.879  0.00  0.00    +0.000 C 
ATOM      5  C   UNL     1       1.504   2.741  18.605  0.00  0.00    +0.000 C 
ATOM      6  N   UNL     1       2.882   3.247  18.820  0.00  0.00    +0.000 NA
ATOM      7  C   UNL     1       3.468   2.518  19.962  0.00  0.00    +0.000 C 
ATOM      8  C   UNL     1       2.736   2.853  21.271  0.00  0.00    +0.000 C 
ATOM      9  C   UNL     1       2.806   4.727  19.105  0.00  0.00    +0.000 C 
ENDROOT
BRANCH   9  10
ATOM     10  C   UNL     1       4.161   5.426  19.349  0.00  0.00    +0.000 C 
BRANCH  10  11
ATOM     11  C   UNL     1       5.161   5.231  18.233  0.00  0.00    +0.000 A 
ATOM     12  C   UNL     1       4.739   5.226  16.894  0.00  0.00    +0.000 A 
ATOM     13  C   UNL     1       5.669   5.093  15.857  0.00  0.00    +0.000 A 
ATOM     14  C   UNL     1       7.026   4.955  16.146  0.00  0.00    +0.000 A 
ATOM     15  C   UNL     1       7.456   4.942  17.472  0.00  0.00    +0.000 A 
ATOM     16  C   UNL     1       6.526   5.078  18.499  0.00  0.00    +0.000 A 
BRANCH  16  17
ATOM     17  O   UNL     1       6.946   5.065  19.797  0.00  0.00    +0.000 OA
ATOM     18  H   UNL     1       7.766   5.584  19.846  0.00  0.00    +0.000 HD
ENDBRANCH  16  17
ENDBRANCH  10  11
ENDBRANCH   9  10
TORSDOF 3
ENDMDL
MODEL 9
REMARK VINA RESULT:      -7.2      1.547      5.600
REMARK  Name = 
REMARK  3 active torsions:
REMARK  status: ('A' for Active; 'I' for Inactive)
REMARK    1  A    between atoms: C_9  and  C_10
REMARK    2  A    between atoms: C_10  and  C_11
REMARK    3  A    between atoms: C_16  and  O_17
REMARK                            x       y       z     vdW  Elec       q    Type
REMARK                         _______ _______ _______ _____ _____    ______ ____
ROOT
ATOM      1  O   UNL     1       3.514   1.548  18.376  0.00  0.00    +0.000 OA
ATOM      2  C   UNL     1       3.124   2.690  18.602  0.00  0.00    +0.000 C 
ATOM      3  C   UNL     1       1.652   3.051  18.665  0.00  0.00    +0.000 C 
ATOM      4  C   UNL     1       1.396   3.528  20.097  0.00  0.00    +0.000 C 
ATOM      5  C   UNL     1       2.374   4.663  20.450  0.00  0.00    +0.000 C 
ATOM      6  N   UNL     1       3.194   5.054  19.277  0.00  0.00    +0.000 NA
ATOM      7  C   UNL     1       2.281   5.430  18.180  0.00  0.00    +0.000 C 
ATOM      8  C   UNL     1       1.475   4.217  17.687  0.00  0.00    +0.000 C 
ATOM      9  C   UNL     1       4.056   3.878  18.887  0.00  0.00    +0.000 C 
ENDROOT
BRANCH   9  10
ATOM     10  C   UNL     1       4.987   4.110  17.677  0.00  0.00    +0.000 C 
BRANCH  10  11
ATOM     11  C   UNL     1       5.987   5.226  17.880  0.00  0.00    +0.000 A 
ATOM     12  C   UNL     1       6.990   5.111  18.856  0.00  0.00    +0.000 A 
ATOM     13  C   UNL     1       7.945   6.121  19.014  0.00  0.00    +0.000 A 
ATOM     14  C   UNL     1       7.905   7.257  18.206  0.00  0.00    +0.000 A 
ATOM     15  C   UNL     1       6.903   7.390  17.245  0.00  0.00    +0.000 A 
ATOM     16  C   UNL     1       5.958   6.380  17.090  0.00  0.00    +0.000 A 
BRANCH  16  17
ATOM     17  O   UNL     1       4.978   6.510  16.150  0.00  0.00    +0.000 OA
ATOM     18  H   UNL     1       5.400   6.458  15.277  0.00  0.00    +0.000 HD
ENDBRANCH  16  17
ENDBRANCH  10  11
ENDBRANCH   9  10
TORSDOF 3
ENDMDL
