MODEL 1
REMARK VINA RESULT:      -7.4      0.000      0.000
REMARK  Name = 
REMARK  8 active torsions:
REMARK  status: ('A' for Active; 'I' for Inactive)
REMARK    1  A    between atoms: C_1  and  O_2
REMARK    2  A    between atoms: O_2  and  C_3
REMARK    3  A    between atoms: C_5  and  C_6
REMARK    4  A    between atoms: N_7  and  N_8
REMARK    5  A    between atoms: N_13  and  N_14
REMARK    6  A    between atoms: C_17  and  O_18
REMARK    7  A    between atoms: O_18  and  C_19
REMARK    8  A    between atoms: C_19  and  C_20
REMARK                            x       y       z     vdW  Elec       q    Type
REMARK                         _______ _______ _______ _____ _____    ______ ____
ROOT
ATOM      1  C   UNL     1       6.087   4.918  16.152  0.00  0.00    +0.000 A 
ATOM      2  C   UNL     1       4.957   4.097  16.057  0.00  0.00    +0.000 A 
ATOM      3  C   UNL     1       3.827   4.357  16.837  0.00  0.00    +0.000 A 
ATOM      4  C   UNL     1       3.830   5.427  17.731  0.00  0.00    +0.000 A 
ATOM      5  C   UNL     1       4.928   6.289  17.785  0.00  0.00    +0.000 A 
ATOM      6  C   UNL     1       6.044   6.058  16.979  0.00  0.00    +0.000 A 
ENDROOT
BRANCH   1   8
ATOM      7  C   UNL     1       7.105   4.776  14.028  0.00  0.00    +0.000 C 
ATOM      8  O   UNL     1       7.241   4.675  15.447  0.00  0.00    +0.000 OA
ENDBRANCH   1   8
BRANCH   3   9
ATOM      9  C   UNL     1       2.699   3.408  16.738  0.00  0.00    +0.000 C 
ATOM     10  N   UNL     1       2.421   2.359  17.461  0.00  0.00    +0.000 NA
BRANCH  10  11
ATOM     11  N   UNL     1       3.163   2.130  18.578  0.00  0.00    +0.000 N 
ATOM     12  C   UNL     1       2.756   2.428  19.839  0.00  0.00    +0.000 A 
ATOM     13  N   UNL     1       3.517   2.622  20.899  0.00  0.00    +0.000 NA
ATOM     14  N   UNL     1       2.701   2.912  21.972  0.00  0.00    +0.000 NA
ATOM     15  C   UNL     1       1.459   2.862  21.548  0.00  0.00    +0.000 A 
ATOM     16  N   UNL     1       1.435   2.558  20.220  0.00  0.00    +0.000 N 
ATOM     17  H   UNL     1       4.179   2.129  18.483  0.00  0.00    +0.000 HD
BRANCH  16  18
ATOM     18  N   UNL     1       0.257   2.392  19.417  0.00  0.00    +0.000 N 
ATOM     19  H   UNL     1       0.498   1.999  18.511  0.00  0.00    +0.000 HD
ATOM     20  H   UNL     1      -0.305   1.661  19.872  0.00  0.00    +0.000 HD
ENDBRANCH  16  18
ENDBRANCH  10  11
ENDBRANCH   3   9
BRANCH   6  21
ATOM     21  O   UNL     1       7.171   6.927  16.947  0.00  0.00    +0.000 OA
BRANCH  21  22
ATOM     22  C   UNL     1       7.894   7.366  18.060  0.00  0.00    +0.000 C 
ATOM     23  C   UNL     1       8.177   8.835  17.947  0.00  0.00    +0.000 C 
ATOM     24  O   UNL     1       8.284   6.685  19.001  0.00  0.00    +0.000 OA
ENDBRANCH  21  22
ENDBRANCH   6  21
TORSDOF 6
ENDMDL
MODEL 2
REMARK VINA RESULT:      -7.3      4.588      7.080
REMARK  Name = 
REMARK  8 active torsions:
REMARK  status: ('A' for Active; 'I' for Inactive)
REMARK    1  A    between atoms: C_1  and  O_2
REMARK    2  A    between atoms: O_2  and  C_3
REMARK    3  A    between atoms: C_5  and  C_6
REMARK    4  A    between atoms: N_7  and  N_8
REMARK    5  A    between atoms: N_13  and  N_14
REMARK    6  A    between atoms: C_17  and  O_18
REMARK    7  A    between atoms: O_18  and  C_19
REMARK    8  A    between atoms: C_19  and  C_20
REMARK                            x       y       z     vdW  Elec       q    Type
REMARK                         _______ _______ _______ _____ _____    ______ ____
ROOT
ATOM      1  C   UNL     1       3.378   6.352  18.227  0.00  0.00    +0.000 A 
ATOM      2  C   UNL     1       4.499   6.659  17.447  0.00  0.00    +0.000 A 
ATOM      3  C   UNL     1       5.739   6.082  17.735  0.00  0.00    +0.000 A 
ATOM      4  C   UNL     1       5.867   5.211  18.816  0.00  0.00    +0.000 A 
ATOM      5  C   UNL     1       4.741   4.850  19.559  0.00  0.00    +0.000 A 
ATOM      6  C   UNL     1       3.492   5.392  19.252  0.00  0.00    +0.000 A 
ENDROOT
BRANCH   1   8
ATOM      7  C   UNL     1       2.139   8.358  18.125  0.00  0.00    +0.000 C 
ATOM      8  O   UNL     1       2.149   6.932  18.020  0.00  0.00    +0.000 OA
ENDBRANCH   1   8
BRANCH   3   9
ATOM      9  C   UNL     1       6.893   6.507  16.914  0.00  0.00    +0.000 C 
ATOM     10  N   UNL     1       7.488   5.895  15.928  0.00  0.00    +0.000 NA
BRANCH  10  11
ATOM     11  N   UNL     1       6.924   4.759  15.438  0.00  0.00    +0.000 N 
ATOM     12  C   UNL     1       6.832   4.460  14.116  0.00  0.00    +0.000 A 
ATOM     13  N   UNL     1       5.982   3.630  13.542  0.00  0.00    +0.000 NA
ATOM     14  N   UNL     1       6.225   3.631  12.184  0.00  0.00    +0.000 NA
ATOM     15  C   UNL     1       7.235   4.442  11.965  0.00  0.00    +0.000 A 
ATOM     16  N   UNL     1       7.656   4.985  13.141  0.00  0.00    +0.000 N 
ATOM     17  H   UNL     1       6.193   4.311  15.993  0.00  0.00    +0.000 HD
BRANCH  16  18
ATOM     18  N   UNL     1       8.754   5.896  13.300  0.00  0.00    +0.000 N 
ATOM     19  H   UNL     1       9.334   5.902  12.465  0.00  0.00    +0.000 HD
ATOM     20  H   UNL     1       8.348   6.839  13.336  0.00  0.00    +0.000 HD
ENDBRANCH  16  18
ENDBRANCH  10  11
ENDBRANCH   3   9
BRANCH   6  21
ATOM     21  O   UNL     1       2.298   5.025  19.935  0.00  0.00    +0.000 OA
BRANCH  21  22
ATOM     22  C   UNL     1       1.556   3.862  19.712  0.00  0.00    +0.000 C 
ATOM     23  C   UNL     1       1.407   3.090  20.990  0.00  0.00    +0.000 C 
ATOM     24  O   UNL     1       1.095   3.474  18.645  0.00  0.00    +0.000 OA
ENDBRANCH  21  22
ENDBRANCH   6  21
TORSDOF 6
ENDMDL
MODEL 3
REMARK VINA RESULT:      -7.0      1.511      3.244
REMARK  Name = 
REMARK  8 active torsions:
REMARK  status: ('A' for Active; 'I' for Inactive)
REMARK    1  A    between atoms: C_1  and  O_2
REMARK    2  A    between atoms: O_2  and  C_3
REMARK    3  A    between atoms: C_5  and  C_6
REMARK    4  A    between atoms: N_7  and  N_8
REMARK    5  A    between atoms: N_13  and  N_14
REMARK    6  A    between atoms: C_17  and  O_18
REMARK    7  A    between atoms: O_18  and  C_19
REMARK    8  A    between atoms: C_19  and  C_20
REMARK                            x       y       z     vdW  Elec       q    Type
REMARK                         _______ _______ _______ _____ _____    ______ ____
ROOT
ATOM      1  C   UNL     1       5.612   6.425  16.857  0.00  0.00    +0.000 A 
ATOM      2  C   UNL     1       4.546   6.901  17.629  0.00  0.00    +0.000 A 
ATOM      3  C   UNL     1       3.462   6.069  17.926  0.00  0.00    +0.000 A 
ATOM      4  C   UNL     1       3.431   4.765  17.435  0.00  0.00    +0.000 A 
ATOM      5  C   UNL     1       4.519   4.262  16.718  0.00  0.00    +0.000 A 
ATOM      6  C   UNL     1       5.623   5.075  16.453  0.00  0.00    +0.000 A 
ENDROOT
BRANCH   1   8
ATOM      7  C   UNL     1       7.617   7.466  17.537  0.00  0.00    +0.000 C 
ATOM      8  O   UNL     1       6.674   7.217  16.492  0.00  0.00    +0.000 OA
ENDBRANCH   1   8
BRANCH   3   9
ATOM      9  C   UNL     1       2.340   6.660  18.685  0.00  0.00    +0.000 C 
ATOM     10  N   UNL     1       1.918   6.401  19.892  0.00  0.00    +0.000 NA
BRANCH  10  11
ATOM     11  N   UNL     1       2.665   5.576  20.674  0.00  0.00    +0.000 N 
ATOM     12  C   UNL     1       2.270   4.340  21.075  0.00  0.00    +0.000 A 
ATOM     13  N   UNL     1       2.709   3.660  22.118  0.00  0.00    +0.000 NA
ATOM     14  N   UNL     1       2.035   2.458  22.167  0.00  0.00    +0.000 NA
ATOM     15  C   UNL     1       1.220   2.421  21.138  0.00  0.00    +0.000 A 
ATOM     16  N   UNL     1       1.329   3.572  20.419  0.00  0.00    +0.000 N 
ATOM     17  H   UNL     1       3.330   6.004  21.319  0.00  0.00    +0.000 HD
BRANCH  16  18
ATOM     18  N   UNL     1       0.613   3.881  19.214  0.00  0.00    +0.000 N 
ATOM     19  H   UNL     1       0.147   4.780  19.299  0.00  0.00    +0.000 HD
ATOM     20  H   UNL     1       1.321   4.027  18.483  0.00  0.00    +0.000 HD
ENDBRANCH  16  18
ENDBRANCH  10  11
ENDBRANCH   3   9
BRANCH   6  21
ATOM     21  O   UNL     1       6.784   4.608  15.775  0.00  0.00    +0.000 OA
BRANCH  21  22
ATOM     22  C   UNL     1       7.076   4.809  14.423  0.00  0.00    +0.000 C 
ATOM     23  C   UNL     1       6.230   3.909  13.573  0.00  0.00    +0.000 C 
ATOM     24  O   UNL     1       7.910   5.575  13.954  0.00  0.00    +0.000 OA
ENDBRANCH  21  22
ENDBRANCH   6  21
TORSDOF 6
ENDMDL
MODEL 4
REMARK VINA RESULT:      -7.0      4.454      6.991
REMARK  Name = 
REMARK  8 active torsions:
REMARK  status: ('A' for Active; 'I' for Inactive)
REMARK    1  A    between atoms: C_1  and  O_2
REMARK    2  A    between atoms: O_2  and  C_3
REMARK    3  A    between atoms: C_5  and  C_6
REMARK    4  A    between atoms: N_7  and  N_8
REMARK    5  A    between atoms: N_13  and  N_14
REMARK    6  A    between atoms: C_17  and  O_18
REMARK    7  A    between atoms: O_18  and  C_19
REMARK    8  A    between atoms: C_19  and  C_20
REMARK                            x       y       z     vdW  Elec       q    Type
REMARK                         _______ _______ _______ _____ _____    ______ ____
ROOT
ATOM      1  C   UNL     1       4.762   4.378  19.243  0.00  0.00    +0.000 A 
ATOM      2  C   UNL     1       5.820   4.897  18.489  0.00  0.00    +0.000 A 
ATOM      3  C   UNL     1       5.637   6.042  17.709  0.00  0.00    +0.000 A 
ATOM      4  C   UNL     1       4.389   6.662  17.665  0.00  0.00    +0.000 A 
ATOM      5  C   UNL     1       3.346   6.188  18.463  0.00  0.00    +0.000 A 
ATOM      6  C   UNL     1       3.534   5.068  19.276  0.00  0.00    +0.000 A 
ENDROOT
BRANCH   1   8
ATOM      7  C   UNL     1       4.506   2.032  19.287  0.00  0.00    +0.000 C 
ATOM      8  O   UNL     1       4.874   3.226  19.983  0.00  0.00    +0.000 OA
ENDBRANCH   1   8
BRANCH   3   9
ATOM      9  C   UNL     1       6.778   6.493  16.883  0.00  0.00    +0.000 C 
ATOM     10  N   UNL     1       7.389   5.891  15.902  0.00  0.00    +0.000 NA
BRANCH  10  11
ATOM     11  N   UNL     1       6.858   4.734  15.422  0.00  0.00    +0.000 N 
ATOM     12  C   UNL     1       6.780   4.419  14.103  0.00  0.00    +0.000 A 
ATOM     13  N   UNL     1       5.955   3.560  13.534  0.00  0.00    +0.000 NA
ATOM     14  N   UNL     1       6.204   3.553  12.178  0.00  0.00    +0.000 NA
ATOM     15  C   UNL     1       7.193   4.388  11.954  0.00  0.00    +0.000 A 
ATOM     16  N   UNL     1       7.594   4.955  13.125  0.00  0.00    +0.000 N 
ATOM     17  H   UNL     1       6.136   4.274  15.979  0.00  0.00    +0.000 HD
BRANCH  16  18
ATOM     18  N   UNL     1       8.667   5.896  13.279  0.00  0.00    +0.000 N 
ATOM     19  H   UNL     1       8.300   6.840  13.373  0.00  0.00    +0.000 HD
ATOM     20  H   UNL     1       9.101   5.698  14.189  0.00  0.00    +0.000 HD
ENDBRANCH  16  18
ENDBRANCH  10  11
ENDBRANCH   3   9
BRANCH   6  21
ATOM     21  O   UNL     1       2.530   4.568  20.152  0.00  0.00    +0.000 OA
BRANCH  21  22
ATOM     22  C   UNL     1       1.549   3.630  19.818  0.00  0.00    +0.000 C 
ATOM     23  C   UNL     1       1.161   2.835  21.029  0.00  0.00    +0.000 C 
ATOM     24  O   UNL     1       1.066   3.431  18.710  0.00  0.00    +0.000 OA
ENDBRANCH  21  22
ENDBRANCH   6  21
TORSDOF 6
ENDMDL
MODEL 5
REMARK VINA RESULT:      -6.9      3.810      5.013
REMARK  Name = 
REMARK  8 active torsions:
REMARK  status: ('A' for Active; 'I' for Inactive)
REMARK    1  A    between atoms: C_1  and  O_2
REMARK    2  A    between atoms: O_2  and  C_3
REMARK    3  A    between atoms: C_5  and  C_6
REMARK    4  A    between atoms: N_7  and  N_8
REMARK    5  A    between atoms: N_13  and  N_14
REMARK    6  A    between atoms: C_17  and  O_18
REMARK    7  A    between atoms: O_18  and  C_19
REMARK    8  A    between atoms: C_19  and  C_20
REMARK                            x       y       z     vdW  Elec       q    Type
REMARK                         _______ _______ _______ _____ _____    ______ ____
ROOT
ATOM      1  C   UNL     1       6.192   5.100  17.960  0.00  0.00    +0.000 A 
ATOM      2  C   UNL     1       5.254   5.338  18.971  0.00  0.00    +0.000 A 
ATOM      3  C   UNL     1       3.937   4.891  18.833  0.00  0.00    +0.000 A 
ATOM      4  C   UNL     1       3.548   4.221  17.674  0.00  0.00    +0.000 A 
ATOM      5  C   UNL     1       4.491   3.924  16.688  0.00  0.00    +0.000 A 
ATOM      6  C   UNL     1       5.818   4.333  16.839  0.00  0.00    +0.000 A 
ENDROOT
BRANCH   1   8
ATOM      7  C   UNL     1       7.617   6.978  17.850  0.00  0.00    +0.000 C 
ATOM      8  O   UNL     1       7.483   5.565  18.022  0.00  0.00    +0.000 OA
ENDBRANCH   1   8
BRANCH   3   9
ATOM      9  C   UNL     1       2.984   5.238  19.908  0.00  0.00    +0.000 C 
ATOM     10  N   UNL     1       2.318   6.341  20.111  0.00  0.00    +0.000 NA
BRANCH  10  11
ATOM     11  N   UNL     1       2.351   7.302  19.150  0.00  0.00    +0.000 N 
ATOM     12  C   UNL     1       1.676   8.479  19.222  0.00  0.00    +0.000 A 
ATOM     13  N   UNL     1       1.322   9.260  18.219  0.00  0.00    +0.000 NA
ATOM     14  N   UNL     1       0.645  10.346  18.734  0.00  0.00    +0.000 NA
ATOM     15  C   UNL     1       0.624  10.215  20.040  0.00  0.00    +0.000 A 
ATOM     16  N   UNL     1       1.259   9.065  20.401  0.00  0.00    +0.000 N 
ATOM     17  H   UNL     1       2.524   7.008  18.187  0.00  0.00    +0.000 HD
BRANCH  16  18
ATOM     18  N   UNL     1       1.458   8.600  21.744  0.00  0.00    +0.000 N 
ATOM     19  H   UNL     1       2.242   9.083  22.174  0.00  0.00    +0.000 HD
ATOM     20  H   UNL     1       0.640   8.909  22.284  0.00  0.00    +0.000 HD
ENDBRANCH  16  18
ENDBRANCH  10  11
ENDBRANCH   3   9
BRANCH   6  21
ATOM     21  O   UNL     1       6.838   4.016  15.898  0.00  0.00    +0.000 OA
BRANCH  21  22
ATOM     22  C   UNL     1       7.037   4.646  14.666  0.00  0.00    +0.000 C 
ATOM     23  C   UNL     1       6.261   3.940  13.594  0.00  0.00    +0.000 C 
ATOM     24  O   UNL     1       7.750   5.617  14.440  0.00  0.00    +0.000 OA
ENDBRANCH  21  22
ENDBRANCH   6  21
TORSDOF 6
ENDMDL
MODEL 6
REMARK VINA RESULT:      -6.8      4.503      7.025
REMARK  Name = 
REMARK  8 active torsions:
REMARK  status: ('A' for Active; 'I' for Inactive)
REMARK    1  A    between atoms: C_1  and  O_2
REMARK    2  A    between atoms: O_2  and  C_3
REMARK    3  A    between atoms: C_5  and  C_6
REMARK    4  A    between atoms: N_7  and  N_8
REMARK    5  A    between atoms: N_13  and  N_14
REMARK    6  A    between atoms: C_17  and  O_18
REMARK    7  A    between atoms: O_18  and  C_19
REMARK    8  A    between atoms: C_19  and  C_20
REMARK                            x       y       z     vdW  Elec       q    Type
REMARK                         _______ _______ _______ _____ _____    ______ ____
ROOT
ATOM      1  C   UNL     1       4.075   3.824  18.361  0.00  0.00    +0.000 A 
ATOM      2  C   UNL     1       5.271   4.342  17.852  0.00  0.00    +0.000 A 
ATOM      3  C   UNL     1       5.320   5.646  17.352  0.00  0.00    +0.000 A 
ATOM      4  C   UNL     1       4.168   6.430  17.339  0.00  0.00    +0.000 A 
ATOM      5  C   UNL     1       2.986   5.944  17.903  0.00  0.00    +0.000 A 
ATOM      6  C   UNL     1       2.941   4.657  18.442  0.00  0.00    +0.000 A 
ENDROOT
BRANCH   1   8
ATOM      7  C   UNL     1       4.575   2.290  20.083  0.00  0.00    +0.000 C 
ATOM      8  O   UNL     1       3.961   2.532  18.815  0.00  0.00    +0.000 OA
ENDBRANCH   1   8
BRANCH   3   9
ATOM      9  C   UNL     1       6.598   6.103  16.765  0.00  0.00    +0.000 C 
ATOM     10  N   UNL     1       7.360   5.533  15.874  0.00  0.00    +0.000 NA
BRANCH  10  11
ATOM     11  N   UNL     1       6.898   4.419  15.245  0.00  0.00    +0.000 N 
ATOM     12  C   UNL     1       6.865   4.262  13.897  0.00  0.00    +0.000 A 
ATOM     13  N   UNL     1       6.096   3.441  13.207  0.00  0.00    +0.000 NA
ATOM     14  N   UNL     1       6.374   3.609  11.866  0.00  0.00    +0.000 NA
ATOM     15  C   UNL     1       7.325   4.509  11.771  0.00  0.00    +0.000 A 
ATOM     16  N   UNL     1       7.673   4.949  13.013  0.00  0.00    +0.000 N 
ATOM     17  H   UNL     1       6.188   3.862  15.723  0.00  0.00    +0.000 HD
BRANCH  16  18
ATOM     18  N   UNL     1       8.694   5.914  13.307  0.00  0.00    +0.000 N 
ATOM     19  H   UNL     1       8.279   6.774  13.656  0.00  0.00    +0.000 HD
ATOM     20  H   UNL     1       9.225   5.543  14.106  0.00  0.00    +0.000 HD
ENDBRANCH  16  18
ENDBRANCH  10  11
ENDBRANCH   3   9
BRANCH   6  21
ATOM     21  O   UNL     1       1.786   4.122  19.078  0.00  0.00    +0.000 OA
BRANCH  21  22
ATOM     22  C   UNL     1       1.416   4.335  20.409  0.00  0.00    +0.000 C 
ATOM     23  C   UNL     1       1.102   3.027  21.074  0.00  0.00    +0.000 C 
ATOM     24  O   UNL     1       1.320   5.412  20.985  0.00  0.00    +0.000 OA
ENDBRANCH  21  22
ENDBRANCH   6  21
TORSDOF 6
ENDMDL
MODEL 7
REMARK VINA RESULT:      -6.7      5.979      7.273
REMARK  Name = 
REMARK  8 active torsions:
REMARK  status: ('A' for Active; 'I' for Inactive)
REMARK    1  A    between atoms: C_1  and  O_2
REMARK    2  A    between atoms: O_2  and  C_3
REMARK    3  A    between atoms: C_5  and  C_6
REMARK    4  A    between atoms: N_7  and  N_8
REMARK    5  A    between atoms: N_13  and  N_14
REMARK    6  A    between atoms: C_17  and  O_18
REMARK    7  A    between atoms: O_18  and  C_19
REMARK    8  A    between atoms: C_19  and  C_20
REMARK                            x       y       z     vdW  Elec       q    Type
REMARK                         _______ _______ _______ _____ _____    ______ ____
ROOT
ATOM      1  C   UNL     1       1.732   4.680  18.444  0.00  0.00    +0.000 A 
ATOM      2  C   UNL     1       2.226   5.846  17.848  0.00  0.00    +0.000 A 
ATOM      3  C   UNL     1       2.423   7.001  18.610  0.00  0.00    +0.000 A 
ATOM      4  C   UNL     1       2.108   7.000  19.968  0.00  0.00    +0.000 A 
ATOM      5  C   UNL     1       1.676   5.824  20.584  0.00  0.00    +0.000 A 
ATOM      6  C   UNL     1       1.515   4.656  19.836  0.00  0.00    +0.000 A 
ENDROOT
BRANCH   1   8
ATOM      7  C   UNL     1       2.632   2.825  17.298  0.00  0.00    +0.000 C 
ATOM      8  O   UNL     1       1.470   3.536  17.730  0.00  0.00    +0.000 OA
ENDBRANCH   1   8
BRANCH   3   9
ATOM      9  C   UNL     1       2.880   8.215  17.900  0.00  0.00    +0.000 C 
ATOM     10  N   UNL     1       2.195   9.233  17.459  0.00  0.00    +0.000 NA
BRANCH  10  11
ATOM     11  N   UNL     1       0.880   9.321  17.794  0.00  0.00    +0.000 N 
ATOM     12  C   UNL     1       0.354  10.302  18.573  0.00  0.00    +0.000 A 
ATOM     13  N   UNL     1      -0.768  10.256  19.266  0.00  0.00    +0.000 NA
ATOM     14  N   UNL     1      -0.921  11.459  19.924  0.00  0.00    +0.000 NA
ATOM     15  C   UNL     1       0.099  12.220  19.596  0.00  0.00    +0.000 A 
ATOM     16  N   UNL     1       0.926  11.546  18.750  0.00  0.00    +0.000 N 
ATOM     17  H   UNL     1       0.339   8.456  17.834  0.00  0.00    +0.000 HD
BRANCH  16  18
ATOM     18  N   UNL     1       2.127  12.064  18.160  0.00  0.00    +0.000 N 
ATOM     19  H   UNL     1       2.702  11.306  17.802  0.00  0.00    +0.000 HD
ATOM     20  H   UNL     1       1.840  12.586  17.322  0.00  0.00    +0.000 HD
ENDBRANCH  16  18
ENDBRANCH  10  11
ENDBRANCH   3   9
BRANCH   6  21
ATOM     21  O   UNL     1       1.130   3.413  20.413  0.00  0.00    +0.000 OA
BRANCH  21  22
ATOM     22  C   UNL     1       1.822   2.731  21.418  0.00  0.00    +0.000 C 
ATOM     23  C   UNL     1       3.233   2.466  20.986  0.00  0.00    +0.000 C 
ATOM     24  O   UNL     1       1.377   2.359  22.497  0.00  0.00    +0.000 OA
ENDBRANCH  21  22
ENDBRANCH   6  21
TORSDOF 6
ENDMDL
MODEL 8
REMARK VINA RESULT:      -6.7      0.895      1.282
REMARK  Name = 
REMARK  8 active torsions:
REMARK  status: ('A' for Active; 'I' for Inactive)
REMARK    1  A    between atoms: C_1  and  O_2
REMARK    2  A    between atoms: O_2  and  C_3
REMARK    3  A    between atoms: C_5  and  C_6
REMARK    4  A    between atoms: N_7  and  N_8
REMARK    5  A    between atoms: N_13  and  N_14
REMARK    6  A    between atoms: C_17  and  O_18
REMARK    7  A    between atoms: O_18  and  C_19
REMARK    8  A    between atoms: C_19  and  C_20
REMARK                            x       y       z     vdW  Elec       q    Type
REMARK                         _______ _______ _______ _____ _____    ______ ____
ROOT
ATOM      1  C   UNL     1       6.138   5.429  15.988  0.00  0.00    +0.000 A 
ATOM      2  C   UNL     1       5.168   4.428  15.871  0.00  0.00    +0.000 A 
ATOM      3  C   UNL     1       4.069   4.403  16.734  0.00  0.00    +0.000 A 
ATOM      4  C   UNL     1       3.947   5.369  17.732  0.00  0.00    +0.000 A 
ATOM      5  C   UNL     1       4.876   6.408  17.815  0.00  0.00    +0.000 A 
ATOM      6  C   UNL     1       5.954   6.461  16.930  0.00  0.00    +0.000 A 
ENDROOT
BRANCH   1   8
ATOM      7  C   UNL     1       7.139   4.782  13.951  0.00  0.00    +0.000 C 
ATOM      8  O   UNL     1       7.263   5.467  15.200  0.00  0.00    +0.000 OA
ENDBRANCH   1   8
BRANCH   3   9
ATOM      9  C   UNL     1       3.121   3.277  16.598  0.00  0.00    +0.000 C 
ATOM     10  N   UNL     1       2.154   2.898  17.387  0.00  0.00    +0.000 NA
BRANCH  10  11
ATOM     11  N   UNL     1       1.824   3.698  18.435  0.00  0.00    +0.000 N 
ATOM     12  C   UNL     1       2.074   3.396  19.736  0.00  0.00    +0.000 A 
ATOM     13  N   UNL     1       1.459   3.876  20.800  0.00  0.00    +0.000 NA
ATOM     14  N   UNL     1       2.015   3.296  21.921  0.00  0.00    +0.000 NA
ATOM     15  C   UNL     1       2.973   2.495  21.516  0.00  0.00    +0.000 A 
ATOM     16  N   UNL     1       3.056   2.522  20.157  0.00  0.00    +0.000 N 
ATOM     17  H   UNL     1       1.024   4.323  18.325  0.00  0.00    +0.000 HD
BRANCH  16  18
ATOM     18  N   UNL     1       4.001   1.795  19.358  0.00  0.00    +0.000 N 
ATOM     19  H   UNL     1       4.952   2.036  19.625  0.00  0.00    +0.000 HD
ATOM     20  H   UNL     1       3.905   0.806  19.618  0.00  0.00    +0.000 HD
ENDBRANCH  16  18
ENDBRANCH  10  11
ENDBRANCH   3   9
BRANCH   6  21
ATOM     21  O   UNL     1       6.905   7.521  16.927  0.00  0.00    +0.000 OA
BRANCH  21  22
ATOM     22  C   UNL     1       7.841   7.779  17.932  0.00  0.00    +0.000 C 
ATOM     23  C   UNL     1       8.254   9.221  17.896  0.00  0.00    +0.000 C 
ATOM     24  O   UNL     1       8.307   6.975  18.731  0.00  0.00    +0.000 OA
ENDBRANCH  21  22
ENDBRANCH   6  21
TORSDOF 6
ENDMDL
MODEL 9
REMARK VINA RESULT:      -6.7      1.003      2.105
REMARK  Name = 
REMARK  8 active torsions:
REMARK  status: ('A' for Active; 'I' for Inactive)
REMARK    1  A    between atoms: C_1  and  O_2
REMARK    2  A    between atoms: O_2  and  C_3
REMARK    3  A    between atoms: C_5  and  C_6
REMARK    4  A    between atoms: N_7  and  N_8
REMARK    5  A    between atoms: N_13  and  N_14
REMARK    6  A    between atoms: C_17  and  O_18
REMARK    7  A    between atoms: O_18  and  C_19
REMARK    8  A    between atoms: C_19  and  C_20
REMARK                            x       y       z     vdW  Elec       q    Type
REMARK                         _______ _______ _______ _____ _____    ______ ____
ROOT
ATOM      1  C   UNL     1       4.625   6.377  17.272  0.00  0.00    +0.000 A 
ATOM      2  C   UNL     1       3.809   5.240  17.257  0.00  0.00    +0.000 A 
ATOM      3  C   UNL     1       4.283   4.036  16.728  0.00  0.00    +0.000 A 
ATOM      4  C   UNL     1       5.569   3.970  16.194  0.00  0.00    +0.000 A 
ATOM      5  C   UNL     1       6.412   5.081  16.263  0.00  0.00    +0.000 A 
ATOM      6  C   UNL     1       5.958   6.275  16.827  0.00  0.00    +0.000 A 
ENDROOT
BRANCH   1   8
ATOM      7  C   UNL     1       2.796   7.651  18.045  0.00  0.00    +0.000 C 
ATOM      8  O   UNL     1       4.189   7.596  17.731  0.00  0.00    +0.000 OA
ENDBRANCH   1   8
BRANCH   3   9
ATOM      9  C   UNL     1       3.342   2.897  16.680  0.00  0.00    +0.000 C 
ATOM     10  N   UNL     1       3.083   1.988  17.578  0.00  0.00    +0.000 NA
BRANCH  10  11
ATOM     11  N   UNL     1       3.620   2.134  18.819  0.00  0.00    +0.000 N 
ATOM     12  C   UNL     1       2.914   2.516  19.916  0.00  0.00    +0.000 A 
ATOM     13  N   UNL     1       3.388   3.063  21.019  0.00  0.00    +0.000 NA
ATOM     14  N   UNL     1       2.331   3.304  21.872  0.00  0.00    +0.000 NA
ATOM     15  C   UNL     1       1.241   2.874  21.280  0.00  0.00    +0.000 A 
ATOM     16  N   UNL     1       1.549   2.367  20.054  0.00  0.00    +0.000 N 
ATOM     17  H   UNL     1       4.609   2.376  18.886  0.00  0.00    +0.000 HD
BRANCH  16  18
ATOM     18  N   UNL     1       0.620   1.783  19.128  0.00  0.00    +0.000 N 
ATOM     19  H   UNL     1      -0.252   2.306  19.123  0.00  0.00    +0.000 HD
ATOM     20  H   UNL     1       1.012   1.929  18.189  0.00  0.00    +0.000 HD
ENDBRANCH  16  18
ENDBRANCH  10  11
ENDBRANCH   3   9
BRANCH   6  21
ATOM     21  O   UNL     1       6.783   7.425  16.976  0.00  0.00    +0.000 OA
BRANCH  21  22
ATOM     22  C   UNL     1       7.743   7.616  17.973  0.00  0.00    +0.000 C 
ATOM     23  C   UNL     1       8.227   9.036  17.960  0.00  0.00    +0.000 C 
ATOM     24  O   UNL     1       8.178   6.774  18.750  0.00  0.00    +0.000 OA
ENDBRANCH  21  22
ENDBRANCH   6  21
TORSDOF 6
ENDMDL
