MODEL 1
REMARK VINA RESULT:      -7.6      0.000      0.000
REMARK  Name = 
REMARK  7 active torsions:
REMARK  status: ('A' for Active; 'I' for Inactive)
REMARK    1  A    between atoms: C_1  and  O_2
REMARK    2  A    between atoms: O_2  and  C_3
REMARK    3  A    between atoms: C_6  and  N_7
REMARK    4  A    between atoms: C_16  and  C_17
REMARK    5  A    between atoms: C_17  and  C_19
REMARK    6  A    between atoms: C_25  and  C_27
REMARK    7  A    between atoms: C_33  and  C_34
REMARK                            x       y       z     vdW  Elec       q    Type
REMARK                         _______ _______ _______ _____ _____    ______ ____
ROOT
ATOM      1  C   UNL     1       6.867  14.391  21.761  0.00  0.00    +0.000 A 
ATOM      2  C   UNL     1       7.903  13.481  21.987  0.00  0.00    +0.000 A 
ATOM      3  N   UNL     1       8.787  13.042  21.065  0.00  0.00    +0.000 NA
ATOM      4  C   UNL     1       8.710  13.532  19.802  0.00  0.00    +0.000 A 
ATOM      5  C   UNL     1       7.685  14.438  19.500  0.00  0.00    +0.000 A 
ATOM      6  N   UNL     1       7.404  15.059  18.307  0.00  0.00    +0.000 N 
ATOM      7  C   UNL     1       6.259  15.783  18.416  0.00  0.00    +0.000 A 
ATOM      8  C   UNL     1       5.761  15.657  19.707  0.00  0.00    +0.000 A 
ATOM      9  C   UNL     1       6.718  14.850  20.433  0.00  0.00    +0.000 A 
ATOM     10  H   UNL     1       7.970  14.937  17.470  0.00  0.00    +0.000 HD
ENDROOT
BRANCH   4  11
ATOM     11  N   UNL     1       9.649  13.090  18.830  0.00  0.00    +0.000 N 
ATOM     12  C   UNL     1      10.349  11.905  18.870  0.00  0.00    +0.000 A 
ATOM     13  C   UNL     1      11.144  11.878  17.752  0.00  0.00    +0.000 A 
ATOM     14  C   UNL     1      10.881  13.095  17.100  0.00  0.00    +0.000 A 
ATOM     15  N   UNL     1      11.503  13.479  15.980  0.00  0.00    +0.000 N 
ATOM     16  N   UNL     1       9.963  13.825  17.724  0.00  0.00    +0.000 NA
ATOM     17  H   UNL     1      12.379  13.050  15.708  0.00  0.00    +0.000 HD
ATOM     18  H   UNL     1      11.437  14.459  15.728  0.00  0.00    +0.000 HD
ENDBRANCH   4  11
BRANCH   1  20
ATOM     19  C   UNL     1       6.335  14.494  24.075  0.00  0.00    +0.000 C 
ATOM     20  O   UNL     1       6.018  14.849  22.731  0.00  0.00    +0.000 OA
ENDBRANCH   1  20
BRANCH   8  21
ATOM     21  C   UNL     1       4.474  16.265  20.068  0.00  0.00    +0.000 C 
ATOM     22  O   UNL     1       4.299  16.736  21.195  0.00  0.00    +0.000 OA
BRANCH  21  23
ATOM     23  C   UNL     1       3.255  16.315  19.153  0.00  0.00    +0.000 C 
ATOM     24  O   UNL     1       2.942  17.388  18.646  0.00  0.00    +0.000 OA
ATOM     25  N   UNL     1       2.498  15.142  19.046  0.00  0.00    +0.000 N 
ATOM     26  C   UNL     1       1.224  15.145  18.318  0.00  0.00    +0.000 C 
ATOM     27  C   UNL     1       0.024  14.945  19.267  0.00  0.00    +0.000 C 
ATOM     28  N   UNL     1       0.232  13.802  20.184  0.00  0.00    +0.000 N 
ATOM     29  C   UNL     1      -0.634  12.705  20.098  0.00  0.00    +0.000 C 
ATOM     30  O   UNL     1      -1.529  12.643  19.255  0.00  0.00    +0.000 OA
ATOM     31  C   UNL     1       1.520  13.830  20.916  0.00  0.00    +0.000 C 
ATOM     32  C   UNL     1       1.493  14.917  21.997  0.00  0.00    +0.000 C 
ATOM     33  C   UNL     1       2.690  13.981  19.915  0.00  0.00    +0.000 C 
BRANCH  29  34
ATOM     34  C   UNL     1      -0.472  11.534  21.011  0.00  0.00    +0.000 A 
ATOM     35  C   UNL     1      -1.025  11.499  22.296  0.00  0.00    +0.000 A 
ATOM     36  C   UNL     1      -0.749  10.437  23.161  0.00  0.00    +0.000 A 
ATOM     37  C   UNL     1      -0.002   9.352  22.709  0.00  0.00    +0.000 A 
ATOM     38  C   UNL     1       0.461   9.325  21.395  0.00  0.00    +0.000 A 
ATOM     39  C   UNL     1       0.234  10.416  20.549  0.00  0.00    +0.000 A 
ENDBRANCH  29  34
ENDBRANCH  21  23
ENDBRANCH   8  21
TORSDOF 5
ENDMDL
MODEL 2
REMARK VINA RESULT:      -7.5      5.138      7.799
REMARK  Name = 
REMARK  7 active torsions:
REMARK  status: ('A' for Active; 'I' for Inactive)
REMARK    1  A    between atoms: C_1  and  O_2
REMARK    2  A    between atoms: O_2  and  C_3
REMARK    3  A    between atoms: C_6  and  N_7
REMARK    4  A    between atoms: C_16  and  C_17
REMARK    5  A    between atoms: C_17  and  C_19
REMARK    6  A    between atoms: C_25  and  C_27
REMARK    7  A    between atoms: C_33  and  C_34
REMARK                            x       y       z     vdW  Elec       q    Type
REMARK                         _______ _______ _______ _____ _____    ______ ____
ROOT
ATOM      1  C   UNL     1       1.614   7.435  20.708  0.00  0.00    +0.000 A 
ATOM      2  C   UNL     1       2.044   6.107  20.674  0.00  0.00    +0.000 A 
ATOM      3  N   UNL     1       2.732   5.522  19.670  0.00  0.00    +0.000 NA
ATOM      4  C   UNL     1       3.082   6.272  18.595  0.00  0.00    +0.000 A 
ATOM      5  C   UNL     1       2.671   7.610  18.555  0.00  0.00    +0.000 A 
ATOM      6  N   UNL     1       2.897   8.555  17.582  0.00  0.00    +0.000 N 
ATOM      7  C   UNL     1       2.236   9.703  17.884  0.00  0.00    +0.000 A 
ATOM      8  C   UNL     1       1.558   9.536  19.086  0.00  0.00    +0.000 A 
ATOM      9  C   UNL     1       1.896   8.212  19.560  0.00  0.00    +0.000 A 
ATOM     10  H   UNL     1       3.450   8.372  16.748  0.00  0.00    +0.000 HD
ENDROOT
BRANCH   4  11
ATOM     11  N   UNL     1       3.823   5.669  17.542  0.00  0.00    +0.000 N 
ATOM     12  C   UNL     1       3.737   4.352  17.150  0.00  0.00    +0.000 A 
ATOM     13  C   UNL     1       4.621   4.190  16.113  0.00  0.00    +0.000 A 
ATOM     14  C   UNL     1       5.220   5.451  15.957  0.00  0.00    +0.000 A 
ATOM     15  N   UNL     1       6.189   5.700  15.069  0.00  0.00    +0.000 N 
ATOM     16  N   UNL     1       4.732   6.360  16.793  0.00  0.00    +0.000 NA
ATOM     17  H   UNL     1       6.727   4.939  14.670  0.00  0.00    +0.000 HD
ATOM     18  H   UNL     1       6.726   6.550  15.198  0.00  0.00    +0.000 HD
ENDBRANCH   4  11
BRANCH   1  20
ATOM     19  C   UNL     1      -0.464   8.068  21.673  0.00  0.00    +0.000 C 
ATOM     20  O   UNL     1       0.959   8.007  21.763  0.00  0.00    +0.000 OA
ENDBRANCH   1  20
BRANCH   8  21
ATOM     21  C   UNL     1       0.682  10.598  19.597  0.00  0.00    +0.000 C 
ATOM     22  O   UNL     1      -0.382  10.858  19.030  0.00  0.00    +0.000 OA
BRANCH  21  23
ATOM     23  C   UNL     1       1.013  11.494  20.786  0.00  0.00    +0.000 C 
ATOM     24  O   UNL     1       0.787  11.077  21.918  0.00  0.00    +0.000 OA
ATOM     25  N   UNL     1       1.448  12.793  20.496  0.00  0.00    +0.000 N 
ATOM     26  C   UNL     1       1.633  13.771  21.574  0.00  0.00    +0.000 C 
ATOM     27  C   UNL     1       0.590  14.906  21.501  0.00  0.00    +0.000 C 
ATOM     28  N   UNL     1       0.486  15.471  20.137  0.00  0.00    +0.000 N 
ATOM     29  C   UNL     1       0.833  16.813  19.937  0.00  0.00    +0.000 C 
ATOM     30  O   UNL     1       1.263  17.520  20.849  0.00  0.00    +0.000 OA
ATOM     31  C   UNL     1       0.286  14.463  19.070  0.00  0.00    +0.000 C 
ATOM     32  C   UNL     1      -1.138  13.899  19.132  0.00  0.00    +0.000 C 
ATOM     33  C   UNL     1       1.386  13.379  19.157  0.00  0.00    +0.000 C 
BRANCH  29  34
ATOM     34  C   UNL     1       0.731  17.432  18.582  0.00  0.00    +0.000 A 
ATOM     35  C   UNL     1      -0.437  18.050  18.122  0.00  0.00    +0.000 A 
ATOM     36  C   UNL     1      -0.528  18.509  16.805  0.00  0.00    +0.000 A 
ATOM     37  C   UNL     1       0.585  18.446  15.971  0.00  0.00    +0.000 A 
ATOM     38  C   UNL     1       1.788  17.933  16.454  0.00  0.00    +0.000 A 
ATOM     39  C   UNL     1       1.860  17.420  17.753  0.00  0.00    +0.000 A 
ENDBRANCH  29  34
ENDBRANCH  21  23
ENDBRANCH   8  21
TORSDOF 5
ENDMDL
MODEL 3
REMARK VINA RESULT:      -7.5      5.830      7.345
REMARK  Name = 
REMARK  7 active torsions:
REMARK  status: ('A' for Active; 'I' for Inactive)
REMARK    1  A    between atoms: C_1  and  O_2
REMARK    2  A    between atoms: O_2  and  C_3
REMARK    3  A    between atoms: C_6  and  N_7
REMARK    4  A    between atoms: C_16  and  C_17
REMARK    5  A    between atoms: C_17  and  C_19
REMARK    6  A    between atoms: C_25  and  C_27
REMARK    7  A    between atoms: C_33  and  C_34
REMARK                            x       y       z     vdW  Elec       q    Type
REMARK                         _______ _______ _______ _____ _____    ______ ____
ROOT
ATOM      1  C   UNL     1       1.328   7.715  20.776  0.00  0.00    +0.000 A 
ATOM      2  C   UNL     1       1.848   6.421  20.850  0.00  0.00    +0.000 A 
ATOM      3  N   UNL     1       2.585   5.807  19.900  0.00  0.00    +0.000 NA
ATOM      4  C   UNL     1       2.894   6.492  18.770  0.00  0.00    +0.000 A 
ATOM      5  C   UNL     1       2.393   7.792  18.621  0.00  0.00    +0.000 A 
ATOM      6  N   UNL     1       2.564   8.670  17.577  0.00  0.00    +0.000 N 
ATOM      7  C   UNL     1       1.823   9.790  17.784  0.00  0.00    +0.000 A 
ATOM      8  C   UNL     1       1.146   9.672  18.992  0.00  0.00    +0.000 A 
ATOM      9  C   UNL     1       1.569   8.416  19.572  0.00  0.00    +0.000 A 
ATOM     10  H   UNL     1       3.136   8.459  16.763  0.00  0.00    +0.000 HD
ENDROOT
BRANCH   4  11
ATOM     11  N   UNL     1       3.686   5.860  17.772  0.00  0.00    +0.000 N 
ATOM     12  C   UNL     1       3.703   4.511  17.495  0.00  0.00    +0.000 A 
ATOM     13  C   UNL     1       4.603   4.330  16.475  0.00  0.00    +0.000 A 
ATOM     14  C   UNL     1       5.104   5.615  16.210  0.00  0.00    +0.000 A 
ATOM     15  N   UNL     1       6.055   5.862  15.302  0.00  0.00    +0.000 N 
ATOM     16  N   UNL     1       4.542   6.552  16.965  0.00  0.00    +0.000 NA
ATOM     17  H   UNL     1       6.652   5.113  14.970  0.00  0.00    +0.000 HD
ATOM     18  H   UNL     1       6.524   6.759  15.357  0.00  0.00    +0.000 HD
ENDBRANCH   4  11
BRANCH   1  20
ATOM     19  C   UNL     1       1.355   9.215  22.620  0.00  0.00    +0.000 C 
ATOM     20  O   UNL     1       0.625   8.322  21.780  0.00  0.00    +0.000 OA
ENDBRANCH   1  20
BRANCH   8  21
ATOM     21  C   UNL     1       0.194  10.708  19.413  0.00  0.00    +0.000 C 
ATOM     22  O   UNL     1      -1.021  10.520  19.312  0.00  0.00    +0.000 OA
BRANCH  21  23
ATOM     23  C   UNL     1       0.591  12.087  19.931  0.00  0.00    +0.000 C 
ATOM     24  O   UNL     1       1.782  12.373  19.993  0.00  0.00    +0.000 OA
ATOM     25  N   UNL     1      -0.442  12.899  20.416  0.00  0.00    +0.000 N 
ATOM     26  C   UNL     1      -0.134  14.172  21.079  0.00  0.00    +0.000 C 
ATOM     27  C   UNL     1      -0.471  14.127  22.584  0.00  0.00    +0.000 C 
ATOM     28  N   UNL     1      -1.828  13.591  22.830  0.00  0.00    +0.000 N 
ATOM     29  C   UNL     1      -2.783  14.426  23.422  0.00  0.00    +0.000 C 
ATOM     30  O   UNL     1      -2.542  15.600  23.702  0.00  0.00    +0.000 OA
ATOM     31  C   UNL     1      -2.107  12.299  22.160  0.00  0.00    +0.000 C 
ATOM     32  C   UNL     1      -1.345  11.165  22.855  0.00  0.00    +0.000 C 
ATOM     33  C   UNL     1      -1.802  12.415  20.648  0.00  0.00    +0.000 C 
BRANCH  29  34
ATOM     34  C   UNL     1      -4.163  13.926  23.702  0.00  0.00    +0.000 A 
ATOM     35  C   UNL     1      -4.408  12.782  24.469  0.00  0.00    +0.000 A 
ATOM     36  C   UNL     1      -5.705  12.281  24.606  0.00  0.00    +0.000 A 
ATOM     37  C   UNL     1      -6.779  12.981  24.062  0.00  0.00    +0.000 A 
ATOM     38  C   UNL     1      -6.557  14.182  23.390  0.00  0.00    +0.000 A 
ATOM     39  C   UNL     1      -5.253  14.650  23.203  0.00  0.00    +0.000 A 
ENDBRANCH  29  34
ENDBRANCH  21  23
ENDBRANCH   8  21
TORSDOF 5
ENDMDL
MODEL 4
REMARK VINA RESULT:      -7.3      5.714      7.746
REMARK  Name = 
REMARK  7 active torsions:
REMARK  status: ('A' for Active; 'I' for Inactive)
REMARK    1  A    between atoms: C_1  and  O_2
REMARK    2  A    between atoms: O_2  and  C_3
REMARK    3  A    between atoms: C_6  and  N_7
REMARK    4  A    between atoms: C_16  and  C_17
REMARK    5  A    between atoms: C_17  and  C_19
REMARK    6  A    between atoms: C_25  and  C_27
REMARK    7  A    between atoms: C_33  and  C_34
REMARK                            x       y       z     vdW  Elec       q    Type
REMARK                         _______ _______ _______ _____ _____    ______ ____
ROOT
ATOM      1  C   UNL     1       1.721   9.884  18.550  0.00  0.00    +0.000 A 
ATOM      2  C   UNL     1       2.373   9.254  17.488  0.00  0.00    +0.000 A 
ATOM      3  N   UNL     1       2.799   7.973  17.467  0.00  0.00    +0.000 NA
ATOM      4  C   UNL     1       2.559   7.188  18.547  0.00  0.00    +0.000 A 
ATOM      5  C   UNL     1       1.921   7.758  19.656  0.00  0.00    +0.000 A 
ATOM      6  N   UNL     1       1.580   7.174  20.853  0.00  0.00    +0.000 N 
ATOM      7  C   UNL     1       1.068   8.106  21.698  0.00  0.00    +0.000 A 
ATOM      8  C   UNL     1       1.055   9.341  21.061  0.00  0.00    +0.000 A 
ATOM      9  C   UNL     1       1.535   9.107  19.717  0.00  0.00    +0.000 A 
ATOM     10  H   UNL     1       1.742   6.190  21.056  0.00  0.00    +0.000 HD
ENDROOT
BRANCH   4  11
ATOM     11  N   UNL     1       2.988   5.832  18.526  0.00  0.00    +0.000 N 
ATOM     12  C   UNL     1       2.341   4.795  17.893  0.00  0.00    +0.000 A 
ATOM     13  C   UNL     1       3.083   3.665  18.129  0.00  0.00    +0.000 A 
ATOM     14  C   UNL     1       4.149   4.101  18.933  0.00  0.00    +0.000 A 
ATOM     15  N   UNL     1       5.083   3.280  19.427  0.00  0.00    +0.000 N 
ATOM     16  N   UNL     1       4.120   5.409  19.160  0.00  0.00    +0.000 NA
ATOM     17  H   UNL     1       4.911   2.282  19.480  0.00  0.00    +0.000 HD
ATOM     18  H   UNL     1       5.653   3.633  20.187  0.00  0.00    +0.000 HD
ENDBRANCH   4  11
BRANCH   1  20
ATOM     19  C   UNL     1       2.153  12.154  17.995  0.00  0.00    +0.000 C 
ATOM     20  O   UNL     1       1.261  11.172  18.518  0.00  0.00    +0.000 OA
ENDBRANCH   1  20
BRANCH   8  21
ATOM     21  C   UNL     1       0.636  10.546  21.789  0.00  0.00    +0.000 C 
ATOM     22  O   UNL     1       0.291  10.474  22.972  0.00  0.00    +0.000 OA
BRANCH  21  23
ATOM     23  C   UNL     1       0.526  11.935  21.169  0.00  0.00    +0.000 C 
ATOM     24  O   UNL     1       1.498  12.682  21.219  0.00  0.00    +0.000 OA
ATOM     25  N   UNL     1      -0.733  12.310  20.684  0.00  0.00    +0.000 N 
ATOM     26  C   UNL     1      -0.970  13.682  20.219  0.00  0.00    +0.000 C 
ATOM     27  C   UNL     1      -1.932  14.444  21.155  0.00  0.00    +0.000 C 
ATOM     28  N   UNL     1      -3.146  13.654  21.458  0.00  0.00    +0.000 N 
ATOM     29  C   UNL     1      -4.389  14.145  21.038  0.00  0.00    +0.000 C 
ATOM     30  O   UNL     1      -4.496  15.185  20.389  0.00  0.00    +0.000 OA
ATOM     31  C   UNL     1      -2.878  12.278  21.938  0.00  0.00    +0.000 C 
ATOM     32  C   UNL     1      -2.332  12.311  23.369  0.00  0.00    +0.000 C 
ATOM     33  C   UNL     1      -1.953  11.544  20.938  0.00  0.00    +0.000 C 
BRANCH  29  34
ATOM     34  C   UNL     1      -5.644  13.390  21.333  0.00  0.00    +0.000 A 
ATOM     35  C   UNL     1      -6.332  13.516  22.544  0.00  0.00    +0.000 A 
ATOM     36  C   UNL     1      -7.433  12.703  22.825  0.00  0.00    +0.000 A 
ATOM     37  C   UNL     1      -7.916  11.831  21.853  0.00  0.00    +0.000 A 
ATOM     38  C   UNL     1      -7.305  11.777  20.602  0.00  0.00    +0.000 A 
ATOM     39  C   UNL     1      -6.167  12.548  20.343  0.00  0.00    +0.000 A 
ENDBRANCH  29  34
ENDBRANCH  21  23
ENDBRANCH   8  21
TORSDOF 5
ENDMDL
MODEL 5
REMARK VINA RESULT:      -7.3      1.246      1.466
REMARK  Name = 
REMARK  7 active torsions:
REMARK  status: ('A' for Active; 'I' for Inactive)
REMARK    1  A    between atoms: C_1  and  O_2
REMARK    2  A    between atoms: O_2  and  C_3
REMARK    3  A    between atoms: C_6  and  N_7
REMARK    4  A    between atoms: C_16  and  C_17
REMARK    5  A    between atoms: C_17  and  C_19
REMARK    6  A    between atoms: C_25  and  C_27
REMARK    7  A    between atoms: C_33  and  C_34
REMARK                            x       y       z     vdW  Elec       q    Type
REMARK                         _______ _______ _______ _____ _____    ______ ____
ROOT
ATOM      1  C   UNL     1       6.515  13.630  22.572  0.00  0.00    +0.000 A 
ATOM      2  C   UNL     1       7.261  12.465  22.761  0.00  0.00    +0.000 A 
ATOM      3  N   UNL     1       8.321  12.073  22.022  0.00  0.00    +0.000 NA
ATOM      4  C   UNL     1       8.745  12.876  21.013  0.00  0.00    +0.000 A 
ATOM      5  C   UNL     1       8.033  14.055  20.756  0.00  0.00    +0.000 A 
ATOM      6  N   UNL     1       8.265  15.013  19.798  0.00  0.00    +0.000 N 
ATOM      7  C   UNL     1       7.277  15.945  19.822  0.00  0.00    +0.000 A 
ATOM      8  C   UNL     1       6.366  15.618  20.819  0.00  0.00    +0.000 A 
ATOM      9  C   UNL     1       6.890  14.439  21.475  0.00  0.00    +0.000 A 
ATOM     10  H   UNL     1       9.050  14.973  19.152  0.00  0.00    +0.000 HD
ENDROOT
BRANCH   4  11
ATOM     11  N   UNL     1       9.871  12.480  20.241  0.00  0.00    +0.000 N 
ATOM     12  C   UNL     1      11.112  12.151  20.739  0.00  0.00    +0.000 A 
ATOM     13  C   UNL     1      11.900  11.839  19.660  0.00  0.00    +0.000 A 
ATOM     14  C   UNL     1      11.067  12.027  18.545  0.00  0.00    +0.000 A 
ATOM     15  N   UNL     1      11.481  11.873  17.282  0.00  0.00    +0.000 N 
ATOM     16  N   UNL     1       9.833  12.388  18.879  0.00  0.00    +0.000 NA
ATOM     17  H   UNL     1      12.470  11.890  17.062  0.00  0.00    +0.000 HD
ATOM     18  H   UNL     1      10.898  12.268  16.553  0.00  0.00    +0.000 HD
ENDBRANCH   4  11
BRANCH   1  20
ATOM     19  C   UNL     1       5.818  14.505  24.669  0.00  0.00    +0.000 C 
ATOM     20  O   UNL     1       5.476  14.020  23.371  0.00  0.00    +0.000 OA
ENDBRANCH   1  20
BRANCH   8  21
ATOM     21  C   UNL     1       5.145  16.414  20.997  0.00  0.00    +0.000 C 
ATOM     22  O   UNL     1       4.831  16.838  22.112  0.00  0.00    +0.000 OA
BRANCH  21  23
ATOM     23  C   UNL     1       4.148  16.727  19.886  0.00  0.00    +0.000 C 
ATOM     24  O   UNL     1       3.930  17.901  19.603  0.00  0.00    +0.000 OA
ATOM     25  N   UNL     1       3.454  15.642  19.337  0.00  0.00    +0.000 N 
ATOM     26  C   UNL     1       2.364  15.866  18.380  0.00  0.00    +0.000 C 
ATOM     27  C   UNL     1       0.993  15.481  18.974  0.00  0.00    +0.000 C 
ATOM     28  N   UNL     1       1.023  14.144  19.606  0.00  0.00    +0.000 N 
ATOM     29  C   UNL     1       0.217  13.131  19.072  0.00  0.00    +0.000 C 
ATOM     30  O   UNL     1      -0.476  13.306  18.071  0.00  0.00    +0.000 OA
ATOM     31  C   UNL     1       2.124  13.949  20.578  0.00  0.00    +0.000 C 
ATOM     32  C   UNL     1       1.847  14.739  21.861  0.00  0.00    +0.000 C 
ATOM     33  C   UNL     1       3.478  14.298  19.915  0.00  0.00    +0.000 C 
BRANCH  29  34
ATOM     34  C   UNL     1       0.202  11.768  19.684  0.00  0.00    +0.000 A 
ATOM     35  C   UNL     1      -0.504  11.475  20.855  0.00  0.00    +0.000 A 
ATOM     36  C   UNL     1      -0.394  10.220  21.459  0.00  0.00    +0.000 A 
ATOM     37  C   UNL     1       0.343   9.215  20.836  0.00  0.00    +0.000 A 
ATOM     38  C   UNL     1       0.960   9.462  19.612  0.00  0.00    +0.000 A 
ATOM     39  C   UNL     1       0.898  10.736  19.039  0.00  0.00    +0.000 A 
ENDBRANCH  29  34
ENDBRANCH  21  23
ENDBRANCH   8  21
TORSDOF 5
ENDMDL
MODEL 6
REMARK VINA RESULT:      -7.3      6.146      7.935
REMARK  Name = 
REMARK  7 active torsions:
REMARK  status: ('A' for Active; 'I' for Inactive)
REMARK    1  A    between atoms: C_1  and  O_2
REMARK    2  A    between atoms: O_2  and  C_3
REMARK    3  A    between atoms: C_6  and  N_7
REMARK    4  A    between atoms: C_16  and  C_17
REMARK    5  A    between atoms: C_17  and  C_19
REMARK    6  A    between atoms: C_25  and  C_27
REMARK    7  A    between atoms: C_33  and  C_34
REMARK                            x       y       z     vdW  Elec       q    Type
REMARK                         _______ _______ _______ _____ _____    ______ ____
ROOT
ATOM      1  C   UNL     1       0.900   9.885  18.705  0.00  0.00    +0.000 A 
ATOM      2  C   UNL     1       1.496   9.186  17.653  0.00  0.00    +0.000 A 
ATOM      3  N   UNL     1       2.195   8.036  17.761  0.00  0.00    +0.000 NA
ATOM      4  C   UNL     1       2.324   7.463  18.985  0.00  0.00    +0.000 A 
ATOM      5  C   UNL     1       1.764   8.118  20.089  0.00  0.00    +0.000 A 
ATOM      6  N   UNL     1       1.768   7.741  21.411  0.00  0.00    +0.000 N 
ATOM      7  C   UNL     1       1.202   8.712  22.174  0.00  0.00    +0.000 A 
ATOM      8  C   UNL     1       0.800   9.760  21.355  0.00  0.00    +0.000 A 
ATOM      9  C   UNL     1       1.093   9.349  19.999  0.00  0.00    +0.000 A 
ATOM     10  H   UNL     1       2.183   6.872  21.739  0.00  0.00    +0.000 HD
ENDROOT
BRANCH   4  11
ATOM     11  N   UNL     1       3.044   6.242  19.105  0.00  0.00    +0.000 N 
ATOM     12  C   UNL     1       4.203   5.923  18.435  0.00  0.00    +0.000 A 
ATOM     13  C   UNL     1       4.554   4.658  18.833  0.00  0.00    +0.000 A 
ATOM     14  C   UNL     1       3.541   4.273  19.727  0.00  0.00    +0.000 A 
ATOM     15  N   UNL     1       3.489   3.069  20.307  0.00  0.00    +0.000 N 
ATOM     16  N   UNL     1       2.637   5.227  19.922  0.00  0.00    +0.000 NA
ATOM     17  H   UNL     1       4.009   2.291  19.918  0.00  0.00    +0.000 HD
ATOM     18  H   UNL     1       2.608   2.796  20.727  0.00  0.00    +0.000 HD
ENDBRANCH   4  11
BRANCH   1  20
ATOM     19  C   UNL     1      -1.199  10.850  18.147  0.00  0.00    +0.000 C 
ATOM     20  O   UNL     1       0.158  11.023  18.552  0.00  0.00    +0.000 OA
ENDBRANCH   1  20
BRANCH   8  21
ATOM     21  C   UNL     1       0.241  10.986  21.939  0.00  0.00    +0.000 C 
ATOM     22  O   UNL     1      -0.361  10.948  23.016  0.00  0.00    +0.000 OA
BRANCH  21  23
ATOM     23  C   UNL     1       0.287  12.358  21.276  0.00  0.00    +0.000 C 
ATOM     24  O   UNL     1       1.368  12.932  21.183  0.00  0.00    +0.000 OA
ATOM     25  N   UNL     1      -0.942  12.928  20.920  0.00  0.00    +0.000 N 
ATOM     26  C   UNL     1      -1.004  14.308  20.426  0.00  0.00    +0.000 C 
ATOM     27  C   UNL     1      -1.710  15.243  21.430  0.00  0.00    +0.000 C 
ATOM     28  N   UNL     1      -2.992  14.676  21.902  0.00  0.00    +0.000 N 
ATOM     29  C   UNL     1      -4.179  15.358  21.604  0.00  0.00    +0.000 C 
ATOM     30  O   UNL     1      -4.190  16.385  20.926  0.00  0.00    +0.000 OA
ATOM     31  C   UNL     1      -2.899  13.286  22.408  0.00  0.00    +0.000 C 
ATOM     32  C   UNL     1      -2.189  13.262  23.766  0.00  0.00    +0.000 C 
ATOM     33  C   UNL     1      -2.231  12.384  21.344  0.00  0.00    +0.000 C 
BRANCH  29  34
ATOM     34  C   UNL     1      -5.497  14.832  22.071  0.00  0.00    +0.000 A 
ATOM     35  C   UNL     1      -6.000  15.090  23.351  0.00  0.00    +0.000 A 
ATOM     36  C   UNL     1      -7.178  14.480  23.788  0.00  0.00    +0.000 A 
ATOM     37  C   UNL     1      -7.917  13.690  22.911  0.00  0.00    +0.000 A 
ATOM     38  C   UNL     1      -7.482  13.517  21.598  0.00  0.00    +0.000 A 
ATOM     39  C   UNL     1      -6.271  14.079  21.180  0.00  0.00    +0.000 A 
ENDBRANCH  29  34
ENDBRANCH  21  23
ENDBRANCH   8  21
TORSDOF 5
ENDMDL
MODEL 7
REMARK VINA RESULT:      -7.2      2.565      8.955
REMARK  Name = 
REMARK  7 active torsions:
REMARK  status: ('A' for Active; 'I' for Inactive)
REMARK    1  A    between atoms: C_1  and  O_2
REMARK    2  A    between atoms: O_2  and  C_3
REMARK    3  A    between atoms: C_6  and  N_7
REMARK    4  A    between atoms: C_16  and  C_17
REMARK    5  A    between atoms: C_17  and  C_19
REMARK    6  A    between atoms: C_25  and  C_27
REMARK    7  A    between atoms: C_33  and  C_34
REMARK                            x       y       z     vdW  Elec       q    Type
REMARK                         _______ _______ _______ _____ _____    ______ ____
ROOT
ATOM      1  C   UNL     1       2.102  13.716  20.053  0.00  0.00    +0.000 A 
ATOM      2  C   UNL     1       1.337  12.726  20.673  0.00  0.00    +0.000 A 
ATOM      3  N   UNL     1       0.440  12.921  21.664  0.00  0.00    +0.000 NA
ATOM      4  C   UNL     1       0.213  14.186  22.099  0.00  0.00    +0.000 A 
ATOM      5  C   UNL     1       0.956  15.229  21.530  0.00  0.00    +0.000 A 
ATOM      6  N   UNL     1       0.908  16.575  21.806  0.00  0.00    +0.000 N 
ATOM      7  C   UNL     1       1.869  17.229  21.104  0.00  0.00    +0.000 A 
ATOM      8  C   UNL     1       2.574  16.313  20.333  0.00  0.00    +0.000 A 
ATOM      9  C   UNL     1       1.940  15.030  20.548  0.00  0.00    +0.000 A 
ATOM     10  H   UNL     1       0.261  16.981  22.478  0.00  0.00    +0.000 HD
ENDROOT
BRANCH   4  11
ATOM     11  N   UNL     1      -0.743  14.402  23.128  0.00  0.00    +0.000 N 
ATOM     12  C   UNL     1      -2.020  13.888  23.161  0.00  0.00    +0.000 A 
ATOM     13  C   UNL     1      -2.601  14.346  24.316  0.00  0.00    +0.000 A 
ATOM     14  C   UNL     1      -1.617  15.152  24.913  0.00  0.00    +0.000 A 
ATOM     15  N   UNL     1      -1.812  15.832  26.049  0.00  0.00    +0.000 N 
ATOM     16  N   UNL     1      -0.483  15.175  24.223  0.00  0.00    +0.000 NA
ATOM     17  H   UNL     1      -2.752  16.023  26.376  0.00  0.00    +0.000 HD
ATOM     18  H   UNL     1      -1.151  16.569  26.264  0.00  0.00    +0.000 HD
ENDBRANCH   4  11
BRANCH   1  20
ATOM     19  C   UNL     1       2.632  12.424  18.130  0.00  0.00    +0.000 C 
ATOM     20  O   UNL     1       2.967  13.488  19.019  0.00  0.00    +0.000 OA
ENDBRANCH   1  20
BRANCH   8  21
ATOM     21  C   UNL     1       3.737  16.745  19.546  0.00  0.00    +0.000 C 
ATOM     22  O   UNL     1       3.776  16.549  18.328  0.00  0.00    +0.000 OA
BRANCH  21  23
ATOM     23  C   UNL     1       4.987  17.390  20.134  0.00  0.00    +0.000 C 
ATOM     24  O   UNL     1       5.089  18.613  20.105  0.00  0.00    +0.000 OA
ATOM     25  N   UNL     1       5.999  16.525  20.567  0.00  0.00    +0.000 N 
ATOM     26  C   UNL     1       7.298  17.058  20.996  0.00  0.00    +0.000 C 
ATOM     27  C   UNL     1       8.424  16.679  20.011  0.00  0.00    +0.000 C 
ATOM     28  N   UNL     1       8.404  15.238  19.680  0.00  0.00    +0.000 N 
ATOM     29  C   UNL     1       9.502  14.449  20.045  0.00  0.00    +0.000 C 
ATOM     30  O   UNL     1      10.458  14.908  20.670  0.00  0.00    +0.000 OA
ATOM     31  C   UNL     1       7.085  14.728  19.237  0.00  0.00    +0.000 C 
ATOM     32  C   UNL     1       6.767  15.233  17.826  0.00  0.00    +0.000 C 
ATOM     33  C   UNL     1       6.004  15.090  20.283  0.00  0.00    +0.000 C 
BRANCH  29  34
ATOM     34  C   UNL     1       9.535  12.991  19.720  0.00  0.00    +0.000 A 
ATOM     35  C   UNL     1       9.693  12.514  18.415  0.00  0.00    +0.000 A 
ATOM     36  C   UNL     1       9.597  11.147  18.141  0.00  0.00    +0.000 A 
ATOM     37  C   UNL     1       9.445  10.240  19.186  0.00  0.00    +0.000 A 
ATOM     38  C   UNL     1       9.397  10.697  20.502  0.00  0.00    +0.000 A 
ATOM     39  C   UNL     1       9.434  12.069  20.770  0.00  0.00    +0.000 A 
ENDBRANCH  29  34
ENDBRANCH  21  23
ENDBRANCH   8  21
TORSDOF 5
ENDMDL
MODEL 8
REMARK VINA RESULT:      -7.1      3.088      8.899
REMARK  Name = 
REMARK  7 active torsions:
REMARK  status: ('A' for Active; 'I' for Inactive)
REMARK    1  A    between atoms: C_1  and  O_2
REMARK    2  A    between atoms: O_2  and  C_3
REMARK    3  A    between atoms: C_6  and  N_7
REMARK    4  A    between atoms: C_16  and  C_17
REMARK    5  A    between atoms: C_17  and  C_19
REMARK    6  A    between atoms: C_25  and  C_27
REMARK    7  A    between atoms: C_33  and  C_34
REMARK                            x       y       z     vdW  Elec       q    Type
REMARK                         _______ _______ _______ _____ _____    ______ ____
ROOT
ATOM      1  C   UNL     1       0.218  11.037  20.522  0.00  0.00    +0.000 A 
ATOM      2  C   UNL     1      -0.458   9.905  20.060  0.00  0.00    +0.000 A 
ATOM      3  N   UNL     1      -1.344   9.872  19.041  0.00  0.00    +0.000 NA
ATOM      4  C   UNL     1      -1.602  11.019  18.363  0.00  0.00    +0.000 A 
ATOM      5  C   UNL     1      -0.969  12.197  18.782  0.00  0.00    +0.000 A 
ATOM      6  N   UNL     1      -1.074  13.465  18.263  0.00  0.00    +0.000 N 
ATOM      7  C   UNL     1      -0.373  14.342  19.029  0.00  0.00    +0.000 A 
ATOM      8  C   UNL     1       0.222  13.654  20.080  0.00  0.00    +0.000 A 
ATOM      9  C   UNL     1      -0.098  12.257  19.882  0.00  0.00    +0.000 A 
ATOM     10  H   UNL     1      -1.638  13.686  17.446  0.00  0.00    +0.000 HD
ENDROOT
BRANCH   4  11
ATOM     11  N   UNL     1      -2.519  10.989  17.277  0.00  0.00    +0.000 N 
ATOM     12  C   UNL     1      -3.808  11.472  17.300  0.00  0.00    +0.000 A 
ATOM     13  C   UNL     1      -4.340  11.239  16.057  0.00  0.00    +0.000 A 
ATOM     14  C   UNL     1      -3.315  10.588  15.349  0.00  0.00    +0.000 A 
ATOM     15  N   UNL     1      -3.456  10.141  14.096  0.00  0.00    +0.000 N 
ATOM     16  N   UNL     1      -2.203  10.454  16.062  0.00  0.00    +0.000 NA
ATOM     17  H   UNL     1      -4.379   9.998  13.704  0.00  0.00    +0.000 HD
ATOM     18  H   UNL     1      -2.768   9.476  13.763  0.00  0.00    +0.000 HD
ENDBRANCH   4  11
BRANCH   1  20
ATOM     19  C   UNL     1       1.302   9.795  22.234  0.00  0.00    +0.000 C 
ATOM     20  O   UNL     1       1.146  11.024  21.527  0.00  0.00    +0.000 OA
ENDBRANCH   1  20
BRANCH   8  21
ATOM     21  C   UNL     1       0.963  14.383  21.118  0.00  0.00    +0.000 C 
ATOM     22  O   UNL     1       1.063  13.919  22.257  0.00  0.00    +0.000 OA
BRANCH  21  23
ATOM     23  C   UNL     1       1.599  15.755  20.923  0.00  0.00    +0.000 C 
ATOM     24  O   UNL     1       0.867  16.724  20.748  0.00  0.00    +0.000 OA
ATOM     25  N   UNL     1       2.996  15.796  20.841  0.00  0.00    +0.000 N 
ATOM     26  C   UNL     1       3.682  17.047  20.495  0.00  0.00    +0.000 C 
ATOM     27  C   UNL     1       4.348  16.968  19.105  0.00  0.00    +0.000 C 
ATOM     28  N   UNL     1       5.152  15.735  18.950  0.00  0.00    +0.000 N 
ATOM     29  C   UNL     1       6.534  15.854  18.759  0.00  0.00    +0.000 C 
ATOM     30  O   UNL     1       7.103  16.945  18.763  0.00  0.00    +0.000 OA
ATOM     31  C   UNL     1       4.432  14.486  19.292  0.00  0.00    +0.000 C 
ATOM     32  C   UNL     1       3.397  14.155  18.211  0.00  0.00    +0.000 C 
ATOM     33  C   UNL     1       3.829  14.600  20.712  0.00  0.00    +0.000 C 
BRANCH  29  34
ATOM     34  C   UNL     1       7.385  14.639  18.583  0.00  0.00    +0.000 A 
ATOM     35  C   UNL     1       7.355  13.859  17.421  0.00  0.00    +0.000 A 
ATOM     36  C   UNL     1       8.077  12.666  17.346  0.00  0.00    +0.000 A 
ATOM     37  C   UNL     1       8.916  12.297  18.394  0.00  0.00    +0.000 A 
ATOM     38  C   UNL     1       9.039  13.122  19.510  0.00  0.00    +0.000 A 
ATOM     39  C   UNL     1       8.271  14.287  19.609  0.00  0.00    +0.000 A 
ENDBRANCH  29  34
ENDBRANCH  21  23
ENDBRANCH   8  21
TORSDOF 5
ENDMDL
MODEL 9
REMARK VINA RESULT:      -7.0      2.276      9.117
REMARK  Name = 
REMARK  7 active torsions:
REMARK  status: ('A' for Active; 'I' for Inactive)
REMARK    1  A    between atoms: C_1  and  O_2
REMARK    2  A    between atoms: O_2  and  C_3
REMARK    3  A    between atoms: C_6  and  N_7
REMARK    4  A    between atoms: C_16  and  C_17
REMARK    5  A    between atoms: C_17  and  C_19
REMARK    6  A    between atoms: C_25  and  C_27
REMARK    7  A    between atoms: C_33  and  C_34
REMARK                            x       y       z     vdW  Elec       q    Type
REMARK                         _______ _______ _______ _____ _____    ______ ____
ROOT
ATOM      1  C   UNL     1       0.980  15.666  18.937  0.00  0.00    +0.000 A 
ATOM      2  C   UNL     1      -0.253  15.008  18.969  0.00  0.00    +0.000 A 
ATOM      3  N   UNL     1      -0.563  13.943  19.739  0.00  0.00    +0.000 NA
ATOM      4  C   UNL     1       0.375  13.459  20.592  0.00  0.00    +0.000 A 
ATOM      5  C   UNL     1       1.640  14.061  20.602  0.00  0.00    +0.000 A 
ATOM      6  N   UNL     1       2.740  13.749  21.365  0.00  0.00    +0.000 N 
ATOM      7  C   UNL     1       3.800  14.512  20.990  0.00  0.00    +0.000 A 
ATOM      8  C   UNL     1       3.409  15.361  19.962  0.00  0.00    +0.000 A 
ATOM      9  C   UNL     1       1.996  15.126  19.758  0.00  0.00    +0.000 A 
ATOM     10  H   UNL     1       2.736  13.016  22.071  0.00  0.00    +0.000 HD
ENDROOT
BRANCH   4  11
ATOM     11  N   UNL     1       0.051  12.349  21.419  0.00  0.00    +0.000 N 
ATOM     12  C   UNL     1      -0.995  12.291  22.313  0.00  0.00    +0.000 A 
ATOM     13  C   UNL     1      -0.941  11.053  22.903  0.00  0.00    +0.000 A 
ATOM     14  C   UNL     1       0.181  10.434  22.327  0.00  0.00    +0.000 A 
ATOM     15  N   UNL     1       0.609   9.216  22.678  0.00  0.00    +0.000 N 
ATOM     16  N   UNL     1       0.774  11.192  21.412  0.00  0.00    +0.000 NA
ATOM     17  H   UNL     1       0.322   8.806  23.559  0.00  0.00    +0.000 HD
ATOM     18  H   UNL     1       1.551   8.960  22.401  0.00  0.00    +0.000 HD
ENDBRANCH   4  11
BRANCH   1  20
ATOM     19  C   UNL     1       0.122  17.569  17.802  0.00  0.00    +0.000 C 
ATOM     20  O   UNL     1       1.243  16.773  18.179  0.00  0.00    +0.000 OA
ENDBRANCH   1  20
BRANCH   8  21
ATOM     21  C   UNL     1       4.393  16.230  19.304  0.00  0.00    +0.000 C 
ATOM     22  O   UNL     1       4.508  16.226  18.075  0.00  0.00    +0.000 OA
BRANCH  21  23
ATOM     23  C   UNL     1       5.375  17.136  20.039  0.00  0.00    +0.000 C 
ATOM     24  O   UNL     1       5.142  18.339  20.091  0.00  0.00    +0.000 OA
ATOM     25  N   UNL     1       6.551  16.539  20.512  0.00  0.00    +0.000 N 
ATOM     26  C   UNL     1       7.621  17.362  21.087  0.00  0.00    +0.000 C 
ATOM     27  C   UNL     1       8.876  17.377  20.189  0.00  0.00    +0.000 C 
ATOM     28  N   UNL     1       9.272  16.013  19.775  0.00  0.00    +0.000 N 
ATOM     29  C   UNL     1      10.514  15.518  20.192  0.00  0.00    +0.000 C 
ATOM     30  O   UNL     1      11.261  16.164  20.927  0.00  0.00    +0.000 OA
ATOM     31  C   UNL     1       8.176  15.208  19.185  0.00  0.00    +0.000 C 
ATOM     32  C   UNL     1       7.836  15.722  17.782  0.00  0.00    +0.000 C 
ATOM     33  C   UNL     1       6.965  15.185  20.148  0.00  0.00    +0.000 C 
BRANCH  29  34
ATOM     34  C   UNL     1      10.965  14.152  19.789  0.00  0.00    +0.000 A 
ATOM     35  C   UNL     1      10.765  13.025  20.593  0.00  0.00    +0.000 A 
ATOM     36  C   UNL     1      11.308  11.789  20.233  0.00  0.00    +0.000 A 
ATOM     37  C   UNL     1      11.966  11.650  19.013  0.00  0.00    +0.000 A 
ATOM     38  C   UNL     1      12.074  12.742  18.153  0.00  0.00    +0.000 A 
ATOM     39  C   UNL     1      11.582  13.992  18.542  0.00  0.00    +0.000 A 
ENDBRANCH  29  34
ENDBRANCH  21  23
ENDBRANCH   8  21
TORSDOF 5
ENDMDL
