MODEL 1
REMARK VINA RESULT:      -7.0      0.000      0.000
REMARK  Name = 
REMARK  10 active torsions:
REMARK  status: ('A' for Active; 'I' for Inactive)
REMARK    1  A    between atoms: C_1  and  C_2
REMARK    2  A    between atoms: C_2  and  C_3
REMARK    3  A    between atoms: N_5  and  C_6
REMARK    4  A    between atoms: N_5  and  C_12
REMARK    5  A    between atoms: C_12  and  C_13
REMARK    6  A    between atoms: C_13  and  O_15
REMARK    7  A    between atoms: O_15  and  C_16
REMARK    8  A    between atoms: N_19  and  C_20
REMARK    9  A    between atoms: C_20  and  C_21
REMARK   10  A    between atoms: C_21  and  C_22
REMARK                            x       y       z     vdW  Elec       q    Type
REMARK                         _______ _______ _______ _____ _____    ______ ____
ROOT
ATOM      1  C   UNL     1       3.758   4.586  18.808  0.00  0.00    +0.000 C 
ATOM      2  C   UNL     1       2.269   4.614  18.363  0.00  0.00    +0.000 C 
ATOM      3  C   UNL     1       1.873   5.913  17.683  0.00  0.00    +0.000 C 
ATOM      4  N   UNL     1       2.095   7.067  18.568  0.00  0.00    +0.000 NA
ATOM      5  C   UNL     1       3.494   7.110  19.027  0.00  0.00    +0.000 C 
ATOM      6  C   UNL     1       3.887   5.813  19.756  0.00  0.00    +0.000 C 
ENDROOT
BRANCH   1   9
ATOM      7  C   UNL     1       4.770   3.767  16.608  0.00  0.00    +0.000 C 
ATOM      8  O   UNL     1       3.834   2.986  16.424  0.00  0.00    +0.000 OA
ATOM      9  N   UNL     1       4.814   4.652  17.698  0.00  0.00    +0.000 N 
BRANCH   9  10
ATOM     10  C   UNL     1       5.968   5.490  17.930  0.00  0.00    +0.000 A 
ATOM     11  C   UNL     1       6.136   6.677  17.203  0.00  0.00    +0.000 A 
ATOM     12  C   UNL     1       7.212   7.533  17.457  0.00  0.00    +0.000 A 
ATOM     13  C   UNL     1       8.135   7.223  18.454  0.00  0.00    +0.000 A 
ATOM     14  C   UNL     1       7.979   6.061  19.195  0.00  0.00    +0.000 A 
ATOM     15  C   UNL     1       6.902   5.197  18.938  0.00  0.00    +0.000 A 
ENDBRANCH   9  10
BRANCH   7  17
ATOM     16  C   UNL     1       5.528   4.370  14.288  0.00  0.00    +0.000 C 
ATOM     17  C   UNL     1       5.932   3.750  15.621  0.00  0.00    +0.000 C 
ENDBRANCH   7  17
ENDBRANCH   1   9
BRANCH   1  18
ATOM     18  C   UNL     1       3.842   3.249  19.583  0.00  0.00    +0.000 C 
ATOM     19  O   UNL     1       4.886   2.664  19.850  0.00  0.00    +0.000 OA
BRANCH  18  20
ATOM     20  O   UNL     1       2.614   2.854  20.036  0.00  0.00    +0.000 OA
ATOM     21  C   UNL     1       2.481   2.744  21.454  0.00  0.00    +0.000 C 
ENDBRANCH  18  20
ENDBRANCH   1  18
BRANCH   4  22
ATOM     22  C   UNL     1       1.734   8.324  17.869  0.00  0.00    +0.000 C 
BRANCH  22  23
ATOM     23  C   UNL     1       1.396   9.473  18.836  0.00  0.00    +0.000 C 
BRANCH  23  24
ATOM     24  C   UNL     1       0.168  10.220  18.392  0.00  0.00    +0.000 A 
ATOM     25  C   UNL     1      -0.819   9.580  17.655  0.00  0.00    +0.000 A 
ATOM     26  C   UNL     1      -1.945  10.303  17.279  0.00  0.00    +0.000 A 
ATOM     27  C   UNL     1      -2.051  11.641  17.643  0.00  0.00    +0.000 A 
ATOM     28  C   UNL     1      -1.020  12.202  18.372  0.00  0.00    +0.000 A 
ATOM     29  N   UNL     1       0.080  11.523  18.759  0.00  0.00    +0.000 NA
ENDBRANCH  23  24
ENDBRANCH  22  23
ENDBRANCH   4  22
TORSDOF 8
ENDMDL
MODEL 2
REMARK VINA RESULT:      -6.6      1.153      1.696
REMARK  Name = 
REMARK  10 active torsions:
REMARK  status: ('A' for Active; 'I' for Inactive)
REMARK    1  A    between atoms: C_1  and  C_2
REMARK    2  A    between atoms: C_2  and  C_3
REMARK    3  A    between atoms: N_5  and  C_6
REMARK    4  A    between atoms: N_5  and  C_12
REMARK    5  A    between atoms: C_12  and  C_13
REMARK    6  A    between atoms: C_13  and  O_15
REMARK    7  A    between atoms: O_15  and  C_16
REMARK    8  A    between atoms: N_19  and  C_20
REMARK    9  A    between atoms: C_20  and  C_21
REMARK   10  A    between atoms: C_21  and  C_22
REMARK                            x       y       z     vdW  Elec       q    Type
REMARK                         _______ _______ _______ _____ _____    ______ ____
ROOT
ATOM      1  C   UNL     1       3.449   4.789  18.714  0.00  0.00    +0.000 C 
ATOM      2  C   UNL     1       2.020   5.021  18.150  0.00  0.00    +0.000 C 
ATOM      3  C   UNL     1       1.845   6.386  17.508  0.00  0.00    +0.000 C 
ATOM      4  N   UNL     1       2.124   7.466  18.467  0.00  0.00    +0.000 NA
ATOM      5  C   UNL     1       3.472   7.316  19.043  0.00  0.00    +0.000 C 
ATOM      6  C   UNL     1       3.640   5.950  19.732  0.00  0.00    +0.000 C 
ENDROOT
BRANCH   1   9
ATOM      7  C   UNL     1       4.605   3.856  16.634  0.00  0.00    +0.000 C 
ATOM      8  O   UNL     1       3.650   3.116  16.389  0.00  0.00    +0.000 OA
ATOM      9  N   UNL     1       4.599   4.770  17.701  0.00  0.00    +0.000 N 
BRANCH   9  10
ATOM     10  C   UNL     1       5.771   5.557  18.012  0.00  0.00    +0.000 A 
ATOM     11  C   UNL     1       6.640   5.154  19.036  0.00  0.00    +0.000 A 
ATOM     12  C   UNL     1       7.812   5.866  19.310  0.00  0.00    +0.000 A 
ATOM     13  C   UNL     1       8.143   6.989  18.554  0.00  0.00    +0.000 A 
ATOM     14  C   UNL     1       7.304   7.397  17.528  0.00  0.00    +0.000 A 
ATOM     15  C   UNL     1       6.124   6.686  17.254  0.00  0.00    +0.000 A 
ENDBRANCH   9  10
BRANCH   7  17
ATOM     16  C   UNL     1       5.585   4.330  14.368  0.00  0.00    +0.000 C 
ATOM     17  C   UNL     1       5.846   3.752  15.754  0.00  0.00    +0.000 C 
ENDBRANCH   7  17
ENDBRANCH   1   9
BRANCH   1  18
ATOM     18  C   UNL     1       3.303   3.421  19.422  0.00  0.00    +0.000 C 
ATOM     19  O   UNL     1       4.241   2.743  19.827  0.00  0.00    +0.000 OA
BRANCH  18  20
ATOM     20  O   UNL     1       1.990   3.110  19.646  0.00  0.00    +0.000 OA
ATOM     21  C   UNL     1       1.674   2.666  20.966  0.00  0.00    +0.000 C 
ENDBRANCH  18  20
ENDBRANCH   1  18
BRANCH   4  22
ATOM     22  C   UNL     1       1.980   8.786  17.808  0.00  0.00    +0.000 C 
BRANCH  22  23
ATOM     23  C   UNL     1       0.565   9.376  17.948  0.00  0.00    +0.000 C 
BRANCH  23  24
ATOM     24  C   UNL     1       0.468  10.290  19.138  0.00  0.00    +0.000 A 
ATOM     25  C   UNL     1      -0.385   9.990  20.192  0.00  0.00    +0.000 A 
ATOM     26  C   UNL     1      -0.432  10.854  21.279  0.00  0.00    +0.000 A 
ATOM     27  C   UNL     1       0.367  11.992  21.283  0.00  0.00    +0.000 A 
ATOM     28  C   UNL     1       1.184  12.220  20.191  0.00  0.00    +0.000 A 
ATOM     29  N   UNL     1       1.257  11.395  19.127  0.00  0.00    +0.000 NA
ENDBRANCH  23  24
ENDBRANCH  22  23
ENDBRANCH   4  22
TORSDOF 8
ENDMDL
MODEL 3
REMARK VINA RESULT:      -6.6      1.117      1.763
REMARK  Name = 
REMARK  10 active torsions:
REMARK  status: ('A' for Active; 'I' for Inactive)
REMARK    1  A    between atoms: C_1  and  C_2
REMARK    2  A    between atoms: C_2  and  C_3
REMARK    3  A    between atoms: N_5  and  C_6
REMARK    4  A    between atoms: N_5  and  C_12
REMARK    5  A    between atoms: C_12  and  C_13
REMARK    6  A    between atoms: C_13  and  O_15
REMARK    7  A    between atoms: O_15  and  C_16
REMARK    8  A    between atoms: N_19  and  C_20
REMARK    9  A    between atoms: C_20  and  C_21
REMARK   10  A    between atoms: C_21  and  C_22
REMARK                            x       y       z     vdW  Elec       q    Type
REMARK                         _______ _______ _______ _____ _____    ______ ____
ROOT
ATOM      1  C   UNL     1       3.514   4.707  18.774  0.00  0.00    +0.000 C 
ATOM      2  C   UNL     1       2.063   4.871  18.240  0.00  0.00    +0.000 C 
ATOM      3  C   UNL     1       1.813   6.223  17.595  0.00  0.00    +0.000 C 
ATOM      4  N   UNL     1       2.066   7.320  18.541  0.00  0.00    +0.000 NA
ATOM      5  C   UNL     1       3.432   7.234  19.086  0.00  0.00    +0.000 C 
ATOM      6  C   UNL     1       3.676   5.882  19.780  0.00  0.00    +0.000 C 
ENDROOT
BRANCH   1   9
ATOM      7  C   UNL     1       4.643   3.835  16.652  0.00  0.00    +0.000 C 
ATOM      8  O   UNL     1       3.700   3.076  16.417  0.00  0.00    +0.000 OA
ATOM      9  N   UNL     1       4.640   4.731  17.734  0.00  0.00    +0.000 N 
BRANCH   9  10
ATOM     10  C   UNL     1       5.800   5.541  18.032  0.00  0.00    +0.000 A 
ATOM     11  C   UNL     1       6.692   5.152  19.042  0.00  0.00    +0.000 A 
ATOM     12  C   UNL     1       7.852   5.886  19.303  0.00  0.00    +0.000 A 
ATOM     13  C   UNL     1       8.150   7.019  18.547  0.00  0.00    +0.000 A 
ATOM     14  C   UNL     1       7.288   7.413  17.534  0.00  0.00    +0.000 A 
ATOM     15  C   UNL     1       6.120   6.679  17.274  0.00  0.00    +0.000 A 
ENDBRANCH   9  10
BRANCH   7  17
ATOM     16  C   UNL     1       5.555   4.353  14.367  0.00  0.00    +0.000 C 
ATOM     17  C   UNL     1       5.866   3.774  15.744  0.00  0.00    +0.000 C 
ENDBRANCH   7  17
ENDBRANCH   1   9
BRANCH   1  18
ATOM     18  C   UNL     1       3.444   3.338  19.492  0.00  0.00    +0.000 C 
ATOM     19  O   UNL     1       4.421   2.666  19.806  0.00  0.00    +0.000 OA
BRANCH  18  20
ATOM     20  O   UNL     1       2.161   3.020  19.842  0.00  0.00    +0.000 OA
ATOM     21  C   UNL     1       1.939   2.769  21.231  0.00  0.00    +0.000 C 
ENDBRANCH  18  20
ENDBRANCH   1  18
BRANCH   4  22
ATOM     22  C   UNL     1       1.849   8.628  17.877  0.00  0.00    +0.000 C 
BRANCH  22  23
ATOM     23  C   UNL     1       0.729   9.456  18.533  0.00  0.00    +0.000 C 
BRANCH  23  24
ATOM     24  C   UNL     1       1.066  10.922  18.545  0.00  0.00    +0.000 A 
ATOM     25  C   UNL     1       0.151  11.853  19.017  0.00  0.00    +0.000 A 
ATOM     26  C   UNL     1       0.510  13.195  19.025  0.00  0.00    +0.000 A 
ATOM     27  C   UNL     1       1.765  13.571  18.559  0.00  0.00    +0.000 A 
ATOM     28  C   UNL     1       2.614  12.580  18.101  0.00  0.00    +0.000 A 
ATOM     29  N   UNL     1       2.296  11.270  18.090  0.00  0.00    +0.000 NA
ENDBRANCH  23  24
ENDBRANCH  22  23
ENDBRANCH   4  22
TORSDOF 8
ENDMDL
MODEL 4
REMARK VINA RESULT:      -6.6      2.311      4.113
REMARK  Name = 
REMARK  10 active torsions:
REMARK  status: ('A' for Active; 'I' for Inactive)
REMARK    1  A    between atoms: C_1  and  C_2
REMARK    2  A    between atoms: C_2  and  C_3
REMARK    3  A    between atoms: N_5  and  C_6
REMARK    4  A    between atoms: N_5  and  C_12
REMARK    5  A    between atoms: C_12  and  C_13
REMARK    6  A    between atoms: C_13  and  O_15
REMARK    7  A    between atoms: O_15  and  C_16
REMARK    8  A    between atoms: N_19  and  C_20
REMARK    9  A    between atoms: C_20  and  C_21
REMARK   10  A    between atoms: C_21  and  C_22
REMARK                            x       y       z     vdW  Elec       q    Type
REMARK                         _______ _______ _______ _____ _____    ______ ____
ROOT
ATOM      1  C   UNL     1       5.828   5.568  17.911  0.00  0.00    +0.000 C 
ATOM      2  C   UNL     1       5.035   5.583  19.248  0.00  0.00    +0.000 C 
ATOM      3  C   UNL     1       3.574   5.957  19.071  0.00  0.00    +0.000 C 
ATOM      4  N   UNL     1       3.435   7.286  18.456  0.00  0.00    +0.000 NA
ATOM      5  C   UNL     1       4.159   7.346  17.175  0.00  0.00    +0.000 C 
ATOM      6  C   UNL     1       5.650   7.010  17.356  0.00  0.00    +0.000 C 
ENDROOT
BRANCH   1   9
ATOM      7  C   UNL     1       5.871   4.608  15.542  0.00  0.00    +0.000 C 
ATOM      8  O   UNL     1       6.728   5.420  15.187  0.00  0.00    +0.000 OA
ATOM      9  N   UNL     1       5.401   4.533  16.864  0.00  0.00    +0.000 N 
BRANCH   9  10
ATOM     10  C   UNL     1       4.331   3.629  17.222  0.00  0.00    +0.000 A 
ATOM     11  C   UNL     1       4.603   2.482  17.981  0.00  0.00    +0.000 A 
ATOM     12  C   UNL     1       3.574   1.629  18.393  0.00  0.00    +0.000 A 
ATOM     13  C   UNL     1       2.251   1.916  18.063  0.00  0.00    +0.000 A 
ATOM     14  C   UNL     1       1.959   3.054  17.325  0.00  0.00    +0.000 A 
ATOM     15  C   UNL     1       2.992   3.909  16.907  0.00  0.00    +0.000 A 
ENDBRANCH   9  10
BRANCH   7  17
ATOM     16  C   UNL     1       6.116   3.691  13.214  0.00  0.00    +0.000 C 
ATOM     17  C   UNL     1       5.287   3.668  14.493  0.00  0.00    +0.000 C 
ENDBRANCH   7  17
ENDBRANCH   1   9
BRANCH   1  18
ATOM     18  C   UNL     1       7.276   5.312  18.393  0.00  0.00    +0.000 C 
ATOM     19  O   UNL     1       7.976   4.373  18.027  0.00  0.00    +0.000 OA
BRANCH  18  20
ATOM     20  O   UNL     1       7.726   6.327  19.191  0.00  0.00    +0.000 OA
ATOM     21  C   UNL     1       8.319   7.435  18.511  0.00  0.00    +0.000 C 
ENDBRANCH  18  20
ENDBRANCH   1  18
BRANCH   4  22
ATOM     22  C   UNL     1       2.001   7.613  18.264  0.00  0.00    +0.000 C 
BRANCH  22  23
ATOM     23  C   UNL     1       1.709   9.120  18.370  0.00  0.00    +0.000 C 
BRANCH  23  24
ATOM     24  C   UNL     1       1.065   9.463  19.685  0.00  0.00    +0.000 A 
ATOM     25  C   UNL     1       1.140   8.583  20.758  0.00  0.00    +0.000 A 
ATOM     26  C   UNL     1       0.545   8.946  21.960  0.00  0.00    +0.000 A 
ATOM     27  C   UNL     1      -0.110  10.169  22.057  0.00  0.00    +0.000 A 
ATOM     28  C   UNL     1      -0.143  10.982  20.940  0.00  0.00    +0.000 A 
ATOM     29  N   UNL     1       0.433  10.661  19.763  0.00  0.00    +0.000 NA
ENDBRANCH  23  24
ENDBRANCH  22  23
ENDBRANCH   4  22
TORSDOF 8
ENDMDL
MODEL 5
REMARK VINA RESULT:      -6.5      5.325      8.536
REMARK  Name = 
REMARK  10 active torsions:
REMARK  status: ('A' for Active; 'I' for Inactive)
REMARK    1  A    between atoms: C_1  and  C_2
REMARK    2  A    between atoms: C_2  and  C_3
REMARK    3  A    between atoms: N_5  and  C_6
REMARK    4  A    between atoms: N_5  and  C_12
REMARK    5  A    between atoms: C_12  and  C_13
REMARK    6  A    between atoms: C_13  and  O_15
REMARK    7  A    between atoms: O_15  and  C_16
REMARK    8  A    between atoms: N_19  and  C_20
REMARK    9  A    between atoms: C_20  and  C_21
REMARK   10  A    between atoms: C_21  and  C_22
REMARK                            x       y       z     vdW  Elec       q    Type
REMARK                         _______ _______ _______ _____ _____    ______ ____
ROOT
ATOM      1  C   UNL     1      -0.047  12.224  20.374  0.00  0.00    +0.000 C 
ATOM      2  C   UNL     1      -0.485  13.686  20.080  0.00  0.00    +0.000 C 
ATOM      3  C   UNL     1       0.282  14.319  18.933  0.00  0.00    +0.000 C 
ATOM      4  N   UNL     1       1.728  14.334  19.202  0.00  0.00    +0.000 NA
ATOM      5  C   UNL     1       2.219  12.974  19.485  0.00  0.00    +0.000 C 
ATOM      6  C   UNL     1       1.474  12.344  20.675  0.00  0.00    +0.000 C 
ENDROOT
BRANCH   1   9
ATOM      7  C   UNL     1      -1.499  11.188  18.542  0.00  0.00    +0.000 C 
ATOM      8  O   UNL     1      -2.351  12.070  18.666  0.00  0.00    +0.000 OA
ATOM      9  N   UNL     1      -0.296  11.191  19.269  0.00  0.00    +0.000 N 
BRANCH   9  10
ATOM     10  C   UNL     1       0.639  10.094  19.163  0.00  0.00    +0.000 A 
ATOM     11  C   UNL     1       0.738   9.150  20.195  0.00  0.00    +0.000 A 
ATOM     12  C   UNL     1       1.590   8.046  20.085  0.00  0.00    +0.000 A 
ATOM     13  C   UNL     1       2.351   7.860  18.932  0.00  0.00    +0.000 A 
ATOM     14  C   UNL     1       2.257   8.776  17.894  0.00  0.00    +0.000 A 
ATOM     15  C   UNL     1       1.406   9.887  18.005  0.00  0.00    +0.000 A 
ENDBRANCH   9  10
BRANCH   7  17
ATOM     16  C   UNL     1      -3.268   9.726  17.517  0.00  0.00    +0.000 C 
ATOM     17  C   UNL     1      -1.778  10.041  17.577  0.00  0.00    +0.000 C 
ENDBRANCH   7  17
ENDBRANCH   1   9
BRANCH   1  18
ATOM     18  C   UNL     1      -0.862  11.889  21.647  0.00  0.00    +0.000 C 
ATOM     19  O   UNL     1      -2.072  12.046  21.760  0.00  0.00    +0.000 OA
BRANCH  18  20
ATOM     20  O   UNL     1      -0.083  11.285  22.596  0.00  0.00    +0.000 OA
ATOM     21  C   UNL     1      -0.647  10.130  23.218  0.00  0.00    +0.000 C 
ENDBRANCH  18  20
ENDBRANCH   1  18
BRANCH   4  22
ATOM     22  C   UNL     1       2.457  14.925  18.054  0.00  0.00    +0.000 C 
BRANCH  22  23
ATOM     23  C   UNL     1       3.142  16.259  18.400  0.00  0.00    +0.000 C 
BRANCH  23  24
ATOM     24  C   UNL     1       4.641  16.123  18.392  0.00  0.00    +0.000 A 
ATOM     25  C   UNL     1       5.241  14.964  17.917  0.00  0.00    +0.000 A 
ATOM     26  C   UNL     1       6.629  14.887  17.913  0.00  0.00    +0.000 A 
ATOM     27  C   UNL     1       7.375  15.961  18.384  0.00  0.00    +0.000 A 
ATOM     28  C   UNL     1       6.698  17.074  18.844  0.00  0.00    +0.000 A 
ATOM     29  N   UNL     1       5.353  17.181  18.853  0.00  0.00    +0.000 NA
ENDBRANCH  23  24
ENDBRANCH  22  23
ENDBRANCH   4  22
TORSDOF 8
ENDMDL
MODEL 6
REMARK VINA RESULT:      -6.4      0.587      1.237
REMARK  Name = 
REMARK  10 active torsions:
REMARK  status: ('A' for Active; 'I' for Inactive)
REMARK    1  A    between atoms: C_1  and  C_2
REMARK    2  A    between atoms: C_2  and  C_3
REMARK    3  A    between atoms: N_5  and  C_6
REMARK    4  A    between atoms: N_5  and  C_12
REMARK    5  A    between atoms: C_12  and  C_13
REMARK    6  A    between atoms: C_13  and  O_15
REMARK    7  A    between atoms: O_15  and  C_16
REMARK    8  A    between atoms: N_19  and  C_20
REMARK    9  A    between atoms: C_20  and  C_21
REMARK   10  A    between atoms: C_21  and  C_22
REMARK                            x       y       z     vdW  Elec       q    Type
REMARK                         _______ _______ _______ _____ _____    ______ ____
ROOT
ATOM      1  C   UNL     1       3.426   4.718  18.702  0.00  0.00    +0.000 C 
ATOM      2  C   UNL     1       1.986   4.905  18.149  0.00  0.00    +0.000 C 
ATOM      3  C   UNL     1       1.761   6.265  17.514  0.00  0.00    +0.000 C 
ATOM      4  N   UNL     1       2.013   7.350  18.474  0.00  0.00    +0.000 NA
ATOM      5  C   UNL     1       3.369   7.243  19.039  0.00  0.00    +0.000 C 
ATOM      6  C   UNL     1       3.587   5.881  19.722  0.00  0.00    +0.000 C 
ENDROOT
BRANCH   1   9
ATOM      7  C   UNL     1       4.582   3.846  16.595  0.00  0.00    +0.000 C 
ATOM      8  O   UNL     1       3.639   3.093  16.343  0.00  0.00    +0.000 OA
ATOM      9  N   UNL     1       4.568   4.739  17.680  0.00  0.00    +0.000 N 
BRANCH   9  10
ATOM     10  C   UNL     1       5.728   5.541  17.997  0.00  0.00    +0.000 A 
ATOM     11  C   UNL     1       6.626   5.122  18.989  0.00  0.00    +0.000 A 
ATOM     12  C   UNL     1       7.787   5.850  19.267  0.00  0.00    +0.000 A 
ATOM     13  C   UNL     1       8.078   7.007  18.546  0.00  0.00    +0.000 A 
ATOM     14  C   UNL     1       7.210   7.432  17.551  0.00  0.00    +0.000 A 
ATOM     15  C   UNL     1       6.041   6.704  17.275  0.00  0.00    +0.000 A 
ENDBRANCH   9  10
BRANCH   7  17
ATOM     16  C   UNL     1       5.511   4.298  14.303  0.00  0.00    +0.000 C 
ATOM     17  C   UNL     1       5.818   3.781  15.705  0.00  0.00    +0.000 C 
ENDBRANCH   7  17
ENDBRANCH   1   9
BRANCH   1  18
ATOM     18  C   UNL     1       3.330   3.343  19.407  0.00  0.00    +0.000 C 
ATOM     19  O   UNL     1       2.391   2.565  19.289  0.00  0.00    +0.000 OA
BRANCH  18  20
ATOM     20  O   UNL     1       4.479   3.048  20.088  0.00  0.00    +0.000 OA
ATOM     21  C   UNL     1       4.735   1.659  20.302  0.00  0.00    +0.000 C 
ENDBRANCH  18  20
ENDBRANCH   1  18
BRANCH   4  22
ATOM     22  C   UNL     1       1.821   8.667  17.821  0.00  0.00    +0.000 C 
BRANCH  22  23
ATOM     23  C   UNL     1       1.420   9.776  18.810  0.00  0.00    +0.000 C 
BRANCH  23  24
ATOM     24  C   UNL     1       0.033  10.287  18.528  0.00  0.00    +0.000 A 
ATOM     25  C   UNL     1      -0.786   9.636  17.614  0.00  0.00    +0.000 A 
ATOM     26  C   UNL     1      -2.066  10.132  17.396  0.00  0.00    +0.000 A 
ATOM     27  C   UNL     1      -2.489  11.261  18.087  0.00  0.00    +0.000 A 
ATOM     28  C   UNL     1      -1.608  11.852  18.974  0.00  0.00    +0.000 A 
ATOM     29  N   UNL     1      -0.365  11.388  19.213  0.00  0.00    +0.000 NA
ENDBRANCH  23  24
ENDBRANCH  22  23
ENDBRANCH   4  22
TORSDOF 8
ENDMDL
MODEL 7
REMARK VINA RESULT:      -6.4      2.408      4.180
REMARK  Name = 
REMARK  10 active torsions:
REMARK  status: ('A' for Active; 'I' for Inactive)
REMARK    1  A    between atoms: C_1  and  C_2
REMARK    2  A    between atoms: C_2  and  C_3
REMARK    3  A    between atoms: N_5  and  C_6
REMARK    4  A    between atoms: N_5  and  C_12
REMARK    5  A    between atoms: C_12  and  C_13
REMARK    6  A    between atoms: C_13  and  O_15
REMARK    7  A    between atoms: O_15  and  C_16
REMARK    8  A    between atoms: N_19  and  C_20
REMARK    9  A    between atoms: C_20  and  C_21
REMARK   10  A    between atoms: C_21  and  C_22
REMARK                            x       y       z     vdW  Elec       q    Type
REMARK                         _______ _______ _______ _____ _____    ______ ____
ROOT
ATOM      1  C   UNL     1       5.826   5.690  17.817  0.00  0.00    +0.000 C 
ATOM      2  C   UNL     1       5.386   5.514  19.297  0.00  0.00    +0.000 C 
ATOM      3  C   UNL     1       3.891   5.684  19.501  0.00  0.00    +0.000 C 
ATOM      4  N   UNL     1       3.441   7.013  19.059  0.00  0.00    +0.000 NA
ATOM      5  C   UNL     1       3.819   7.251  17.655  0.00  0.00    +0.000 C 
ATOM      6  C   UNL     1       5.339   7.121  17.452  0.00  0.00    +0.000 C 
ENDROOT
BRANCH   1   9
ATOM      7  C   UNL     1       5.633   4.746  15.449  0.00  0.00    +0.000 C 
ATOM      8  O   UNL     1       6.463   5.550  15.020  0.00  0.00    +0.000 OA
ATOM      9  N   UNL     1       5.289   4.667  16.809  0.00  0.00    +0.000 N 
BRANCH   9  10
ATOM     10  C   UNL     1       4.247   3.773  17.262  0.00  0.00    +0.000 A 
ATOM     11  C   UNL     1       2.899   4.109  17.075  0.00  0.00    +0.000 A 
ATOM     12  C   UNL     1       1.877   3.230  17.448  0.00  0.00    +0.000 A 
ATOM     13  C   UNL     1       2.187   1.989  18.003  0.00  0.00    +0.000 A 
ATOM     14  C   UNL     1       3.516   1.632  18.184  0.00  0.00    +0.000 A 
ATOM     15  C   UNL     1       4.542   2.516  17.814  0.00  0.00    +0.000 A 
ENDBRANCH   9  10
BRANCH   7  17
ATOM     16  C   UNL     1       5.779   3.648  13.192  0.00  0.00    +0.000 C 
ATOM     17  C   UNL     1       4.942   3.819  14.455  0.00  0.00    +0.000 C 
ENDBRANCH   7  17
ENDBRANCH   1   9
BRANCH   1  18
ATOM     18  C   UNL     1       7.368   5.615  17.923  0.00  0.00    +0.000 C 
ATOM     19  O   UNL     1       7.997   4.606  18.220  0.00  0.00    +0.000 OA
BRANCH  18  20
ATOM     20  O   UNL     1       7.954   6.787  17.530  0.00  0.00    +0.000 OA
ATOM     21  C   UNL     1       8.364   7.660  18.583  0.00  0.00    +0.000 C 
ENDBRANCH  18  20
ENDBRANCH   1  18
BRANCH   4  22
ATOM     22  C   UNL     1       1.975   7.142  19.236  0.00  0.00    +0.000 C 
BRANCH  22  23
ATOM     23  C   UNL     1       1.561   7.322  20.708  0.00  0.00    +0.000 C 
BRANCH  23  24
ATOM     24  C   UNL     1       0.947   8.675  20.942  0.00  0.00    +0.000 A 
ATOM     25  C   UNL     1       0.334   8.972  22.153  0.00  0.00    +0.000 A 
ATOM     26  C   UNL     1      -0.206  10.239  22.333  0.00  0.00    +0.000 A 
ATOM     27  C   UNL     1      -0.125  11.170  21.304  0.00  0.00    +0.000 A 
ATOM     28  C   UNL     1       0.497  10.792  20.129  0.00  0.00    +0.000 A 
ATOM     29  N   UNL     1       1.038   9.572  19.928  0.00  0.00    +0.000 NA
ENDBRANCH  23  24
ENDBRANCH  22  23
ENDBRANCH   4  22
TORSDOF 8
ENDMDL
MODEL 8
REMARK VINA RESULT:      -6.4      2.213      4.022
REMARK  Name = 
REMARK  10 active torsions:
REMARK  status: ('A' for Active; 'I' for Inactive)
REMARK    1  A    between atoms: C_1  and  C_2
REMARK    2  A    between atoms: C_2  and  C_3
REMARK    3  A    between atoms: N_5  and  C_6
REMARK    4  A    between atoms: N_5  and  C_12
REMARK    5  A    between atoms: C_12  and  C_13
REMARK    6  A    between atoms: C_13  and  O_15
REMARK    7  A    between atoms: O_15  and  C_16
REMARK    8  A    between atoms: N_19  and  C_20
REMARK    9  A    between atoms: C_20  and  C_21
REMARK   10  A    between atoms: C_21  and  C_22
REMARK                            x       y       z     vdW  Elec       q    Type
REMARK                         _______ _______ _______ _____ _____    ______ ____
ROOT
ATOM      1  C   UNL     1       5.830   5.662  17.739  0.00  0.00    +0.000 C 
ATOM      2  C   UNL     1       5.256   5.556  19.180  0.00  0.00    +0.000 C 
ATOM      3  C   UNL     1       3.767   5.839  19.252  0.00  0.00    +0.000 C 
ATOM      4  N   UNL     1       3.455   7.185  18.748  0.00  0.00    +0.000 NA
ATOM      5  C   UNL     1       3.965   7.359  17.377  0.00  0.00    +0.000 C 
ATOM      6  C   UNL     1       5.483   7.115  17.306  0.00  0.00    +0.000 C 
ENDROOT
BRANCH   1   9
ATOM      7  C   UNL     1       5.685   4.741  15.359  0.00  0.00    +0.000 C 
ATOM      8  O   UNL     1       6.536   5.538  14.958  0.00  0.00    +0.000 OA
ATOM      9  N   UNL     1       5.305   4.655  16.709  0.00  0.00    +0.000 N 
BRANCH   9  10
ATOM     10  C   UNL     1       4.240   3.772  17.127  0.00  0.00    +0.000 A 
ATOM     11  C   UNL     1       4.539   2.570  17.784  0.00  0.00    +0.000 A 
ATOM     12  C   UNL     1       3.522   1.732  18.254  0.00  0.00    +0.000 A 
ATOM     13  C   UNL     1       2.186   2.089  18.086  0.00  0.00    +0.000 A 
ATOM     14  C   UNL     1       1.869   3.281  17.451  0.00  0.00    +0.000 A 
ATOM     15  C   UNL     1       2.889   4.121  16.975  0.00  0.00    +0.000 A 
ENDBRANCH   9  10
BRANCH   7  17
ATOM     16  C   UNL     1       5.891   3.626  13.115  0.00  0.00    +0.000 C 
ATOM     17  C   UNL     1       5.006   3.832  14.340  0.00  0.00    +0.000 C 
ENDBRANCH   7  17
ENDBRANCH   1   9
BRANCH   1  18
ATOM     18  C   UNL     1       7.348   5.479  17.977  0.00  0.00    +0.000 C 
ATOM     19  O   UNL     1       7.876   4.431  18.332  0.00  0.00    +0.000 OA
BRANCH  18  20
ATOM     20  O   UNL     1       8.049   6.602  17.631  0.00  0.00    +0.000 OA
ATOM     21  C   UNL     1       8.356   7.496  18.701  0.00  0.00    +0.000 C 
ENDBRANCH  18  20
ENDBRANCH   1  18
BRANCH   4  22
ATOM     22  C   UNL     1       1.993   7.424  18.797  0.00  0.00    +0.000 C 
BRANCH  22  23
ATOM     23  C   UNL     1       1.527   8.508  17.808  0.00  0.00    +0.000 C 
BRANCH  23  24
ATOM     24  C   UNL     1       1.323   9.829  18.498  0.00  0.00    +0.000 A 
ATOM     25  C   UNL     1       0.405   9.950  19.533  0.00  0.00    +0.000 A 
ATOM     26  C   UNL     1       0.259  11.185  20.153  0.00  0.00    +0.000 A 
ATOM     27  C   UNL     1       1.027  12.261  19.723  0.00  0.00    +0.000 A 
ATOM     28  C   UNL     1       1.914  12.056  18.683  0.00  0.00    +0.000 A 
ATOM     29  N   UNL     1       2.083  10.867  18.067  0.00  0.00    +0.000 NA
ENDBRANCH  23  24
ENDBRANCH  22  23
ENDBRANCH   4  22
TORSDOF 8
ENDMDL
MODEL 9
REMARK VINA RESULT:      -6.3      7.582     10.803
REMARK  Name = 
REMARK  10 active torsions:
REMARK  status: ('A' for Active; 'I' for Inactive)
REMARK    1  A    between atoms: C_1  and  C_2
REMARK    2  A    between atoms: C_2  and  C_3
REMARK    3  A    between atoms: N_5  and  C_6
REMARK    4  A    between atoms: N_5  and  C_12
REMARK    5  A    between atoms: C_12  and  C_13
REMARK    6  A    between atoms: C_13  and  O_15
REMARK    7  A    between atoms: O_15  and  C_16
REMARK    8  A    between atoms: N_19  and  C_20
REMARK    9  A    between atoms: C_20  and  C_21
REMARK   10  A    between atoms: C_21  and  C_22
REMARK                            x       y       z     vdW  Elec       q    Type
REMARK                         _______ _______ _______ _____ _____    ______ ____
ROOT
ATOM      1  C   UNL     1       9.925  13.745  18.985  0.00  0.00    +0.000 C 
ATOM      2  C   UNL     1       9.696  12.959  17.664  0.00  0.00    +0.000 C 
ATOM      3  C   UNL     1       8.951  11.651  17.868  0.00  0.00    +0.000 C 
ATOM      4  N   UNL     1       9.674  10.765  18.792  0.00  0.00    +0.000 NA
ATOM      5  C   UNL     1       9.924  11.442  20.076  0.00  0.00    +0.000 C 
ATOM      6  C   UNL     1      10.716  12.747  19.879  0.00  0.00    +0.000 C 
ENDROOT
BRANCH   1   9
ATOM      7  C   UNL     1       7.620  14.850  19.013  0.00  0.00    +0.000 C 
ATOM      8  O   UNL     1       7.587  14.899  17.782  0.00  0.00    +0.000 OA
ATOM      9  N   UNL     1       8.676  14.247  19.718  0.00  0.00    +0.000 N 
BRANCH   9  10
ATOM     10  C   UNL     1       8.725  14.287  21.162  0.00  0.00    +0.000 A 
ATOM     11  C   UNL     1       9.464  15.284  21.815  0.00  0.00    +0.000 A 
ATOM     12  C   UNL     1       9.473  15.380  23.210  0.00  0.00    +0.000 A 
ATOM     13  C   UNL     1       8.730  14.485  23.978  0.00  0.00    +0.000 A 
ATOM     14  C   UNL     1       7.981  13.500  23.351  0.00  0.00    +0.000 A 
ATOM     15  C   UNL     1       7.975  13.400  21.951  0.00  0.00    +0.000 A 
ENDBRANCH   9  10
BRANCH   7  17
ATOM     16  C   UNL     1       5.125  15.022  19.273  0.00  0.00    +0.000 C 
ATOM     17  C   UNL     1       6.479  15.492  19.795  0.00  0.00    +0.000 C 
ENDBRANCH   7  17
ENDBRANCH   1   9
BRANCH   1  18
ATOM     18  C   UNL     1      10.811  14.923  18.514  0.00  0.00    +0.000 C 
ATOM     19  O   UNL     1      11.831  14.804  17.846  0.00  0.00    +0.000 OA
BRANCH  18  20
ATOM     20  O   UNL     1      10.252  16.130  18.837  0.00  0.00    +0.000 OA
ATOM     21  C   UNL     1      11.170  17.163  19.195  0.00  0.00    +0.000 C 
ENDBRANCH  18  20
ENDBRANCH   1  18
BRANCH   4  22
ATOM     22  C   UNL     1       8.911   9.511  19.001  0.00  0.00    +0.000 C 
BRANCH  22  23
ATOM     23  C   UNL     1       8.053   9.120  17.784  0.00  0.00    +0.000 C 
BRANCH  23  24
ATOM     24  C   UNL     1       7.761   7.645  17.771  0.00  0.00    +0.000 A 
ATOM     25  C   UNL     1       8.133   6.842  18.841  0.00  0.00    +0.000 A 
ATOM     26  C   UNL     1       7.829   5.487  18.796  0.00  0.00    +0.000 A 
ATOM     27  C   UNL     1       7.169   4.971  17.686  0.00  0.00    +0.000 A 
ATOM     28  C   UNL     1       6.839   5.839  16.661  0.00  0.00    +0.000 A 
ATOM     29  N   UNL     1       7.113   7.159  16.682  0.00  0.00    +0.000 NA
ENDBRANCH  23  24
ENDBRANCH  22  23
ENDBRANCH   4  22
TORSDOF 8
ENDMDL
