MODEL 1
REMARK VINA RESULT:      -6.8      0.000      0.000
REMARK  Name = 
REMARK  3 active torsions:
REMARK  status: ('A' for Active; 'I' for Inactive)
REMARK    1  A    between atoms: C_1  and  C_2
REMARK    2  A    between atoms: C_5  and  O_6
REMARK    3  A    between atoms: O_6  and  C_7
REMARK                            x       y       z     vdW  Elec       q    Type
REMARK                         _______ _______ _______ _____ _____    ______ ____
ROOT
ATOM      1  C   UNL     1       3.907   5.782  18.117  0.00  0.00    +0.000 A 
ATOM      2  N   UNL     1       5.180   5.948  18.538  0.00  0.00    +0.000 NA
ATOM      3  C   UNL     1       5.804   4.893  19.077  0.00  0.00    +0.000 A 
ATOM      4  N   UNL     1       5.327   3.654  19.226  0.00  0.00    +0.000 NA
ATOM      5  C   UNL     1       4.076   3.524  18.750  0.00  0.00    +0.000 A 
ATOM      6  S   UNL     1       3.268   2.022  18.810  0.00  0.00    +0.000 S 
ATOM      7  C   UNL     1       1.869   2.678  18.076  0.00  0.00    +0.000 A 
ATOM      8  C   UNL     1       2.017   4.018  17.794  0.00  0.00    +0.000 A 
ATOM      9  C   UNL     1       3.302   4.521  18.182  0.00  0.00    +0.000 A 
ENDROOT
BRANCH   1  10
ATOM     10  O   UNL     1       3.212   6.851  17.563  0.00  0.00    +0.000 OA
BRANCH  10  15
ATOM     11  C   UNL     1       0.034  10.301  20.770  0.00  0.00    +0.000 C 
ATOM     12  C   UNL     1       0.883   9.393  19.933  0.00  0.00    +0.000 A 
ATOM     13  C   UNL     1       1.117   9.658  18.579  0.00  0.00    +0.000 A 
ATOM     14  C   UNL     1       1.911   8.796  17.816  0.00  0.00    +0.000 A 
ATOM     15  C   UNL     1       2.483   7.666  18.400  0.00  0.00    +0.000 A 
ATOM     16  C   UNL     1       2.224   7.379  19.743  0.00  0.00    +0.000 A 
ATOM     17  C   UNL     1       1.445   8.246  20.509  0.00  0.00    +0.000 A 
ENDBRANCH  10  15
ENDBRANCH   1  10
TORSDOF 2
ENDMDL
MODEL 2
REMARK VINA RESULT:      -6.8      3.626      4.885
REMARK  Name = 
REMARK  3 active torsions:
REMARK  status: ('A' for Active; 'I' for Inactive)
REMARK    1  A    between atoms: C_1  and  C_2
REMARK    2  A    between atoms: C_5  and  O_6
REMARK    3  A    between atoms: O_6  and  C_7
REMARK                            x       y       z     vdW  Elec       q    Type
REMARK                         _______ _______ _______ _____ _____    ______ ____
ROOT
ATOM      1  C   UNL     1       6.520   4.885  18.296  0.00  0.00    +0.000 A 
ATOM      2  N   UNL     1       7.074   6.044  18.715  0.00  0.00    +0.000 NA
ATOM      3  C   UNL     1       7.566   6.875  17.787  0.00  0.00    +0.000 A 
ATOM      4  N   UNL     1       7.548   6.715  16.460  0.00  0.00    +0.000 NA
ATOM      5  C   UNL     1       6.945   5.573  16.088  0.00  0.00    +0.000 A 
ATOM      6  S   UNL     1       6.782   5.167  14.439  0.00  0.00    +0.000 S 
ATOM      7  C   UNL     1       5.985   3.700  14.817  0.00  0.00    +0.000 A 
ATOM      8  C   UNL     1       5.849   3.526  16.177  0.00  0.00    +0.000 A 
ATOM      9  C   UNL     1       6.405   4.614  16.928  0.00  0.00    +0.000 A 
ENDROOT
BRANCH   1  10
ATOM     10  O   UNL     1       6.008   3.984  19.222  0.00  0.00    +0.000 OA
BRANCH  10  15
ATOM     11  C   UNL     1       0.408   3.362  19.971  0.00  0.00    +0.000 C 
ATOM     12  C   UNL     1       1.883   3.535  19.762  0.00  0.00    +0.000 A 
ATOM     13  C   UNL     1       2.725   2.433  19.576  0.00  0.00    +0.000 A 
ATOM     14  C   UNL     1       4.098   2.616  19.385  0.00  0.00    +0.000 A 
ATOM     15  C   UNL     1       4.641   3.901  19.371  0.00  0.00    +0.000 A 
ATOM     16  C   UNL     1       3.809   5.002  19.591  0.00  0.00    +0.000 A 
ATOM     17  C   UNL     1       2.437   4.821  19.767  0.00  0.00    +0.000 A 
ENDBRANCH  10  15
ENDBRANCH   1  10
TORSDOF 2
ENDMDL
MODEL 3
REMARK VINA RESULT:      -6.7      3.925      5.146
REMARK  Name = 
REMARK  3 active torsions:
REMARK  status: ('A' for Active; 'I' for Inactive)
REMARK    1  A    between atoms: C_1  and  C_2
REMARK    2  A    between atoms: C_5  and  O_6
REMARK    3  A    between atoms: O_6  and  C_7
REMARK                            x       y       z     vdW  Elec       q    Type
REMARK                         _______ _______ _______ _____ _____    ______ ____
ROOT
ATOM      1  C   UNL     1       4.909   4.463  16.290  0.00  0.00    +0.000 A 
ATOM      2  N   UNL     1       5.359   5.228  17.309  0.00  0.00    +0.000 NA
ATOM      3  C   UNL     1       6.535   5.849  17.155  0.00  0.00    +0.000 A 
ATOM      4  N   UNL     1       7.328   5.837  16.079  0.00  0.00    +0.000 NA
ATOM      5  C   UNL     1       6.818   5.104  15.074  0.00  0.00    +0.000 A 
ATOM      6  S   UNL     1       7.643   4.962  13.588  0.00  0.00    +0.000 S 
ATOM      7  C   UNL     1       6.425   3.951  12.938  0.00  0.00    +0.000 A 
ATOM      8  C   UNL     1       5.409   3.726  13.842  0.00  0.00    +0.000 A 
ATOM      9  C   UNL     1       5.628   4.396  15.090  0.00  0.00    +0.000 A 
ENDROOT
BRANCH   1  10
ATOM     10  O   UNL     1       3.701   3.788  16.408  0.00  0.00    +0.000 OA
BRANCH  10  15
ATOM     11  C   UNL     1       1.400   2.782  21.506  0.00  0.00    +0.000 C 
ATOM     12  C   UNL     1       2.019   3.051  20.167  0.00  0.00    +0.000 A 
ATOM     13  C   UNL     1       1.443   3.955  19.268  0.00  0.00    +0.000 A 
ATOM     14  C   UNL     1       2.036   4.189  18.023  0.00  0.00    +0.000 A 
ATOM     15  C   UNL     1       3.213   3.529  17.669  0.00  0.00    +0.000 A 
ATOM     16  C   UNL     1       3.773   2.601  18.551  0.00  0.00    +0.000 A 
ATOM     17  C   UNL     1       3.190   2.377  19.799  0.00  0.00    +0.000 A 
ENDBRANCH  10  15
ENDBRANCH   1  10
TORSDOF 2
ENDMDL
MODEL 4
REMARK VINA RESULT:      -6.6      3.153      4.558
REMARK  Name = 
REMARK  3 active torsions:
REMARK  status: ('A' for Active; 'I' for Inactive)
REMARK    1  A    between atoms: C_1  and  C_2
REMARK    2  A    between atoms: C_5  and  O_6
REMARK    3  A    between atoms: O_6  and  C_7
REMARK                            x       y       z     vdW  Elec       q    Type
REMARK                         _______ _______ _______ _____ _____    ______ ____
ROOT
ATOM      1  C   UNL     1       4.761   5.891  17.049  0.00  0.00    +0.000 A 
ATOM      2  N   UNL     1       5.510   6.703  17.828  0.00  0.00    +0.000 NA
ATOM      3  C   UNL     1       6.809   6.831  17.533  0.00  0.00    +0.000 A 
ATOM      4  N   UNL     1       7.473   6.268  16.519  0.00  0.00    +0.000 NA
ATOM      5  C   UNL     1       6.679   5.509  15.743  0.00  0.00    +0.000 A 
ATOM      6  S   UNL     1       7.301   4.709  14.371  0.00  0.00    +0.000 S 
ATOM      7  C   UNL     1       5.776   4.030  14.000  0.00  0.00    +0.000 A 
ATOM      8  C   UNL     1       4.811   4.407  14.909  0.00  0.00    +0.000 A 
ATOM      9  C   UNL     1       5.328   5.271  15.929  0.00  0.00    +0.000 A 
ENDROOT
BRANCH   1  10
ATOM     10  O   UNL     1       3.410   5.716  17.323  0.00  0.00    +0.000 OA
BRANCH  10  15
ATOM     11  C   UNL     1       1.702   2.610  21.766  0.00  0.00    +0.000 C 
ATOM     12  C   UNL     1       2.166   3.425  20.596  0.00  0.00    +0.000 A 
ATOM     13  C   UNL     1       1.957   4.807  20.543  0.00  0.00    +0.000 A 
ATOM     14  C   UNL     1       2.396   5.548  19.442  0.00  0.00    +0.000 A 
ATOM     15  C   UNL     1       3.053   4.916  18.386  0.00  0.00    +0.000 A 
ATOM     16  C   UNL     1       3.233   3.530  18.418  0.00  0.00    +0.000 A 
ATOM     17  C   UNL     1       2.809   2.793  19.524  0.00  0.00    +0.000 A 
ENDBRANCH  10  15
ENDBRANCH   1  10
TORSDOF 2
ENDMDL
MODEL 5
REMARK VINA RESULT:      -6.6      0.177      1.179
REMARK  Name = 
REMARK  3 active torsions:
REMARK  status: ('A' for Active; 'I' for Inactive)
REMARK    1  A    between atoms: C_1  and  C_2
REMARK    2  A    between atoms: C_5  and  O_6
REMARK    3  A    between atoms: O_6  and  C_7
REMARK                            x       y       z     vdW  Elec       q    Type
REMARK                         _______ _______ _______ _____ _____    ______ ____
ROOT
ATOM      1  C   UNL     1       3.851   5.771  18.115  0.00  0.00    +0.000 A 
ATOM      2  N   UNL     1       5.123   5.938  18.541  0.00  0.00    +0.000 NA
ATOM      3  C   UNL     1       5.738   4.890  19.104  0.00  0.00    +0.000 A 
ATOM      4  N   UNL     1       5.254   3.657  19.275  0.00  0.00    +0.000 NA
ATOM      5  C   UNL     1       4.005   3.524  18.793  0.00  0.00    +0.000 A 
ATOM      6  S   UNL     1       3.190   2.028  18.877  0.00  0.00    +0.000 S 
ATOM      7  C   UNL     1       1.798   2.676  18.122  0.00  0.00    +0.000 A 
ATOM      8  C   UNL     1       1.955   4.010  17.815  0.00  0.00    +0.000 A 
ATOM      9  C   UNL     1       3.240   4.514  18.201  0.00  0.00    +0.000 A 
ENDROOT
BRANCH   1  10
ATOM     10  O   UNL     1       3.166   6.831  17.536  0.00  0.00    +0.000 OA
BRANCH  10  15
ATOM     11  C   UNL     1       0.177  10.073  21.121  0.00  0.00    +0.000 C 
ATOM     12  C   UNL     1       0.954   9.217  20.167  0.00  0.00    +0.000 A 
ATOM     13  C   UNL     1       1.570   8.033  20.588  0.00  0.00    +0.000 A 
ATOM     14  C   UNL     1       2.292   7.250  19.682  0.00  0.00    +0.000 A 
ATOM     15  C   UNL     1       2.399   7.639  18.346  0.00  0.00    +0.000 A 
ATOM     16  C   UNL     1       1.815   8.838  17.929  0.00  0.00    +0.000 A 
ATOM     17  C   UNL     1       1.082   9.612  18.829  0.00  0.00    +0.000 A 
ENDBRANCH  10  15
ENDBRANCH   1  10
TORSDOF 2
ENDMDL
MODEL 6
REMARK VINA RESULT:      -6.6      2.706      3.504
REMARK  Name = 
REMARK  3 active torsions:
REMARK  status: ('A' for Active; 'I' for Inactive)
REMARK    1  A    between atoms: C_1  and  C_2
REMARK    2  A    between atoms: C_5  and  O_6
REMARK    3  A    between atoms: O_6  and  C_7
REMARK                            x       y       z     vdW  Elec       q    Type
REMARK                         _______ _______ _______ _____ _____    ______ ____
ROOT
ATOM      1  C   UNL     1       5.228   4.313  17.892  0.00  0.00    +0.000 A 
ATOM      2  N   UNL     1       6.195   4.553  18.805  0.00  0.00    +0.000 NA
ATOM      3  C   UNL     1       7.437   4.777  18.359  0.00  0.00    +0.000 A 
ATOM      4  N   UNL     1       7.849   4.827  17.089  0.00  0.00    +0.000 NA
ATOM      5  C   UNL     1       6.846   4.630  16.215  0.00  0.00    +0.000 A 
ATOM      6  S   UNL     1       7.129   4.674  14.533  0.00  0.00    +0.000 S 
ATOM      7  C   UNL     1       5.485   4.352  14.187  0.00  0.00    +0.000 A 
ATOM      8  C   UNL     1       4.736   4.212  15.336  0.00  0.00    +0.000 A 
ATOM      9  C   UNL     1       5.521   4.374  16.525  0.00  0.00    +0.000 A 
ENDROOT
BRANCH   1  10
ATOM     10  O   UNL     1       3.926   4.062  18.307  0.00  0.00    +0.000 OA
BRANCH  10  15
ATOM     11  C   UNL     1       1.060   8.142  21.035  0.00  0.00    +0.000 C 
ATOM     12  C   UNL     1       1.808   7.068  20.304  0.00  0.00    +0.000 A 
ATOM     13  C   UNL     1       1.889   5.765  20.808  0.00  0.00    +0.000 A 
ATOM     14  C   UNL     1       2.593   4.779  20.111  0.00  0.00    +0.000 A 
ATOM     15  C   UNL     1       3.218   5.083  18.901  0.00  0.00    +0.000 A 
ATOM     16  C   UNL     1       3.169   6.391  18.411  0.00  0.00    +0.000 A 
ATOM     17  C   UNL     1       2.453   7.372  19.099  0.00  0.00    +0.000 A 
ENDBRANCH  10  15
ENDBRANCH   1  10
TORSDOF 2
ENDMDL
MODEL 7
REMARK VINA RESULT:      -6.6      3.468      6.247
REMARK  Name = 
REMARK  3 active torsions:
REMARK  status: ('A' for Active; 'I' for Inactive)
REMARK    1  A    between atoms: C_1  and  C_2
REMARK    2  A    between atoms: C_5  and  O_6
REMARK    3  A    between atoms: O_6  and  C_7
REMARK                            x       y       z     vdW  Elec       q    Type
REMARK                         _______ _______ _______ _____ _____    ______ ____
ROOT
ATOM      1  C   UNL     1       1.740   8.425  19.510  0.00  0.00    +0.000 A 
ATOM      2  N   UNL     1       1.542   8.912  18.266  0.00  0.00    +0.000 NA
ATOM      3  C   UNL     1       0.659   9.908  18.116  0.00  0.00    +0.000 A 
ATOM      4  N   UNL     1      -0.047  10.520  19.071  0.00  0.00    +0.000 NA
ATOM      5  C   UNL     1       0.218  10.036  20.297  0.00  0.00    +0.000 A 
ATOM      6  S   UNL     1      -0.548  10.682  21.677  0.00  0.00    +0.000 S 
ATOM      7  C   UNL     1       0.272   9.597  22.715  0.00  0.00    +0.000 A 
ATOM      8  C   UNL     1       1.113   8.756  22.017  0.00  0.00    +0.000 A 
ATOM      9  C   UNL     1       1.090   9.006  20.606  0.00  0.00    +0.000 A 
ENDROOT
BRANCH   1  10
ATOM     10  O   UNL     1       2.637   7.384  19.715  0.00  0.00    +0.000 OA
BRANCH  10  15
ATOM     11  C   UNL     1       0.726   2.106  18.821  0.00  0.00    +0.000 C 
ATOM     12  C   UNL     1       1.243   3.495  19.052  0.00  0.00    +0.000 A 
ATOM     13  C   UNL     1       1.204   4.084  20.320  0.00  0.00    +0.000 A 
ATOM     14  C   UNL     1       1.690   5.381  20.513  0.00  0.00    +0.000 A 
ATOM     15  C   UNL     1       2.224   6.098  19.442  0.00  0.00    +0.000 A 
ATOM     16  C   UNL     1       2.233   5.526  18.167  0.00  0.00    +0.000 A 
ATOM     17  C   UNL     1       1.763   4.227  17.977  0.00  0.00    +0.000 A 
ENDBRANCH  10  15
ENDBRANCH   1  10
TORSDOF 2
ENDMDL
MODEL 8
REMARK VINA RESULT:      -6.6      3.693      4.926
REMARK  Name = 
REMARK  3 active torsions:
REMARK  status: ('A' for Active; 'I' for Inactive)
REMARK    1  A    between atoms: C_1  and  C_2
REMARK    2  A    between atoms: C_5  and  O_6
REMARK    3  A    between atoms: O_6  and  C_7
REMARK                            x       y       z     vdW  Elec       q    Type
REMARK                         _______ _______ _______ _____ _____    ______ ____
ROOT
ATOM      1  C   UNL     1       6.467   4.898  18.360  0.00  0.00    +0.000 A 
ATOM      2  N   UNL     1       7.001   6.073  18.757  0.00  0.00    +0.000 NA
ATOM      3  C   UNL     1       7.481   6.894  17.815  0.00  0.00    +0.000 A 
ATOM      4  N   UNL     1       7.470   6.709  16.492  0.00  0.00    +0.000 NA
ATOM      5  C   UNL     1       6.887   5.550  16.140  0.00  0.00    +0.000 A 
ATOM      6  S   UNL     1       6.735   5.110  14.499  0.00  0.00    +0.000 S 
ATOM      7  C   UNL     1       5.962   3.638  14.902  0.00  0.00    +0.000 A 
ATOM      8  C   UNL     1       5.825   3.487  16.266  0.00  0.00    +0.000 A 
ATOM      9  C   UNL     1       6.360   4.598  16.996  0.00  0.00    +0.000 A 
ENDROOT
BRANCH   1  10
ATOM     10  O   UNL     1       5.966   4.007  19.301  0.00  0.00    +0.000 OA
BRANCH  10  15
ATOM     11  C   UNL     1       0.397   2.933  18.943  0.00  0.00    +0.000 C 
ATOM     12  C   UNL     1       1.867   3.209  19.050  0.00  0.00    +0.000 A 
ATOM     13  C   UNL     1       2.362   4.517  19.062  0.00  0.00    +0.000 A 
ATOM     14  C   UNL     1       3.737   4.752  19.160  0.00  0.00    +0.000 A 
ATOM     15  C   UNL     1       4.628   3.683  19.254  0.00  0.00    +0.000 A 
ATOM     16  C   UNL     1       4.141   2.374  19.206  0.00  0.00    +0.000 A 
ATOM     17  C   UNL     1       2.768   2.139  19.124  0.00  0.00    +0.000 A 
ENDBRANCH  10  15
ENDBRANCH   1  10
TORSDOF 2
ENDMDL
MODEL 9
REMARK VINA RESULT:      -6.6      2.783      5.230
REMARK  Name = 
REMARK  3 active torsions:
REMARK  status: ('A' for Active; 'I' for Inactive)
REMARK    1  A    between atoms: C_1  and  C_2
REMARK    2  A    between atoms: C_5  and  O_6
REMARK    3  A    between atoms: O_6  and  C_7
REMARK                            x       y       z     vdW  Elec       q    Type
REMARK                         _______ _______ _______ _____ _____    ______ ____
ROOT
ATOM      1  C   UNL     1       3.942   5.184  19.457  0.00  0.00    +0.000 A 
ATOM      2  N   UNL     1       3.144   6.111  20.031  0.00  0.00    +0.000 NA
ATOM      3  C   UNL     1       1.881   5.765  20.311  0.00  0.00    +0.000 A 
ATOM      4  N   UNL     1       1.302   4.576  20.119  0.00  0.00    +0.000 NA
ATOM      5  C   UNL     1       2.146   3.672  19.592  0.00  0.00    +0.000 A 
ATOM      6  S   UNL     1       1.635   2.074  19.282  0.00  0.00    +0.000 S 
ATOM      7  C   UNL     1       3.171   1.637  18.669  0.00  0.00    +0.000 A 
ATOM      8  C   UNL     1       4.055   2.694  18.700  0.00  0.00    +0.000 A 
ATOM      9  C   UNL     1       3.467   3.885  19.238  0.00  0.00    +0.000 A 
ENDROOT
BRANCH   1  10
ATOM     10  O   UNL     1       5.256   5.500  19.136  0.00  0.00    +0.000 OA
BRANCH  10  15
ATOM     11  C   UNL     1       7.020   4.841  13.773  0.00  0.00    +0.000 C 
ATOM     12  C   UNL     1       6.555   5.029  15.186  0.00  0.00    +0.000 A 
ATOM     13  C   UNL     1       7.261   4.481  16.263  0.00  0.00    +0.000 A 
ATOM     14  C   UNL     1       6.808   4.667  17.573  0.00  0.00    +0.000 A 
ATOM     15  C   UNL     1       5.651   5.407  17.820  0.00  0.00    +0.000 A 
ATOM     16  C   UNL     1       4.925   5.926  16.745  0.00  0.00    +0.000 A 
ATOM     17  C   UNL     1       5.384   5.754  15.439  0.00  0.00    +0.000 A 
ENDBRANCH  10  15
ENDBRANCH   1  10
TORSDOF 2
ENDMDL
