MODEL 1
REMARK VINA RESULT:      -6.3      0.000      0.000
REMARK  Name = 
REMARK  3 active torsions:
REMARK  status: ('A' for Active; 'I' for Inactive)
REMARK    1  A    between atoms: C_1  and  C_2
REMARK    2  A    between atoms: C_4  and  C_5
REMARK    3  A    between atoms: C_6  and  C_7
REMARK                            x       y       z     vdW  Elec       q    Type
REMARK                         _______ _______ _______ _____ _____    ______ ____
ROOT
ATOM      1  C   UNL     1      -2.342  11.991  18.683  0.00  0.00    +0.000 A 
ATOM      2  C   UNL     1      -3.111  12.364  19.738  0.00  0.00    +0.000 A 
ATOM      3  C   UNL     1      -4.585  12.161  19.643  0.00  0.00    +0.000 A 
ATOM      4  C   UNL     1      -5.452  12.479  20.700  0.00  0.00    +0.000 A 
ATOM      5  C   UNL     1      -6.822  12.226  20.592  0.00  0.00    +0.000 A 
ATOM      6 CL   UNL     1      -7.866  12.599  21.908  0.00  0.00    +0.000 Cl
ATOM      7  C   UNL     1      -7.353  11.665  19.433  0.00  0.00    +0.000 A 
ATOM      8  C   UNL     1      -6.508  11.357  18.368  0.00  0.00    +0.000 A 
ATOM      9  C   UNL     1      -5.138  11.602  18.482  0.00  0.00    +0.000 A 
ATOM     10  N   UNL     1      -4.306  11.277  17.413  0.00  0.00    +0.000 N 
ATOM     11  C   UNL     1      -2.952  11.445  17.428  0.00  0.00    +0.000 A 
ATOM     12  O   UNL     1      -2.287  11.164  16.435  0.00  0.00    +0.000 OA
ATOM     13  H   UNL     1      -4.686  10.889  16.559  0.00  0.00    +0.000 HD
ENDROOT
BRANCH   1  17
ATOM     14  C   UNL     1       2.531  13.251  18.308  0.00  0.00    +0.000 C 
ATOM     15  C   UNL     1       1.238  12.579  18.555  0.00  0.00    +0.000 A 
ATOM     16  C   UNL     1      -0.064  13.101  18.421  0.00  0.00    +0.000 A 
ATOM     17  C   UNL     1      -0.919  12.054  18.716  0.00  0.00    +0.000 A 
ATOM     18  O   UNL     1      -0.132  10.974  19.036  0.00  0.00    +0.000 OA
ATOM     19  N   UNL     1       1.206  11.302  18.943  0.00  0.00    +0.000 NA
ENDBRANCH   1  17
BRANCH   2  20
ATOM     20  C   UNL     1      -2.449  12.918  20.950  0.00  0.00    +0.000 A 
ATOM     21  C   UNL     1      -1.948  12.060  21.938  0.00  0.00    +0.000 A 
ATOM     22  C   UNL     1      -1.356  12.585  23.088  0.00  0.00    +0.000 A 
ATOM     23  C   UNL     1      -1.255  13.966  23.252  0.00  0.00    +0.000 A 
ATOM     24  C   UNL     1      -1.742  14.824  22.267  0.00  0.00    +0.000 A 
ATOM     25  C   UNL     1      -2.337  14.304  21.118  0.00  0.00    +0.000 A 
ENDBRANCH   2  20
TORSDOF 2
ENDMDL
MODEL 2
REMARK VINA RESULT:      -6.2     10.505     12.503
REMARK  Name = 
REMARK  3 active torsions:
REMARK  status: ('A' for Active; 'I' for Inactive)
REMARK    1  A    between atoms: C_1  and  C_2
REMARK    2  A    between atoms: C_4  and  C_5
REMARK    3  A    between atoms: C_6  and  C_7
REMARK                            x       y       z     vdW  Elec       q    Type
REMARK                         _______ _______ _______ _____ _____    ______ ____
ROOT
ATOM      1  C   UNL     1       7.900  13.144  22.052  0.00  0.00    +0.000 A 
ATOM      2  C   UNL     1       8.348  13.789  20.945  0.00  0.00    +0.000 A 
ATOM      3  C   UNL     1       9.299  13.072  20.048  0.00  0.00    +0.000 A 
ATOM      4  C   UNL     1       9.782  13.645  18.861  0.00  0.00    +0.000 A 
ATOM      5  C   UNL     1      10.631  12.921  18.021  0.00  0.00    +0.000 A 
ATOM      6 CL   UNL     1      11.192  13.630  16.557  0.00  0.00    +0.000 Cl
ATOM      7  C   UNL     1      11.023  11.625  18.349  0.00  0.00    +0.000 A 
ATOM      8  C   UNL     1      10.565  11.048  19.531  0.00  0.00    +0.000 A 
ATOM      9  C   UNL     1       9.709  11.769  20.365  0.00  0.00    +0.000 A 
ATOM     10  N   UNL     1       9.250  11.171  21.537  0.00  0.00    +0.000 N 
ATOM     11  C   UNL     1       8.388  11.772  22.407  0.00  0.00    +0.000 A 
ATOM     12  O   UNL     1       8.052  11.195  23.438  0.00  0.00    +0.000 OA
ATOM     13  H   UNL     1       9.547  10.239  21.795  0.00  0.00    +0.000 HD
ENDROOT
BRANCH   1  17
ATOM     14  C   UNL     1       5.338  15.406  25.768  0.00  0.00    +0.000 C 
ATOM     15  C   UNL     1       5.760  14.690  24.545  0.00  0.00    +0.000 A 
ATOM     16  C   UNL     1       7.066  14.477  24.058  0.00  0.00    +0.000 A 
ATOM     17  C   UNL     1       6.918  13.706  22.917  0.00  0.00    +0.000 A 
ATOM     18  O   UNL     1       5.568  13.508  22.742  0.00  0.00    +0.000 OA
ATOM     19  N   UNL     1       4.851  14.124  23.748  0.00  0.00    +0.000 NA
ENDBRANCH   1  17
BRANCH   2  20
ATOM     20  C   UNL     1       7.842  15.158  20.656  0.00  0.00    +0.000 A 
ATOM     21  C   UNL     1       6.682  15.337  19.891  0.00  0.00    +0.000 A 
ATOM     22  C   UNL     1       6.229  16.625  19.596  0.00  0.00    +0.000 A 
ATOM     23  C   UNL     1       6.926  17.735  20.069  0.00  0.00    +0.000 A 
ATOM     24  C   UNL     1       8.075  17.562  20.840  0.00  0.00    +0.000 A 
ATOM     25  C   UNL     1       8.533  16.278  21.134  0.00  0.00    +0.000 A 
ENDBRANCH   2  20
TORSDOF 2
ENDMDL
MODEL 3
REMARK VINA RESULT:      -6.1      2.410      4.357
REMARK  Name = 
REMARK  3 active torsions:
REMARK  status: ('A' for Active; 'I' for Inactive)
REMARK    1  A    between atoms: C_1  and  C_2
REMARK    2  A    between atoms: C_4  and  C_5
REMARK    3  A    between atoms: C_6  and  C_7
REMARK                            x       y       z     vdW  Elec       q    Type
REMARK                         _______ _______ _______ _____ _____    ______ ____
ROOT
ATOM      1  C   UNL     1      -3.742  11.805  18.989  0.00  0.00    +0.000 A 
ATOM      2  C   UNL     1      -2.781  12.295  19.814  0.00  0.00    +0.000 A 
ATOM      3  C   UNL     1      -3.210  12.960  21.078  0.00  0.00    +0.000 A 
ATOM      4  C   UNL     1      -2.287  13.460  22.008  0.00  0.00    +0.000 A 
ATOM      5  C   UNL     1      -2.727  14.031  23.205  0.00  0.00    +0.000 A 
ATOM      6 CL   UNL     1      -1.579  14.614  24.347  0.00  0.00    +0.000 Cl
ATOM      7  C   UNL     1      -4.087  14.125  23.492  0.00  0.00    +0.000 A 
ATOM      8  C   UNL     1      -5.018  13.648  22.571  0.00  0.00    +0.000 A 
ATOM      9  C   UNL     1      -4.575  13.069  21.380  0.00  0.00    +0.000 A 
ATOM     10  N   UNL     1      -5.519  12.586  20.476  0.00  0.00    +0.000 N 
ATOM     11  C   UNL     1      -5.198  11.975  19.299  0.00  0.00    +0.000 A 
ATOM     12  O   UNL     1      -6.086  11.603  18.537  0.00  0.00    +0.000 OA
ATOM     13  H   UNL     1      -6.509  12.669  20.665  0.00  0.00    +0.000 HD
ENDROOT
BRANCH   1  17
ATOM     14  C   UNL     1      -3.005  10.156  14.275  0.00  0.00    +0.000 C 
ATOM     15  C   UNL     1      -3.104  10.310  15.742  0.00  0.00    +0.000 A 
ATOM     16  C   UNL     1      -3.409  11.469  16.485  0.00  0.00    +0.000 A 
ATOM     17  C   UNL     1      -3.431  11.068  17.810  0.00  0.00    +0.000 A 
ATOM     18  O   UNL     1      -3.121   9.729  17.827  0.00  0.00    +0.000 OA
ATOM     19  N   UNL     1      -2.912   9.261  16.544  0.00  0.00    +0.000 NA
ENDBRANCH   1  17
BRANCH   2  20
ATOM     20  C   UNL     1      -1.353  12.112  19.443  0.00  0.00    +0.000 A 
ATOM     21  C   UNL     1      -0.665  10.952  19.824  0.00  0.00    +0.000 A 
ATOM     22  C   UNL     1       0.685  10.799  19.501  0.00  0.00    +0.000 A 
ATOM     23  C   UNL     1       1.350  11.798  18.791  0.00  0.00    +0.000 A 
ATOM     24  C   UNL     1       0.667  12.949  18.399  0.00  0.00    +0.000 A 
ATOM     25  C   UNL     1      -0.681  13.108  18.723  0.00  0.00    +0.000 A 
ENDBRANCH   2  20
TORSDOF 2
ENDMDL
MODEL 4
REMARK VINA RESULT:      -6.0      2.429      4.687
REMARK  Name = 
REMARK  3 active torsions:
REMARK  status: ('A' for Active; 'I' for Inactive)
REMARK    1  A    between atoms: C_1  and  C_2
REMARK    2  A    between atoms: C_4  and  C_5
REMARK    3  A    between atoms: C_6  and  C_7
REMARK                            x       y       z     vdW  Elec       q    Type
REMARK                         _______ _______ _______ _____ _____    ______ ____
ROOT
ATOM      1  C   UNL     1      -0.472  11.331  19.983  0.00  0.00    +0.000 A 
ATOM      2  C   UNL     1      -1.748  11.564  19.583  0.00  0.00    +0.000 A 
ATOM      3  C   UNL     1      -2.622  12.394  20.462  0.00  0.00    +0.000 A 
ATOM      4  C   UNL     1      -3.941  12.719  20.110  0.00  0.00    +0.000 A 
ATOM      5  C   UNL     1      -4.711  13.542  20.936  0.00  0.00    +0.000 A 
ATOM      6 CL   UNL     1      -6.317  13.952  20.474  0.00  0.00    +0.000 Cl
ATOM      7  C   UNL     1      -4.190  14.044  22.126  0.00  0.00    +0.000 A 
ATOM      8  C   UNL     1      -2.888  13.717  22.498  0.00  0.00    +0.000 A 
ATOM      9  C   UNL     1      -2.117  12.903  21.667  0.00  0.00    +0.000 A 
ATOM     10  N   UNL     1      -0.812  12.597  22.048  0.00  0.00    +0.000 N 
ATOM     11  C   UNL     1       0.038  11.837  21.299  0.00  0.00    +0.000 A 
ATOM     12  O   UNL     1       1.165  11.582  21.715  0.00  0.00    +0.000 OA
ATOM     13  H   UNL     1      -0.433  12.938  22.921  0.00  0.00    +0.000 HD
ENDROOT
BRANCH   1  17
ATOM     14  C   UNL     1       2.591   7.971  17.791  0.00  0.00    +0.000 C 
ATOM     15  C   UNL     1       1.834   9.177  18.188  0.00  0.00    +0.000 A 
ATOM     16  C   UNL     1       0.791   9.290  19.130  0.00  0.00    +0.000 A 
ATOM     17  C   UNL     1       0.467  10.635  19.169  0.00  0.00    +0.000 A 
ATOM     18  O   UNL     1       1.279  11.268  18.259  0.00  0.00    +0.000 OA
ATOM     19  N   UNL     1       2.122  10.362  17.646  0.00  0.00    +0.000 NA
ENDBRANCH   1  17
BRANCH   2  20
ATOM     20  C   UNL     1      -2.203  11.020  18.276  0.00  0.00    +0.000 A 
ATOM     21  C   UNL     1      -2.056  11.774  17.105  0.00  0.00    +0.000 A 
ATOM     22  C   UNL     1      -2.513  11.272  15.885  0.00  0.00    +0.000 A 
ATOM     23  C   UNL     1      -3.110  10.013  15.828  0.00  0.00    +0.000 A 
ATOM     24  C   UNL     1      -3.249   9.254  16.989  0.00  0.00    +0.000 A 
ATOM     25  C   UNL     1      -2.797   9.753  18.211  0.00  0.00    +0.000 A 
ENDBRANCH   2  20
TORSDOF 2
ENDMDL
MODEL 5
REMARK VINA RESULT:      -5.9      2.383      4.522
REMARK  Name = 
REMARK  3 active torsions:
REMARK  status: ('A' for Active; 'I' for Inactive)
REMARK    1  A    between atoms: C_1  and  C_2
REMARK    2  A    between atoms: C_4  and  C_5
REMARK    3  A    between atoms: C_6  and  C_7
REMARK                            x       y       z     vdW  Elec       q    Type
REMARK                         _______ _______ _______ _____ _____    ______ ____
ROOT
ATOM      1  C   UNL     1      -0.557  11.574  19.949  0.00  0.00    +0.000 A 
ATOM      2  C   UNL     1      -1.850  11.726  19.565  0.00  0.00    +0.000 A 
ATOM      3  C   UNL     1      -2.746  12.554  20.422  0.00  0.00    +0.000 A 
ATOM      4  C   UNL     1      -4.086  12.799  20.082  0.00  0.00    +0.000 A 
ATOM      5  C   UNL     1      -4.879  13.623  20.884  0.00  0.00    +0.000 A 
ATOM      6 CL   UNL     1      -6.512  13.933  20.438  0.00  0.00    +0.000 Cl
ATOM      7  C   UNL     1      -4.361  14.206  22.038  0.00  0.00    +0.000 A 
ATOM      8  C   UNL     1      -3.038  13.961  22.398  0.00  0.00    +0.000 A 
ATOM      9  C   UNL     1      -2.243  13.145  21.590  0.00  0.00    +0.000 A 
ATOM     10  N   UNL     1      -0.919  12.920  21.958  0.00  0.00    +0.000 N 
ATOM     11  C   UNL     1      -0.047  12.166  21.228  0.00  0.00    +0.000 A 
ATOM     12  O   UNL     1       1.099  11.987  21.632  0.00  0.00    +0.000 OA
ATOM     13  H   UNL     1      -0.540  13.322  22.806  0.00  0.00    +0.000 HD
ENDROOT
BRANCH   1  17
ATOM     14  C   UNL     1       2.485   8.211  17.731  0.00  0.00    +0.000 C 
ATOM     15  C   UNL     1       1.759   9.425  18.160  0.00  0.00    +0.000 A 
ATOM     16  C   UNL     1       0.666   9.530  19.042  0.00  0.00    +0.000 A 
ATOM     17  C   UNL     1       0.400  10.884  19.149  0.00  0.00    +0.000 A 
ATOM     18  O   UNL     1       1.296  11.532  18.333  0.00  0.00    +0.000 OA
ATOM     19  N   UNL     1       2.134  10.626  17.714  0.00  0.00    +0.000 NA
ENDBRANCH   1  17
BRANCH   2  20
ATOM     20  C   UNL     1      -2.302  11.097  18.295  0.00  0.00    +0.000 A 
ATOM     21  C   UNL     1      -2.918   9.839  18.309  0.00  0.00    +0.000 A 
ATOM     22  C   UNL     1      -3.313   9.239  17.111  0.00  0.00    +0.000 A 
ATOM     23  C   UNL     1      -3.102   9.895  15.899  0.00  0.00    +0.000 A 
ATOM     24  C   UNL     1      -2.499  11.152  15.881  0.00  0.00    +0.000 A 
ATOM     25  C   UNL     1      -2.100  11.754  17.075  0.00  0.00    +0.000 A 
ENDBRANCH   2  20
TORSDOF 2
ENDMDL
MODEL 6
REMARK VINA RESULT:      -5.9      3.494      5.525
REMARK  Name = 
REMARK  3 active torsions:
REMARK  status: ('A' for Active; 'I' for Inactive)
REMARK    1  A    between atoms: C_1  and  C_2
REMARK    2  A    between atoms: C_4  and  C_5
REMARK    3  A    between atoms: C_6  and  C_7
REMARK                            x       y       z     vdW  Elec       q    Type
REMARK                         _______ _______ _______ _____ _____    ______ ____
ROOT
ATOM      1  C   UNL     1      -5.565  12.848  19.162  0.00  0.00    +0.000 A 
ATOM      2  C   UNL     1      -4.300  12.524  19.533  0.00  0.00    +0.000 A 
ATOM      3  C   UNL     1      -3.514  11.622  18.643  0.00  0.00    +0.000 A 
ATOM      4  C   UNL     1      -2.186  11.266  18.926  0.00  0.00    +0.000 A 
ATOM      5  C   UNL     1      -1.466  10.460  18.041  0.00  0.00    +0.000 A 
ATOM      6 CL   UNL     1       0.170  10.056  18.392  0.00  0.00    +0.000 Cl
ATOM      7  C   UNL     1      -2.053   9.987  16.870  0.00  0.00    +0.000 A 
ATOM      8  C   UNL     1      -3.375  10.318  16.581  0.00  0.00    +0.000 A 
ATOM      9  C   UNL     1      -4.091  11.132  17.463  0.00  0.00    +0.000 A 
ATOM     10  N   UNL     1      -5.407  11.463  17.152  0.00  0.00    +0.000 N 
ATOM     11  C   UNL     1      -6.187  12.274  17.925  0.00  0.00    +0.000 A 
ATOM     12  O   UNL     1      -7.351  12.497  17.603  0.00  0.00    +0.000 OA
ATOM     13  H   UNL     1      -5.849  11.106  16.315  0.00  0.00    +0.000 HD
ENDROOT
BRANCH   1  17
ATOM     14  C   UNL     1      -7.738  16.927  21.192  0.00  0.00    +0.000 C 
ATOM     15  C   UNL     1      -7.331  15.558  20.812  0.00  0.00    +0.000 A 
ATOM     16  C   UNL     1      -6.437  15.156  19.799  0.00  0.00    +0.000 A 
ATOM     17  C   UNL     1      -6.360  13.778  19.893  0.00  0.00    +0.000 A 
ATOM     18  O   UNL     1      -7.205  13.399  20.909  0.00  0.00    +0.000 OA
ATOM     19  N   UNL     1      -7.811  14.504  21.474  0.00  0.00    +0.000 NA
ENDBRANCH   1  17
BRANCH   2  20
ATOM     20  C   UNL     1      -3.744  13.110  20.782  0.00  0.00    +0.000 A 
ATOM     21  C   UNL     1      -2.954  14.266  20.731  0.00  0.00    +0.000 A 
ATOM     22  C   UNL     1      -2.409  14.795  21.902  0.00  0.00    +0.000 A 
ATOM     23  C   UNL     1      -2.656  14.177  23.128  0.00  0.00    +0.000 A 
ATOM     24  C   UNL     1      -3.451  13.033  23.185  0.00  0.00    +0.000 A 
ATOM     25  C   UNL     1      -3.995  12.499  22.017  0.00  0.00    +0.000 A 
ENDBRANCH   2  20
TORSDOF 2
ENDMDL
MODEL 7
REMARK VINA RESULT:      -5.9      3.024      5.462
REMARK  Name = 
REMARK  3 active torsions:
REMARK  status: ('A' for Active; 'I' for Inactive)
REMARK    1  A    between atoms: C_1  and  C_2
REMARK    2  A    between atoms: C_4  and  C_5
REMARK    3  A    between atoms: C_6  and  C_7
REMARK                            x       y       z     vdW  Elec       q    Type
REMARK                         _______ _______ _______ _____ _____    ______ ____
ROOT
ATOM      1  C   UNL     1      -2.398  12.558  21.436  0.00  0.00    +0.000 A 
ATOM      2  C   UNL     1      -3.218  12.476  20.357  0.00  0.00    +0.000 A 
ATOM      3  C   UNL     1      -2.741  11.714  19.167  0.00  0.00    +0.000 A 
ATOM      4  C   UNL     1      -3.535  11.543  18.023  0.00  0.00    +0.000 A 
ATOM      5  C   UNL     1      -3.073  10.778  16.949  0.00  0.00    +0.000 A 
ATOM      6 CL   UNL     1      -4.072  10.557  15.566  0.00  0.00    +0.000 Cl
ATOM      7  C   UNL     1      -1.814  10.184  16.988  0.00  0.00    +0.000 A 
ATOM      8  C   UNL     1      -1.006  10.357  18.110  0.00  0.00    +0.000 A 
ATOM      9  C   UNL     1      -1.473  11.114  19.186  0.00  0.00    +0.000 A 
ATOM     10  N   UNL     1      -0.658  11.266  20.305  0.00  0.00    +0.000 N 
ATOM     11  C   UNL     1      -1.026  11.957  21.422  0.00  0.00    +0.000 A 
ATOM     12  O   UNL     1      -0.240  12.076  22.359  0.00  0.00    +0.000 OA
ATOM     13  H   UNL     1       0.267  10.857  20.333  0.00  0.00    +0.000 HD
ENDROOT
BRANCH   1  17
ATOM     14  C   UNL     1      -3.165  15.630  25.369  0.00  0.00    +0.000 C 
ATOM     15  C   UNL     1      -3.151  14.508  24.405  0.00  0.00    +0.000 A 
ATOM     16  C   UNL     1      -2.599  14.471  23.109  0.00  0.00    +0.000 A 
ATOM     17  C   UNL     1      -2.802  13.179  22.654  0.00  0.00    +0.000 A 
ATOM     18  O   UNL     1      -3.472  12.506  23.648  0.00  0.00    +0.000 OA
ATOM     19  N   UNL     1      -3.694  13.334  24.731  0.00  0.00    +0.000 NA
ENDBRANCH   1  17
BRANCH   2  20
ATOM     20  C   UNL     1      -4.561  13.110  20.423  0.00  0.00    +0.000 A 
ATOM     21  C   UNL     1      -4.717  14.471  20.130  0.00  0.00    +0.000 A 
ATOM     22  C   UNL     1      -5.975  15.069  20.224  0.00  0.00    +0.000 A 
ATOM     23  C   UNL     1      -7.082  14.311  20.603  0.00  0.00    +0.000 A 
ATOM     24  C   UNL     1      -6.934  12.953  20.885  0.00  0.00    +0.000 A 
ATOM     25  C   UNL     1      -5.678  12.352  20.796  0.00  0.00    +0.000 A 
ENDBRANCH   2  20
TORSDOF 2
ENDMDL
MODEL 8
REMARK VINA RESULT:      -5.8     12.206     12.995
REMARK  Name = 
REMARK  3 active torsions:
REMARK  status: ('A' for Active; 'I' for Inactive)
REMARK    1  A    between atoms: C_1  and  C_2
REMARK    2  A    between atoms: C_4  and  C_5
REMARK    3  A    between atoms: C_6  and  C_7
REMARK                            x       y       z     vdW  Elec       q    Type
REMARK                         _______ _______ _______ _____ _____    ______ ____
ROOT
ATOM      1  C   UNL     1       9.465  12.828  20.765  0.00  0.00    +0.000 A 
ATOM      2  C   UNL     1       9.286  13.880  21.604  0.00  0.00    +0.000 A 
ATOM      3  C   UNL     1       8.834  13.602  22.998  0.00  0.00    +0.000 A 
ATOM      4  C   UNL     1       8.662  14.623  23.945  0.00  0.00    +0.000 A 
ATOM      5  C   UNL     1       8.287  14.316  25.255  0.00  0.00    +0.000 A 
ATOM      6 CL   UNL     1       8.107  15.579  26.410  0.00  0.00    +0.000 Cl
ATOM      7  C   UNL     1       8.066  12.996  25.643  0.00  0.00    +0.000 A 
ATOM      8  C   UNL     1       8.218  11.972  24.710  0.00  0.00    +0.000 A 
ATOM      9  C   UNL     1       8.602  12.279  23.404  0.00  0.00    +0.000 A 
ATOM     10  N   UNL     1       8.761  11.242  22.488  0.00  0.00    +0.000 N 
ATOM     11  C   UNL     1       9.161  11.426  21.197  0.00  0.00    +0.000 A 
ATOM     12  O   UNL     1       9.249  10.465  20.437  0.00  0.00    +0.000 OA
ATOM     13  H   UNL     1       8.582  10.283  22.754  0.00  0.00    +0.000 HD
ENDROOT
BRANCH   1  17
ATOM     14  C   UNL     1      12.333  13.395  16.650  0.00  0.00    +0.000 C 
ATOM     15  C   UNL     1      11.225  13.242  17.617  0.00  0.00    +0.000 A 
ATOM     16  C   UNL     1      11.295  12.969  18.998  0.00  0.00    +0.000 A 
ATOM     17  C   UNL     1       9.986  12.983  19.449  0.00  0.00    +0.000 A 
ATOM     18  O   UNL     1       9.190  13.230  18.355  0.00  0.00    +0.000 OA
ATOM     19  N   UNL     1       9.959  13.384  17.219  0.00  0.00    +0.000 NA
ENDBRANCH   1  17
BRANCH   2  20
ATOM     20  C   UNL     1       9.585  15.252  21.113  0.00  0.00    +0.000 A 
ATOM     21  C   UNL     1       8.598  16.000  20.456  0.00  0.00    +0.000 A 
ATOM     22  C   UNL     1       8.893  17.274  19.969  0.00  0.00    +0.000 A 
ATOM     23  C   UNL     1      10.168  17.810  20.141  0.00  0.00    +0.000 A 
ATOM     24  C   UNL     1      11.151  17.074  20.803  0.00  0.00    +0.000 A 
ATOM     25  C   UNL     1      10.862  15.799  21.289  0.00  0.00    +0.000 A 
ENDBRANCH   2  20
TORSDOF 2
ENDMDL
MODEL 9
REMARK VINA RESULT:      -5.8      3.362      5.391
REMARK  Name = 
REMARK  3 active torsions:
REMARK  status: ('A' for Active; 'I' for Inactive)
REMARK    1  A    between atoms: C_1  and  C_2
REMARK    2  A    between atoms: C_4  and  C_5
REMARK    3  A    between atoms: C_6  and  C_7
REMARK                            x       y       z     vdW  Elec       q    Type
REMARK                         _______ _______ _______ _____ _____    ______ ____
ROOT
ATOM      1  C   UNL     1      -4.881  12.916  19.820  0.00  0.00    +0.000 A 
ATOM      2  C   UNL     1      -3.595  12.502  19.949  0.00  0.00    +0.000 A 
ATOM      3  C   UNL     1      -3.045  11.576  18.918  0.00  0.00    +0.000 A 
ATOM      4  C   UNL     1      -1.716  11.129  18.949  0.00  0.00    +0.000 A 
ATOM      5  C   UNL     1      -1.224  10.302  17.935  0.00  0.00    +0.000 A 
ATOM      6 CL   UNL     1       0.417   9.786  17.975  0.00  0.00    +0.000 Cl
ATOM      7  C   UNL     1      -2.044   9.899  16.884  0.00  0.00    +0.000 A 
ATOM      8  C   UNL     1      -3.372  10.321  16.847  0.00  0.00    +0.000 A 
ATOM      9  C   UNL     1      -3.859  11.154  17.856  0.00  0.00    +0.000 A 
ATOM     10  N   UNL     1      -5.184  11.577  17.796  0.00  0.00    +0.000 N 
ATOM     11  C   UNL     1      -5.754  12.415  18.710  0.00  0.00    +0.000 A 
ATOM     12  O   UNL     1      -6.940  12.720  18.610  0.00  0.00    +0.000 OA
ATOM     13  H   UNL     1      -5.794  11.271  17.049  0.00  0.00    +0.000 HD
ENDROOT
BRANCH   1  17
ATOM     14  C   UNL     1      -7.409  15.375  23.432  0.00  0.00    +0.000 C 
ATOM     15  C   UNL     1      -6.577  14.987  22.274  0.00  0.00    +0.000 A 
ATOM     16  C   UNL     1      -6.185  13.695  21.866  0.00  0.00    +0.000 A 
ATOM     17  C   UNL     1      -5.465  13.875  20.698  0.00  0.00    +0.000 A 
ATOM     18  O   UNL     1      -5.423  15.228  20.458  0.00  0.00    +0.000 OA
ATOM     19  N   UNL     1      -6.107  15.917  21.440  0.00  0.00    +0.000 NA
ENDBRANCH   1  17
BRANCH   2  20
ATOM     20  C   UNL     1      -2.783  13.019  21.084  0.00  0.00    +0.000 A 
ATOM     21  C   UNL     1      -2.040  14.199  20.943  0.00  0.00    +0.000 A 
ATOM     22  C   UNL     1      -1.255  14.663  22.000  0.00  0.00    +0.000 A 
ATOM     23  C   UNL     1      -1.215  13.957  23.202  0.00  0.00    +0.000 A 
ATOM     24  C   UNL     1      -1.961  12.788  23.351  0.00  0.00    +0.000 A 
ATOM     25  C   UNL     1      -2.744  12.319  22.296  0.00  0.00    +0.000 A 
ENDBRANCH   2  20
TORSDOF 2
ENDMDL
