MODEL 1
REMARK VINA RESULT:      -8.9      0.000      0.000
REMARK  Name = 
REMARK  7 active torsions:
REMARK  status: ('A' for Active; 'I' for Inactive)
REMARK    1  A    between atoms: C_1  and  C_2
REMARK    2  A    between atoms: C_5  and  S_6
REMARK    3  A    between atoms: S_6  and  N_9
REMARK    4  A    between atoms: C_12  and  C_13
REMARK    5  A    between atoms: C_13  and  O_15
REMARK    6  A    between atoms: O_15  and  C_16
REMARK    7  A    between atoms: C_25  and  C_26
REMARK                            x       y       z     vdW  Elec       q    Type
REMARK                         _______ _______ _______ _____ _____    ______ ____
ROOT
ATOM      1  N   UNL     1       4.801   6.163  18.657  0.00  0.00    +0.000 NA
ATOM      2  C   UNL     1       5.847   5.270  19.208  0.00  0.00    +0.000 C 
ATOM      3  C   UNL     1       7.234   5.895  19.077  0.00  0.00    +0.000 C 
ATOM      4  C   UNL     1       7.533   6.327  17.641  0.00  0.00    +0.000 C 
ATOM      5  C   UNL     1       6.467   7.342  17.222  0.00  0.00    +0.000 C 
ATOM      6  C   UNL     1       5.063   6.760  17.324  0.00  0.00    +0.000 C 
ENDROOT
BRANCH   1   7
ATOM      7  S   UNL     1       3.181   5.640  18.907  0.00  0.00    +0.000 S 
ATOM      8  O   UNL     1       3.150   4.907  20.155  0.00  0.00    +0.000 OA
ATOM      9  O   UNL     1       2.698   5.043  17.681  0.00  0.00    +0.000 OA
BRANCH   7  14
ATOM     10  C   UNL     1       0.299  10.952  19.745  0.00  0.00    +0.000 C 
ATOM     11  C   UNL     1       0.967   9.613  19.569  0.00  0.00    +0.000 A 
ATOM     12  C   UNL     1       1.434   9.249  18.297  0.00  0.00    +0.000 A 
ATOM     13  C   UNL     1       2.088   8.033  18.099  0.00  0.00    +0.000 A 
ATOM     14  C   UNL     1       2.265   7.155  19.171  0.00  0.00    +0.000 A 
ATOM     15  C   UNL     1       1.815   7.503  20.448  0.00  0.00    +0.000 A 
ATOM     16  C   UNL     1       1.157   8.730  20.655  0.00  0.00    +0.000 A 
ATOM     17  C   UNL     1       0.683   9.091  22.038  0.00  0.00    +0.000 C 
ENDBRANCH   7  14
ENDBRANCH   1   7
BRANCH   4  18
ATOM     18  C   UNL     1       7.604   5.168  16.655  0.00  0.00    +0.000 C 
ATOM     19  O   UNL     1       7.968   4.038  16.949  0.00  0.00    +0.000 OA
BRANCH  18  20
ATOM     20  O   UNL     1       7.152   5.526  15.427  0.00  0.00    +0.000 OA
BRANCH  20  21
ATOM     21  C   UNL     1       7.305   4.538  14.411  0.00  0.00    +0.000 C 
ATOM     22  C   UNL     1       5.974   4.019  13.924  0.00  0.00    +0.000 C 
ATOM     23  C   UNL     1       6.270   3.646  12.496  0.00  0.00    +0.000 C 
ATOM     24  O   UNL     1       7.261   4.573  12.052  0.00  0.00    +0.000 OA
ATOM     25  C   UNL     1       7.873   5.131  13.139  0.00  0.00    +0.000 C 
ATOM     26  O   UNL     1       8.760   5.970  13.069  0.00  0.00    +0.000 OA
ENDBRANCH  20  21
ENDBRANCH  18  20
ENDBRANCH   4  18
TORSDOF 5
ENDMDL
MODEL 2
REMARK VINA RESULT:      -8.7      0.485      1.311
REMARK  Name = 
REMARK  7 active torsions:
REMARK  status: ('A' for Active; 'I' for Inactive)
REMARK    1  A    between atoms: C_1  and  C_2
REMARK    2  A    between atoms: C_5  and  S_6
REMARK    3  A    between atoms: S_6  and  N_9
REMARK    4  A    between atoms: C_12  and  C_13
REMARK    5  A    between atoms: C_13  and  O_15
REMARK    6  A    between atoms: O_15  and  C_16
REMARK    7  A    between atoms: C_25  and  C_26
REMARK                            x       y       z     vdW  Elec       q    Type
REMARK                         _______ _______ _______ _____ _____    ______ ____
ROOT
ATOM      1  N   UNL     1       4.784   6.101  18.694  0.00  0.00    +0.000 NA
ATOM      2  C   UNL     1       5.860   5.232  19.228  0.00  0.00    +0.000 C 
ATOM      3  C   UNL     1       7.230   5.886  19.067  0.00  0.00    +0.000 C 
ATOM      4  C   UNL     1       7.492   6.318  17.625  0.00  0.00    +0.000 C 
ATOM      5  C   UNL     1       6.397   7.309  17.223  0.00  0.00    +0.000 C 
ATOM      6  C   UNL     1       5.007   6.697  17.354  0.00  0.00    +0.000 C 
ENDROOT
BRANCH   1   7
ATOM      7  S   UNL     1       3.180   5.545  18.977  0.00  0.00    +0.000 S 
ATOM      8  O   UNL     1       3.230   4.635  20.103  0.00  0.00    +0.000 OA
ATOM      9  O   UNL     1       2.609   5.135  17.714  0.00  0.00    +0.000 OA
BRANCH   7  14
ATOM     10  C   UNL     1      -0.067  10.356  20.855  0.00  0.00    +0.000 C 
ATOM     11  C   UNL     1       0.777   9.205  20.373  0.00  0.00    +0.000 A 
ATOM     12  C   UNL     1       0.958   8.096  21.213  0.00  0.00    +0.000 A 
ATOM     13  C   UNL     1       1.705   6.996  20.790  0.00  0.00    +0.000 A 
ATOM     14  C   UNL     1       2.299   7.002  19.526  0.00  0.00    +0.000 A 
ATOM     15  C   UNL     1       2.123   8.095  18.671  0.00  0.00    +0.000 A 
ATOM     16  C   UNL     1       1.369   9.206  19.090  0.00  0.00    +0.000 A 
ATOM     17  C   UNL     1       1.187  10.372  18.154  0.00  0.00    +0.000 C 
ENDBRANCH   7  14
ENDBRANCH   1   7
BRANCH   4  18
ATOM     18  C   UNL     1       7.568   5.156  16.642  0.00  0.00    +0.000 C 
ATOM     19  O   UNL     1       7.937   4.029  16.939  0.00  0.00    +0.000 OA
BRANCH  18  20
ATOM     20  O   UNL     1       7.115   5.510  15.413  0.00  0.00    +0.000 OA
BRANCH  20  21
ATOM     21  C   UNL     1       7.291   4.527  14.395  0.00  0.00    +0.000 C 
ATOM     22  C   UNL     1       5.971   3.993  13.893  0.00  0.00    +0.000 C 
ATOM     23  C   UNL     1       6.286   3.629  12.467  0.00  0.00    +0.000 C 
ATOM     24  O   UNL     1       7.270   4.569  12.036  0.00  0.00    +0.000 OA
ATOM     25  C   UNL     1       7.865   5.131  13.131  0.00  0.00    +0.000 C 
ATOM     26  O   UNL     1       8.742   5.981  13.073  0.00  0.00    +0.000 OA
ENDBRANCH  20  21
ENDBRANCH  18  20
ENDBRANCH   4  18
TORSDOF 5
ENDMDL
MODEL 3
REMARK VINA RESULT:      -7.6      2.817      7.481
REMARK  Name = 
REMARK  7 active torsions:
REMARK  status: ('A' for Active; 'I' for Inactive)
REMARK    1  A    between atoms: C_1  and  C_2
REMARK    2  A    between atoms: C_5  and  S_6
REMARK    3  A    between atoms: S_6  and  N_9
REMARK    4  A    between atoms: C_12  and  C_13
REMARK    5  A    between atoms: C_13  and  O_15
REMARK    6  A    between atoms: O_15  and  C_16
REMARK    7  A    between atoms: C_25  and  C_26
REMARK                            x       y       z     vdW  Elec       q    Type
REMARK                         _______ _______ _______ _____ _____    ______ ____
ROOT
ATOM      1  N   UNL     1       5.381   6.126  18.116  0.00  0.00    +0.000 NA
ATOM      2  C   UNL     1       4.325   6.392  17.112  0.00  0.00    +0.000 C 
ATOM      3  C   UNL     1       3.026   6.838  17.779  0.00  0.00    +0.000 C 
ATOM      4  C   UNL     1       2.570   5.855  18.857  0.00  0.00    +0.000 C 
ATOM      5  C   UNL     1       3.681   5.755  19.905  0.00  0.00    +0.000 C 
ATOM      6  C   UNL     1       4.999   5.300  19.288  0.00  0.00    +0.000 C 
ENDROOT
BRANCH   1   7
ATOM      7  S   UNL     1       6.940   5.784  17.472  0.00  0.00    +0.000 S 
ATOM      8  O   UNL     1       7.530   4.748  18.295  0.00  0.00    +0.000 OA
ATOM      9  O   UNL     1       7.627   7.037  17.248  0.00  0.00    +0.000 OA
BRANCH   7  14
ATOM     10  C   UNL     1       5.922   3.043  12.119  0.00  0.00    +0.000 C 
ATOM     11  C   UNL     1       6.166   3.772  13.414  0.00  0.00    +0.000 A 
ATOM     12  C   UNL     1       5.503   3.341  14.572  0.00  0.00    +0.000 A 
ATOM     13  C   UNL     1       5.728   3.969  15.798  0.00  0.00    +0.000 A 
ATOM     14  C   UNL     1       6.606   5.053  15.874  0.00  0.00    +0.000 A 
ATOM     15  C   UNL     1       7.284   5.491  14.732  0.00  0.00    +0.000 A 
ATOM     16  C   UNL     1       7.063   4.861  13.494  0.00  0.00    +0.000 A 
ATOM     17  C   UNL     1       7.805   5.344  12.276  0.00  0.00    +0.000 C 
ENDBRANCH   7  14
ENDBRANCH   1   7
BRANCH   4  18
ATOM     18  C   UNL     1       2.203   4.479  18.316  0.00  0.00    +0.000 C 
ATOM     19  O   UNL     1       2.518   4.072  17.207  0.00  0.00    +0.000 OA
BRANCH  18  20
ATOM     20  O   UNL     1       1.538   3.738  19.238  0.00  0.00    +0.000 OA
BRANCH  20  21
ATOM     21  C   UNL     1       2.224   2.573  19.690  0.00  0.00    +0.000 C 
ATOM     22  C   UNL     1       3.523   2.362  18.951  0.00  0.00    +0.000 C 
ATOM     23  C   UNL     1       4.372   1.658  19.976  0.00  0.00    +0.000 C 
ATOM     24  O   UNL     1       3.956   2.171  21.241  0.00  0.00    +0.000 OA
ATOM     25  C   UNL     1       2.716   2.733  21.112  0.00  0.00    +0.000 C 
ATOM     26  O   UNL     1       2.107   3.264  22.030  0.00  0.00    +0.000 OA
ENDBRANCH  20  21
ENDBRANCH  18  20
ENDBRANCH   4  18
TORSDOF 5
ENDMDL
MODEL 4
REMARK VINA RESULT:      -7.5      1.452      1.869
REMARK  Name = 
REMARK  7 active torsions:
REMARK  status: ('A' for Active; 'I' for Inactive)
REMARK    1  A    between atoms: C_1  and  C_2
REMARK    2  A    between atoms: C_5  and  S_6
REMARK    3  A    between atoms: S_6  and  N_9
REMARK    4  A    between atoms: C_12  and  C_13
REMARK    5  A    between atoms: C_13  and  O_15
REMARK    6  A    between atoms: O_15  and  C_16
REMARK    7  A    between atoms: C_25  and  C_26
REMARK                            x       y       z     vdW  Elec       q    Type
REMARK                         _______ _______ _______ _____ _____    ______ ____
ROOT
ATOM      1  N   UNL     1       4.005   4.270  18.732  0.00  0.00    +0.000 NA
ATOM      2  C   UNL     1       3.809   3.918  17.306  0.00  0.00    +0.000 C 
ATOM      3  C   UNL     1       5.125   3.504  16.651  0.00  0.00    +0.000 C 
ATOM      4  C   UNL     1       6.216   4.556  16.846  0.00  0.00    +0.000 C 
ATOM      5  C   UNL     1       6.425   4.746  18.351  0.00  0.00    +0.000 C 
ATOM      6  C   UNL     1       5.139   5.172  19.049  0.00  0.00    +0.000 C 
ENDROOT
BRANCH   1   7
ATOM      7  S   UNL     1       2.564   4.584  19.618  0.00  0.00    +0.000 S 
ATOM      8  O   UNL     1       2.892   4.487  21.025  0.00  0.00    +0.000 OA
ATOM      9  O   UNL     1       1.494   3.796  19.047  0.00  0.00    +0.000 OA
BRANCH   7  14
ATOM     10  C   UNL     1       1.636  10.499  18.445  0.00  0.00    +0.000 C 
ATOM     11  C   UNL     1       1.811   9.036  18.759  0.00  0.00    +0.000 A 
ATOM     12  C   UNL     1       2.306   8.181  17.763  0.00  0.00    +0.000 A 
ATOM     13  C   UNL     1       2.514   6.827  18.024  0.00  0.00    +0.000 A 
ATOM     14  C   UNL     1       2.209   6.306  19.285  0.00  0.00    +0.000 A 
ATOM     15  C   UNL     1       1.724   7.143  20.294  0.00  0.00    +0.000 A 
ATOM     16  C   UNL     1       1.514   8.511  20.037  0.00  0.00    +0.000 A 
ATOM     17  C   UNL     1       0.996   9.399  21.137  0.00  0.00    +0.000 C 
ENDBRANCH   7  14
ENDBRANCH   1   7
BRANCH   4  18
ATOM     18  C   UNL     1       5.916   5.884  16.163  0.00  0.00    +0.000 C 
ATOM     19  O   UNL     1       5.972   6.971  16.720  0.00  0.00    +0.000 OA
BRANCH  18  20
ATOM     20  O   UNL     1       5.640   5.718  14.845  0.00  0.00    +0.000 OA
BRANCH  20  21
ATOM     21  C   UNL     1       6.220   4.563  14.244  0.00  0.00    +0.000 C 
ATOM     22  C   UNL     1       5.288   3.919  13.246  0.00  0.00    +0.000 C 
ATOM     23  C   UNL     1       6.241   3.295  12.262  0.00  0.00    +0.000 C 
ATOM     24  O   UNL     1       7.381   4.153  12.231  0.00  0.00    +0.000 OA
ATOM     25  C   UNL     1       7.394   4.925  13.359  0.00  0.00    +0.000 C 
ATOM     26  O   UNL     1       8.248   5.765  13.604  0.00  0.00    +0.000 OA
ENDBRANCH  20  21
ENDBRANCH  18  20
ENDBRANCH   4  18
TORSDOF 5
ENDMDL
MODEL 5
REMARK VINA RESULT:      -7.4      1.128      1.231
REMARK  Name = 
REMARK  7 active torsions:
REMARK  status: ('A' for Active; 'I' for Inactive)
REMARK    1  A    between atoms: C_1  and  C_2
REMARK    2  A    between atoms: C_5  and  S_6
REMARK    3  A    between atoms: S_6  and  N_9
REMARK    4  A    between atoms: C_12  and  C_13
REMARK    5  A    between atoms: C_13  and  O_15
REMARK    6  A    between atoms: O_15  and  C_16
REMARK    7  A    between atoms: C_25  and  C_26
REMARK                            x       y       z     vdW  Elec       q    Type
REMARK                         _______ _______ _______ _____ _____    ______ ____
ROOT
ATOM      1  N   UNL     1       3.872   5.957  18.979  0.00  0.00    +0.000 NA
ATOM      2  C   UNL     1       4.914   4.948  19.281  0.00  0.00    +0.000 C 
ATOM      3  C   UNL     1       6.268   5.360  18.708  0.00  0.00    +0.000 C 
ATOM      4  C   UNL     1       6.183   5.682  17.216  0.00  0.00    +0.000 C 
ATOM      5  C   UNL     1       5.177   6.821  17.035  0.00  0.00    +0.000 C 
ATOM      6  C   UNL     1       3.803   6.452  17.582  0.00  0.00    +0.000 C 
ENDROOT
BRANCH   1   7
ATOM      7  S   UNL     1       2.345   5.685  19.723  0.00  0.00    +0.000 S 
ATOM      8  O   UNL     1       2.596   5.102  21.025  0.00  0.00    +0.000 OA
ATOM      9  O   UNL     1       1.481   5.026  18.768  0.00  0.00    +0.000 OA
BRANCH   7  14
ATOM     10  C   UNL     1       0.388  11.389  20.645  0.00  0.00    +0.000 C 
ATOM     11  C   UNL     1       0.822   9.960  20.444  0.00  0.00    +0.000 A 
ATOM     12  C   UNL     1       1.304   9.567  19.186  0.00  0.00    +0.000 A 
ATOM     13  C   UNL     1       1.747   8.262  18.969  0.00  0.00    +0.000 A 
ATOM     14  C   UNL     1       1.692   7.327  20.006  0.00  0.00    +0.000 A 
ATOM     15  C   UNL     1       1.223   7.701  21.268  0.00  0.00    +0.000 A 
ATOM     16  C   UNL     1       0.777   9.017  21.495  0.00  0.00    +0.000 A 
ATOM     17  C   UNL     1       0.280   9.404  22.862  0.00  0.00    +0.000 C 
ENDBRANCH   7  14
ENDBRANCH   1   7
BRANCH   4  18
ATOM     18  C   UNL     1       5.815   4.483  16.351  0.00  0.00    +0.000 C 
ATOM     19  O   UNL     1       5.622   3.357  16.786  0.00  0.00    +0.000 OA
BRANCH  18  20
ATOM     20  O   UNL     1       5.665   4.832  15.048  0.00  0.00    +0.000 OA
BRANCH  20  21
ATOM     21  C   UNL     1       6.386   4.029  14.117  0.00  0.00    +0.000 C 
ATOM     22  C   UNL     1       5.507   3.551  12.986  0.00  0.00    +0.000 C 
ATOM     23  C   UNL     1       6.482   3.426  11.845  0.00  0.00    +0.000 C 
ATOM     24  O   UNL     1       7.458   4.446  12.057  0.00  0.00    +0.000 OA
ATOM     25  C   UNL     1       7.420   4.840  13.366  0.00  0.00    +0.000 C 
ATOM     26  O   UNL     1       8.138   5.709  13.840  0.00  0.00    +0.000 OA
ENDBRANCH  20  21
ENDBRANCH  18  20
ENDBRANCH   4  18
TORSDOF 5
ENDMDL
MODEL 6
REMARK VINA RESULT:      -7.3      1.523      2.356
REMARK  Name = 
REMARK  7 active torsions:
REMARK  status: ('A' for Active; 'I' for Inactive)
REMARK    1  A    between atoms: C_1  and  C_2
REMARK    2  A    between atoms: C_5  and  S_6
REMARK    3  A    between atoms: S_6  and  N_9
REMARK    4  A    between atoms: C_12  and  C_13
REMARK    5  A    between atoms: C_13  and  O_15
REMARK    6  A    between atoms: O_15  and  C_16
REMARK    7  A    between atoms: C_25  and  C_26
REMARK                            x       y       z     vdW  Elec       q    Type
REMARK                         _______ _______ _______ _____ _____    ______ ____
ROOT
ATOM      1  N   UNL     1       3.688   4.182  19.112  0.00  0.00    +0.000 NA
ATOM      2  C   UNL     1       3.559   3.637  17.741  0.00  0.00    +0.000 C 
ATOM      3  C   UNL     1       4.927   3.343  17.130  0.00  0.00    +0.000 C 
ATOM      4  C   UNL     1       5.853   4.557  17.189  0.00  0.00    +0.000 C 
ATOM      5  C   UNL     1       6.017   4.954  18.658  0.00  0.00    +0.000 C 
ATOM      6  C   UNL     1       4.677   5.270  19.310  0.00  0.00    +0.000 C 
ENDROOT
BRANCH   1   7
ATOM      7  S   UNL     1       2.209   4.388  19.966  0.00  0.00    +0.000 S 
ATOM      8  O   UNL     1       2.441   3.989  21.338  0.00  0.00    +0.000 OA
ATOM      9  O   UNL     1       1.145   3.793  19.188  0.00  0.00    +0.000 OA
BRANCH   7  14
ATOM     10  C   UNL     1       1.040  10.376  20.028  0.00  0.00    +0.000 C 
ATOM     11  C   UNL     1       1.382   8.909  19.989  0.00  0.00    +0.000 A 
ATOM     12  C   UNL     1       1.137   8.123  21.126  0.00  0.00    +0.000 A 
ATOM     13  C   UNL     1       1.408   6.755  21.118  0.00  0.00    +0.000 A 
ATOM     14  C   UNL     1       1.949   6.159  19.976  0.00  0.00    +0.000 A 
ATOM     15  C   UNL     1       2.192   6.923  18.831  0.00  0.00    +0.000 A 
ATOM     16  C   UNL     1       1.918   8.303  18.831  0.00  0.00    +0.000 A 
ATOM     17  C   UNL     1       2.182   9.110  17.587  0.00  0.00    +0.000 C 
ENDBRANCH   7  14
ENDBRANCH   1   7
BRANCH   4  18
ATOM     18  C   UNL     1       5.370   5.736  16.354  0.00  0.00    +0.000 C 
ATOM     19  O   UNL     1       4.426   6.451  16.657  0.00  0.00    +0.000 OA
BRANCH  18  20
ATOM     20  O   UNL     1       6.156   5.935  15.266  0.00  0.00    +0.000 OA
BRANCH  20  21
ATOM     21  C   UNL     1       6.534   4.753  14.565  0.00  0.00    +0.000 C 
ATOM     22  C   UNL     1       5.391   4.187  13.757  0.00  0.00    +0.000 C 
ATOM     23  C   UNL     1       6.100   3.516  12.611  0.00  0.00    +0.000 C 
ATOM     24  O   UNL     1       7.270   4.297  12.369  0.00  0.00    +0.000 OA
ATOM     25  C   UNL     1       7.545   5.049  13.478  0.00  0.00    +0.000 C 
ATOM     26  O   UNL     1       8.486   5.826  13.561  0.00  0.00    +0.000 OA
ENDBRANCH  20  21
ENDBRANCH  18  20
ENDBRANCH   4  18
TORSDOF 5
ENDMDL
MODEL 7
REMARK VINA RESULT:      -7.3      2.463      3.441
REMARK  Name = 
REMARK  7 active torsions:
REMARK  status: ('A' for Active; 'I' for Inactive)
REMARK    1  A    between atoms: C_1  and  C_2
REMARK    2  A    between atoms: C_5  and  S_6
REMARK    3  A    between atoms: S_6  and  N_9
REMARK    4  A    between atoms: C_12  and  C_13
REMARK    5  A    between atoms: C_13  and  O_15
REMARK    6  A    between atoms: O_15  and  C_16
REMARK    7  A    between atoms: C_25  and  C_26
REMARK                            x       y       z     vdW  Elec       q    Type
REMARK                         _______ _______ _______ _____ _____    ______ ____
ROOT
ATOM      1  N   UNL     1       4.550   6.844  18.557  0.00  0.00    +0.000 NA
ATOM      2  C   UNL     1       5.155   5.592  19.068  0.00  0.00    +0.000 C 
ATOM      3  C   UNL     1       6.680   5.655  19.022  0.00  0.00    +0.000 C 
ATOM      4  C   UNL     1       7.195   6.025  17.632  0.00  0.00    +0.000 C 
ATOM      5  C   UNL     1       6.610   7.390  17.260  0.00  0.00    +0.000 C 
ATOM      6  C   UNL     1       5.086   7.374  17.280  0.00  0.00    +0.000 C 
ENDROOT
BRANCH   1   7
ATOM      7  S   UNL     1       2.841   6.956  18.722  0.00  0.00    +0.000 S 
ATOM      8  O   UNL     1       2.318   7.466  17.472  0.00  0.00    +0.000 OA
ATOM      9  O   UNL     1       2.544   7.615  19.976  0.00  0.00    +0.000 OA
BRANCH   7  14
ATOM     10  C   UNL     1       0.738   1.240  19.064  0.00  0.00    +0.000 C 
ATOM     11  C   UNL     1       1.298   2.638  19.020  0.00  0.00    +0.000 A 
ATOM     12  C   UNL     1       1.537   3.235  17.774  0.00  0.00    +0.000 A 
ATOM     13  C   UNL     1       2.023   4.540  17.691  0.00  0.00    +0.000 A 
ATOM     14  C   UNL     1       2.298   5.257  18.858  0.00  0.00    +0.000 A 
ATOM     15  C   UNL     1       2.058   4.682  20.110  0.00  0.00    +0.000 A 
ATOM     16  C   UNL     1       1.565   3.367  20.201  0.00  0.00    +0.000 A 
ATOM     17  C   UNL     1       1.308   2.765  21.557  0.00  0.00    +0.000 C 
ENDBRANCH   7  14
ENDBRANCH   1   7
BRANCH   4  18
ATOM     18  C   UNL     1       6.879   4.984  16.565  0.00  0.00    +0.000 C 
ATOM     19  O   UNL     1       6.480   3.854  16.806  0.00  0.00    +0.000 OA
BRANCH  18  20
ATOM     20  O   UNL     1       7.034   5.486  15.314  0.00  0.00    +0.000 OA
BRANCH  20  21
ATOM     21  C   UNL     1       7.275   4.518  14.296  0.00  0.00    +0.000 C 
ATOM     22  C   UNL     1       5.990   3.988  13.707  0.00  0.00    +0.000 C 
ATOM     23  C   UNL     1       6.394   3.643  12.298  0.00  0.00    +0.000 C 
ATOM     24  O   UNL     1       7.400   4.591  11.941  0.00  0.00    +0.000 OA
ATOM     25  C   UNL     1       7.924   5.140  13.078  0.00  0.00    +0.000 C 
ATOM     26  O   UNL     1       8.800   5.993  13.085  0.00  0.00    +0.000 OA
ENDBRANCH  20  21
ENDBRANCH  18  20
ENDBRANCH   4  18
TORSDOF 5
ENDMDL
MODEL 8
REMARK VINA RESULT:      -7.2      2.790      7.741
REMARK  Name = 
REMARK  7 active torsions:
REMARK  status: ('A' for Active; 'I' for Inactive)
REMARK    1  A    between atoms: C_1  and  C_2
REMARK    2  A    between atoms: C_5  and  S_6
REMARK    3  A    between atoms: S_6  and  N_9
REMARK    4  A    between atoms: C_12  and  C_13
REMARK    5  A    between atoms: C_13  and  O_15
REMARK    6  A    between atoms: O_15  and  C_16
REMARK    7  A    between atoms: C_25  and  C_26
REMARK                            x       y       z     vdW  Elec       q    Type
REMARK                         _______ _______ _______ _____ _____    ______ ____
ROOT
ATOM      1  N   UNL     1       5.637   6.169  17.802  0.00  0.00    +0.000 NA
ATOM      2  C   UNL     1       4.523   6.477  16.875  0.00  0.00    +0.000 C 
ATOM      3  C   UNL     1       3.284   6.948  17.633  0.00  0.00    +0.000 C 
ATOM      4  C   UNL     1       2.875   5.962  18.727  0.00  0.00    +0.000 C 
ATOM      5  C   UNL     1       4.051   5.818  19.696  0.00  0.00    +0.000 C 
ATOM      6  C   UNL     1       5.311   5.337  18.987  0.00  0.00    +0.000 C 
ENDROOT
BRANCH   1   7
ATOM      7  S   UNL     1       7.139   5.795  17.050  0.00  0.00    +0.000 S 
ATOM      8  O   UNL     1       7.789   4.787  17.861  0.00  0.00    +0.000 OA
ATOM      9  O   UNL     1       7.809   7.035  16.726  0.00  0.00    +0.000 OA
BRANCH   7  14
ATOM     10  C   UNL     1       5.687   2.861  11.902  0.00  0.00    +0.000 C 
ATOM     11  C   UNL     1       6.038   3.637  13.145  0.00  0.00    +0.000 A 
ATOM     12  C   UNL     1       5.448   3.270  14.364  0.00  0.00    +0.000 A 
ATOM     13  C   UNL     1       5.772   3.942  15.543  0.00  0.00    +0.000 A 
ATOM     14  C   UNL     1       6.678   5.006  15.511  0.00  0.00    +0.000 A 
ATOM     15  C   UNL     1       7.283   5.381  14.308  0.00  0.00    +0.000 A 
ATOM     16  C   UNL     1       6.962   4.705  13.116  0.00  0.00    +0.000 A 
ATOM     17  C   UNL     1       7.627   5.119  11.829  0.00  0.00    +0.000 C 
ENDBRANCH   7  14
ENDBRANCH   1   7
BRANCH   4  18
ATOM     18  C   UNL     1       2.434   4.605  18.195  0.00  0.00    +0.000 C 
ATOM     19  O   UNL     1       1.773   4.448  17.179  0.00  0.00    +0.000 OA
BRANCH  18  20
ATOM     20  O   UNL     1       2.920   3.588  18.951  0.00  0.00    +0.000 OA
BRANCH  20  21
ATOM     21  C   UNL     1       2.542   3.618  20.325  0.00  0.00    +0.000 C 
ATOM     22  C   UNL     1       1.092   3.244  20.519  0.00  0.00    +0.000 C 
ATOM     23  C   UNL     1       1.095   2.623  21.890  0.00  0.00    +0.000 C 
ATOM     24  O   UNL     1       2.369   1.994  22.027  0.00  0.00    +0.000 OA
ATOM     25  C   UNL     1       3.236   2.531  21.117  0.00  0.00    +0.000 C 
ATOM     26  O   UNL     1       4.401   2.181  20.993  0.00  0.00    +0.000 OA
ENDBRANCH  20  21
ENDBRANCH  18  20
ENDBRANCH   4  18
TORSDOF 5
ENDMDL
MODEL 9
REMARK VINA RESULT:      -7.2      2.370      4.249
REMARK  Name = 
REMARK  7 active torsions:
REMARK  status: ('A' for Active; 'I' for Inactive)
REMARK    1  A    between atoms: C_1  and  C_2
REMARK    2  A    between atoms: C_5  and  S_6
REMARK    3  A    between atoms: S_6  and  N_9
REMARK    4  A    between atoms: C_12  and  C_13
REMARK    5  A    between atoms: C_13  and  O_15
REMARK    6  A    between atoms: O_15  and  C_16
REMARK    7  A    between atoms: C_25  and  C_26
REMARK                            x       y       z     vdW  Elec       q    Type
REMARK                         _______ _______ _______ _____ _____    ______ ____
ROOT
ATOM      1  N   UNL     1       1.329   7.352  19.943  0.00  0.00    +0.000 NA
ATOM      2  C   UNL     1       2.220   7.926  18.908  0.00  0.00    +0.000 C 
ATOM      3  C   UNL     1       2.458   6.937  17.770  0.00  0.00    +0.000 C 
ATOM      4  C   UNL     1       2.955   5.586  18.281  0.00  0.00    +0.000 C 
ATOM      5  C   UNL     1       1.900   5.027  19.239  0.00  0.00    +0.000 C 
ATOM      6  C   UNL     1       1.636   5.975  20.403  0.00  0.00    +0.000 C 
ENDROOT
BRANCH   1   7
ATOM      7  S   UNL     1       0.850   8.438  21.188  0.00  0.00    +0.000 S 
ATOM      8  O   UNL     1       2.005   8.663  22.033  0.00  0.00    +0.000 OA
ATOM      9  O   UNL     1      -0.400   7.972  21.746  0.00  0.00    +0.000 OA
BRANCH   7  14
ATOM     10  C   UNL     1      -0.347  13.793  18.522  0.00  0.00    +0.000 C 
ATOM     11  C   UNL     1      -0.052  12.445  19.127  0.00  0.00    +0.000 A 
ATOM     12  C   UNL     1       0.967  12.339  20.085  0.00  0.00    +0.000 A 
ATOM     13  C   UNL     1       1.249  11.115  20.693  0.00  0.00    +0.000 A 
ATOM     14  C   UNL     1       0.525   9.975  20.333  0.00  0.00    +0.000 A 
ATOM     15  C   UNL     1      -0.501  10.063  19.386  0.00  0.00    +0.000 A 
ATOM     16  C   UNL     1      -0.791  11.295  18.771  0.00  0.00    +0.000 A 
ATOM     17  C   UNL     1      -1.903  11.371  17.758  0.00  0.00    +0.000 C 
ENDBRANCH   7  14
ENDBRANCH   1   7
BRANCH   4  18
ATOM     18  C   UNL     1       4.323   5.648  18.949  0.00  0.00    +0.000 C 
ATOM     19  O   UNL     1       4.538   5.314  20.105  0.00  0.00    +0.000 OA
BRANCH  18  20
ATOM     20  O   UNL     1       5.284   6.060  18.084  0.00  0.00    +0.000 OA
BRANCH  20  21
ATOM     21  C   UNL     1       5.741   5.070  17.167  0.00  0.00    +0.000 C 
ATOM     22  C   UNL     1       5.777   5.588  15.749  0.00  0.00    +0.000 C 
ATOM     23  C   UNL     1       6.897   4.788  15.137  0.00  0.00    +0.000 C 
ATOM     24  O   UNL     1       7.828   4.555  16.193  0.00  0.00    +0.000 OA
ATOM     25  C   UNL     1       7.198   4.730  17.394  0.00  0.00    +0.000 C 
ATOM     26  O   UNL     1       7.748   4.607  18.480  0.00  0.00    +0.000 OA
ENDBRANCH  20  21
ENDBRANCH  18  20
ENDBRANCH   4  18
TORSDOF 5
ENDMDL
