MODEL 1
REMARK VINA RESULT:      -8.2      0.000      0.000
REMARK  Name = 
REMARK  5 active torsions:
REMARK  status: ('A' for Active; 'I' for Inactive)
REMARK    1  A    between atoms: C_1  and  C_2
REMARK    2  A    between atoms: N_6  and  N_7
REMARK    3  A    between atoms: C_8  and  C_9
REMARK    4  A    between atoms: C_14  and  C_15
REMARK    5  A    between atoms: N_19  and  N_20
REMARK                            x       y       z     vdW  Elec       q    Type
REMARK                         _______ _______ _______ _____ _____    ______ ____
ROOT
ATOM      1  N   UNL     1       4.596   3.340  17.161  0.00  0.00    +0.000 NA
ATOM      2  C   UNL     1       3.504   4.035  17.179  0.00  0.00    +0.000 C 
ENDROOT
BRANCH   1   8
ATOM      3  C   UNL     1       8.122   7.032  18.678  0.00  0.00    +0.000 C 
ATOM      4  C   UNL     1       7.550   6.259  17.556  0.00  0.00    +0.000 A 
ATOM      5  N   UNL     1       7.704   6.476  16.265  0.00  0.00    +0.000 NA
ATOM      6  N   UNL     1       6.987   5.511  15.582  0.00  0.00    +0.000 NA
ATOM      7  C   UNL     1       6.381   4.745  16.466  0.00  0.00    +0.000 A 
ATOM      8  N   UNL     1       5.536   3.700  16.246  0.00  0.00    +0.000 N 
ATOM      9  N   UNL     1       6.737   5.172  17.731  0.00  0.00    +0.000 N 
ATOM     10  H   UNL     1       5.362   3.505  15.260  0.00  0.00    +0.000 HD
BRANCH   9  11
ATOM     11  N   UNL     1       6.340   4.594  18.991  0.00  0.00    +0.000 N 
ATOM     12  H   UNL     1       5.355   4.853  19.121  0.00  0.00    +0.000 HD
ATOM     13  H   UNL     1       6.818   5.068  19.755  0.00  0.00    +0.000 HD
ENDBRANCH   9  11
ENDBRANCH   1   8
BRANCH   2  14
ATOM     14  C   UNL     1       2.480   3.737  18.208  0.00  0.00    +0.000 A 
ATOM     15  C   UNL     1       1.944   2.435  18.188  0.00  0.00    +0.000 A 
ATOM     16  C   UNL     1       0.987   2.041  19.119  0.00  0.00    +0.000 A 
ATOM     17  C   UNL     1       0.552   2.944  20.078  0.00  0.00    +0.000 A 
ATOM     18  C   UNL     1       1.073   4.239  20.101  0.00  0.00    +0.000 A 
ATOM     19  C   UNL     1       2.042   4.662  19.165  0.00  0.00    +0.000 A 
BRANCH  19  20
ATOM     20  C   UNL     1       2.493   6.099  19.242  0.00  0.00    +0.000 C 
ATOM     21  F   UNL     1       3.823   6.285  19.445  0.00  0.00    +0.000 F 
ATOM     22  F   UNL     1       2.199   6.787  18.103  0.00  0.00    +0.000 F 
ATOM     23  F   UNL     1       1.871   6.773  20.250  0.00  0.00    +0.000 F 
ENDBRANCH  19  20
ENDBRANCH   2  14
TORSDOF 4
ENDMDL
MODEL 2
REMARK VINA RESULT:      -7.3      1.287      1.323
REMARK  Name = 
REMARK  5 active torsions:
REMARK  status: ('A' for Active; 'I' for Inactive)
REMARK    1  A    between atoms: C_1  and  C_2
REMARK    2  A    between atoms: N_6  and  N_7
REMARK    3  A    between atoms: C_8  and  C_9
REMARK    4  A    between atoms: C_14  and  C_15
REMARK    5  A    between atoms: N_19  and  N_20
REMARK                            x       y       z     vdW  Elec       q    Type
REMARK                         _______ _______ _______ _____ _____    ______ ____
ROOT
ATOM      1  N   UNL     1       5.488   3.774  18.490  0.00  0.00    +0.000 NA
ATOM      2  C   UNL     1       4.214   3.696  18.279  0.00  0.00    +0.000 C 
ENDROOT
BRANCH   1   8
ATOM      3  C   UNL     1       8.158   8.360  18.043  0.00  0.00    +0.000 C 
ATOM      4  C   UNL     1       7.726   7.114  17.377  0.00  0.00    +0.000 A 
ATOM      5  N   UNL     1       7.772   6.828  16.091  0.00  0.00    +0.000 NA
ATOM      6  N   UNL     1       7.261   5.555  15.918  0.00  0.00    +0.000 NA
ATOM      7  C   UNL     1       6.881   5.100  17.095  0.00  0.00    +0.000 A 
ATOM      8  N   UNL     1       6.283   3.914  17.395  0.00  0.00    +0.000 N 
ATOM      9  N   UNL     1       7.187   6.051  18.050  0.00  0.00    +0.000 N 
ATOM     10  H   UNL     1       6.115   3.316  16.585  0.00  0.00    +0.000 HD
BRANCH   9  11
ATOM     11  N   UNL     1       6.985   5.954  19.475  0.00  0.00    +0.000 N 
ATOM     12  H   UNL     1       6.420   5.108  19.621  0.00  0.00    +0.000 HD
ATOM     13  H   UNL     1       6.378   6.708  19.790  0.00  0.00    +0.000 HD
ENDBRANCH   9  11
ENDBRANCH   1   8
BRANCH   2  14
ATOM     14  C   UNL     1       3.297   3.622  19.441  0.00  0.00    +0.000 A 
ATOM     15  C   UNL     1       3.210   2.372  20.082  0.00  0.00    +0.000 A 
ATOM     16  C   UNL     1       2.391   2.193  21.194  0.00  0.00    +0.000 A 
ATOM     17  C   UNL     1       1.648   3.261  21.676  0.00  0.00    +0.000 A 
ATOM     18  C   UNL     1       1.723   4.502  21.042  0.00  0.00    +0.000 A 
ATOM     19  C   UNL     1       2.544   4.707  19.911  0.00  0.00    +0.000 A 
BRANCH  19  20
ATOM     20  C   UNL     1       2.504   6.070  19.268  0.00  0.00    +0.000 C 
ATOM     21  F   UNL     1       3.714   6.618  18.984  0.00  0.00    +0.000 F 
ATOM     22  F   UNL     1       1.824   6.058  18.088  0.00  0.00    +0.000 F 
ATOM     23  F   UNL     1       1.864   6.983  20.052  0.00  0.00    +0.000 F 
ENDBRANCH  19  20
ENDBRANCH   2  14
TORSDOF 4
ENDMDL
MODEL 3
REMARK VINA RESULT:      -7.2      1.910      2.499
REMARK  Name = 
REMARK  5 active torsions:
REMARK  status: ('A' for Active; 'I' for Inactive)
REMARK    1  A    between atoms: C_1  and  C_2
REMARK    2  A    between atoms: N_6  and  N_7
REMARK    3  A    between atoms: C_8  and  C_9
REMARK    4  A    between atoms: C_14  and  C_15
REMARK    5  A    between atoms: N_19  and  N_20
REMARK                            x       y       z     vdW  Elec       q    Type
REMARK                         _______ _______ _______ _____ _____    ______ ____
ROOT
ATOM      1  N   UNL     1       5.529   4.111  19.372  0.00  0.00    +0.000 NA
ATOM      2  C   UNL     1       4.629   3.268  18.980  0.00  0.00    +0.000 C 
ENDROOT
BRANCH   1   8
ATOM      3  C   UNL     1       5.226   6.968  14.888  0.00  0.00    +0.000 C 
ATOM      4  C   UNL     1       6.010   6.003  15.685  0.00  0.00    +0.000 A 
ATOM      5  N   UNL     1       7.044   5.284  15.294  0.00  0.00    +0.000 NA
ATOM      6  N   UNL     1       7.461   4.517  16.367  0.00  0.00    +0.000 NA
ATOM      7  C   UNL     1       6.655   4.756  17.382  0.00  0.00    +0.000 A 
ATOM      8  N   UNL     1       6.661   4.192  18.622  0.00  0.00    +0.000 N 
ATOM      9  N   UNL     1       5.738   5.715  16.995  0.00  0.00    +0.000 N 
ATOM     10  H   UNL     1       7.393   3.495  18.759  0.00  0.00    +0.000 HD
BRANCH   9  11
ATOM     11  N   UNL     1       4.699   6.305  17.803  0.00  0.00    +0.000 N 
ATOM     12  H   UNL     1       4.371   7.127  17.282  0.00  0.00    +0.000 HD
ATOM     13  H   UNL     1       5.102   6.700  18.650  0.00  0.00    +0.000 HD
ENDBRANCH   9  11
ENDBRANCH   1   8
BRANCH   2  14
ATOM     14  C   UNL     1       3.345   3.195  19.715  0.00  0.00    +0.000 A 
ATOM     15  C   UNL     1       3.397   2.617  20.998  0.00  0.00    +0.000 A 
ATOM     16  C   UNL     1       2.253   2.512  21.783  0.00  0.00    +0.000 A 
ATOM     17  C   UNL     1       1.042   2.982  21.295  0.00  0.00    +0.000 A 
ATOM     18  C   UNL     1       0.979   3.550  20.022  0.00  0.00    +0.000 A 
ATOM     19  C   UNL     1       2.126   3.664  19.206  0.00  0.00    +0.000 A 
BRANCH  19  20
ATOM     20  C   UNL     1       1.935   4.238  17.825  0.00  0.00    +0.000 C 
ATOM     21  F   UNL     1       2.817   3.809  16.885  0.00  0.00    +0.000 F 
ATOM     22  F   UNL     1       0.701   3.955  17.321  0.00  0.00    +0.000 F 
ATOM     23  F   UNL     1       2.029   5.597  17.823  0.00  0.00    +0.000 F 
ENDBRANCH  19  20
ENDBRANCH   2  14
TORSDOF 4
ENDMDL
MODEL 4
REMARK VINA RESULT:      -7.2      4.687      6.406
REMARK  Name = 
REMARK  5 active torsions:
REMARK  status: ('A' for Active; 'I' for Inactive)
REMARK    1  A    between atoms: C_1  and  C_2
REMARK    2  A    between atoms: N_6  and  N_7
REMARK    3  A    between atoms: C_8  and  C_9
REMARK    4  A    between atoms: C_14  and  C_15
REMARK    5  A    between atoms: N_19  and  N_20
REMARK                            x       y       z     vdW  Elec       q    Type
REMARK                         _______ _______ _______ _____ _____    ______ ____
ROOT
ATOM      1  N   UNL     1       2.415   7.045  19.718  0.00  0.00    +0.000 NA
ATOM      2  C   UNL     1       2.597   5.803  19.403  0.00  0.00    +0.000 C 
ENDROOT
BRANCH   1   8
ATOM      3  C   UNL     1       0.378  11.939  20.235  0.00  0.00    +0.000 C 
ATOM      4  C   UNL     1       0.676  10.651  20.894  0.00  0.00    +0.000 A 
ATOM      5  N   UNL     1       0.653  10.379  22.183  0.00  0.00    +0.000 NA
ATOM      6  N   UNL     1       1.004   9.052  22.347  0.00  0.00    +0.000 NA
ATOM      7  C   UNL     1       1.268   8.546  21.159  0.00  0.00    +0.000 A 
ATOM      8  N   UNL     1       1.695   7.291  20.846  0.00  0.00    +0.000 N 
ATOM      9  N   UNL     1       1.044   9.524  20.209  0.00  0.00    +0.000 N 
ATOM     10  H   UNL     1       1.821   6.681  21.654  0.00  0.00    +0.000 HD
BRANCH   9  11
ATOM     11  N   UNL     1       1.167   9.395  18.777  0.00  0.00    +0.000 N 
ATOM     12  H   UNL     1       1.885  10.073  18.495  0.00  0.00    +0.000 HD
ATOM     13  H   UNL     1       0.321   9.736  18.326  0.00  0.00    +0.000 HD
ENDBRANCH   9  11
ENDBRANCH   1   8
BRANCH   2  14
ATOM     14  C   UNL     1       3.440   5.478  18.228  0.00  0.00    +0.000 A 
ATOM     15  C   UNL     1       4.121   6.558  17.637  0.00  0.00    +0.000 A 
ATOM     16  C   UNL     1       4.953   6.365  16.537  0.00  0.00    +0.000 A 
ATOM     17  C   UNL     1       5.111   5.090  16.015  0.00  0.00    +0.000 A 
ATOM     18  C   UNL     1       4.434   4.013  16.591  0.00  0.00    +0.000 A 
ATOM     19  C   UNL     1       3.583   4.186  17.704  0.00  0.00    +0.000 A 
BRANCH  19  20
ATOM     20  C   UNL     1       2.854   2.967  18.209  0.00  0.00    +0.000 C 
ATOM     21  F   UNL     1       3.018   2.692  19.529  0.00  0.00    +0.000 F 
ATOM     22  F   UNL     1       1.508   3.063  18.024  0.00  0.00    +0.000 F 
ATOM     23  F   UNL     1       3.236   1.837  17.550  0.00  0.00    +0.000 F 
ENDBRANCH  19  20
ENDBRANCH   2  14
TORSDOF 4
ENDMDL
MODEL 5
REMARK VINA RESULT:      -7.2      2.129      2.730
REMARK  Name = 
REMARK  5 active torsions:
REMARK  status: ('A' for Active; 'I' for Inactive)
REMARK    1  A    between atoms: C_1  and  C_2
REMARK    2  A    between atoms: N_6  and  N_7
REMARK    3  A    between atoms: C_8  and  C_9
REMARK    4  A    between atoms: C_14  and  C_15
REMARK    5  A    between atoms: N_19  and  N_20
REMARK                            x       y       z     vdW  Elec       q    Type
REMARK                         _______ _______ _______ _____ _____    ______ ____
ROOT
ATOM      1  N   UNL     1       4.885   3.818  17.872  0.00  0.00    +0.000 NA
ATOM      2  C   UNL     1       3.825   4.546  17.723  0.00  0.00    +0.000 C 
ENDROOT
BRANCH   1   8
ATOM      3  C   UNL     1       8.137   8.027  18.137  0.00  0.00    +0.000 C 
ATOM      4  C   UNL     1       7.652   6.892  17.325  0.00  0.00    +0.000 A 
ATOM      5  N   UNL     1       7.841   6.681  16.038  0.00  0.00    +0.000 NA
ATOM      6  N   UNL     1       7.206   5.499  15.701  0.00  0.00    +0.000 NA
ATOM      7  C   UNL     1       6.612   5.029  16.779  0.00  0.00    +0.000 A 
ATOM      8  N   UNL     1       5.836   3.917  16.905  0.00  0.00    +0.000 N 
ATOM      9  N   UNL     1       6.896   5.872  17.837  0.00  0.00    +0.000 N 
ATOM     10  H   UNL     1       5.711   3.396  16.036  0.00  0.00    +0.000 HD
BRANCH   9  11
ATOM     11  N   UNL     1       6.487   5.717  19.211  0.00  0.00    +0.000 N 
ATOM     12  H   UNL     1       6.056   4.785  19.272  0.00  0.00    +0.000 HD
ATOM     13  H   UNL     1       5.719   6.353  19.417  0.00  0.00    +0.000 HD
ENDBRANCH   9  11
ENDBRANCH   1   8
BRANCH   2  14
ATOM     14  C   UNL     1       2.793   4.536  18.787  0.00  0.00    +0.000 A 
ATOM     15  C   UNL     1       2.702   5.701  19.572  0.00  0.00    +0.000 A 
ATOM     16  C   UNL     1       1.758   5.807  20.590  0.00  0.00    +0.000 A 
ATOM     17  C   UNL     1       0.896   4.748  20.836  0.00  0.00    +0.000 A 
ATOM     18  C   UNL     1       0.984   3.586  20.067  0.00  0.00    +0.000 A 
ATOM     19  C   UNL     1       1.936   3.455  19.032  0.00  0.00    +0.000 A 
BRANCH  19  20
ATOM     20  C   UNL     1       1.985   2.136  18.304  0.00  0.00    +0.000 C 
ATOM     21  F   UNL     1       2.222   2.213  16.969  0.00  0.00    +0.000 F 
ATOM     22  F   UNL     1       2.954   1.316  18.798  0.00  0.00    +0.000 F 
ATOM     23  F   UNL     1       0.818   1.443  18.429  0.00  0.00    +0.000 F 
ENDBRANCH  19  20
ENDBRANCH   2  14
TORSDOF 4
ENDMDL
MODEL 6
REMARK VINA RESULT:      -7.1      4.775      6.217
REMARK  Name = 
REMARK  5 active torsions:
REMARK  status: ('A' for Active; 'I' for Inactive)
REMARK    1  A    between atoms: C_1  and  C_2
REMARK    2  A    between atoms: N_6  and  N_7
REMARK    3  A    between atoms: C_8  and  C_9
REMARK    4  A    between atoms: C_14  and  C_15
REMARK    5  A    between atoms: N_19  and  N_20
REMARK                            x       y       z     vdW  Elec       q    Type
REMARK                         _______ _______ _______ _____ _____    ______ ____
ROOT
ATOM      1  N   UNL     1       1.997   7.770  18.385  0.00  0.00    +0.000 NA
ATOM      2  C   UNL     1       3.151   7.406  17.924  0.00  0.00    +0.000 C 
ENDROOT
BRANCH   1   8
ATOM      3  C   UNL     1      -0.203   9.507  22.913  0.00  0.00    +0.000 C 
ATOM      4  C   UNL     1       0.166   9.826  21.518  0.00  0.00    +0.000 A 
ATOM      5  N   UNL     1      -0.218  10.862  20.799  0.00  0.00    +0.000 NA
ATOM      6  N   UNL     1       0.366  10.755  19.550  0.00  0.00    +0.000 NA
ATOM      7  C   UNL     1       1.067   9.639  19.518  0.00  0.00    +0.000 A 
ATOM      8  N   UNL     1       1.770   9.107  18.480  0.00  0.00    +0.000 N 
ATOM      9  N   UNL     1       0.987   9.037  20.759  0.00  0.00    +0.000 N 
ATOM     10  H   UNL     1       1.733   9.663  17.624  0.00  0.00    +0.000 HD
BRANCH   9  11
ATOM     11  N   UNL     1       1.636   7.821  21.183  0.00  0.00    +0.000 N 
ATOM     12  H   UNL     1       2.122   8.053  22.058  0.00  0.00    +0.000 HD
ATOM     13  H   UNL     1       2.390   7.590  20.540  0.00  0.00    +0.000 HD
ENDBRANCH   9  11
ENDBRANCH   1   8
BRANCH   2  14
ATOM     14  C   UNL     1       3.420   5.962  17.726  0.00  0.00    +0.000 A 
ATOM     15  C   UNL     1       2.588   5.074  18.433  0.00  0.00    +0.000 A 
ATOM     16  C   UNL     1       2.743   3.696  18.310  0.00  0.00    +0.000 A 
ATOM     17  C   UNL     1       3.733   3.190  17.480  0.00  0.00    +0.000 A 
ATOM     18  C   UNL     1       4.568   4.063  16.781  0.00  0.00    +0.000 A 
ATOM     19  C   UNL     1       4.432   5.464  16.893  0.00  0.00    +0.000 A 
BRANCH  19  20
ATOM     20  C   UNL     1       5.424   6.315  16.141  0.00  0.00    +0.000 C 
ATOM     21  F   UNL     1       6.129   7.196  16.896  0.00  0.00    +0.000 F 
ATOM     22  F   UNL     1       6.358   5.560  15.496  0.00  0.00    +0.000 F 
ATOM     23  F   UNL     1       4.822   7.062  15.173  0.00  0.00    +0.000 F 
ENDBRANCH  19  20
ENDBRANCH   2  14
TORSDOF 4
ENDMDL
MODEL 7
REMARK VINA RESULT:      -7.1      4.851      6.279
REMARK  Name = 
REMARK  5 active torsions:
REMARK  status: ('A' for Active; 'I' for Inactive)
REMARK    1  A    between atoms: C_1  and  C_2
REMARK    2  A    between atoms: N_6  and  N_7
REMARK    3  A    between atoms: C_8  and  C_9
REMARK    4  A    between atoms: C_14  and  C_15
REMARK    5  A    between atoms: N_19  and  N_20
REMARK                            x       y       z     vdW  Elec       q    Type
REMARK                         _______ _______ _______ _____ _____    ______ ____
ROOT
ATOM      1  N   UNL     1       2.129   7.174  20.157  0.00  0.00    +0.000 NA
ATOM      2  C   UNL     1       1.998   5.887  20.118  0.00  0.00    +0.000 C 
ENDROOT
BRANCH   1   8
ATOM      3  C   UNL     1       0.564  12.188  19.274  0.00  0.00    +0.000 C 
ATOM      4  C   UNL     1       0.808  11.130  20.276  0.00  0.00    +0.000 A 
ATOM      5  N   UNL     1       0.871  11.258  21.586  0.00  0.00    +0.000 NA
ATOM      6  N   UNL     1       1.121  10.010  22.126  0.00  0.00    +0.000 NA
ATOM      7  C   UNL     1       1.240   9.149  21.135  0.00  0.00    +0.000 A 
ATOM      8  N   UNL     1       1.531   7.820  21.195  0.00  0.00    +0.000 N 
ATOM      9  N   UNL     1       1.019   9.818  19.947  0.00  0.00    +0.000 N 
ATOM     10  H   UNL     1       1.673   7.467  22.142  0.00  0.00    +0.000 HD
BRANCH   9  11
ATOM     11  N   UNL     1       1.008   9.258  18.618  0.00  0.00    +0.000 N 
ATOM     12  H   UNL     1       0.302   8.511  18.634  0.00  0.00    +0.000 HD
ATOM     13  H   UNL     1       1.881   8.762  18.445  0.00  0.00    +0.000 HD
ENDBRANCH   9  11
ENDBRANCH   1   8
BRANCH   2  14
ATOM     14  C   UNL     1       2.695   5.128  19.053  0.00  0.00    +0.000 A 
ATOM     15  C   UNL     1       3.489   5.885  18.171  0.00  0.00    +0.000 A 
ATOM     16  C   UNL     1       4.200   5.272  17.143  0.00  0.00    +0.000 A 
ATOM     17  C   UNL     1       4.123   3.897  16.983  0.00  0.00    +0.000 A 
ATOM     18  C   UNL     1       3.333   3.138  17.849  0.00  0.00    +0.000 A 
ATOM     19  C   UNL     1       2.600   3.738  18.896  0.00  0.00    +0.000 A 
BRANCH  19  20
ATOM     20  C   UNL     1       1.731   2.835  19.734  0.00  0.00    +0.000 C 
ATOM     21  F   UNL     1       2.048   2.778  21.054  0.00  0.00    +0.000 F 
ATOM     22  F   UNL     1       0.420   3.204  19.691  0.00  0.00    +0.000 F 
ATOM     23  F   UNL     1       1.765   1.546  19.294  0.00  0.00    +0.000 F 
ENDBRANCH  19  20
ENDBRANCH   2  14
TORSDOF 4
ENDMDL
MODEL 8
REMARK VINA RESULT:      -6.9      2.467      3.464
REMARK  Name = 
REMARK  5 active torsions:
REMARK  status: ('A' for Active; 'I' for Inactive)
REMARK    1  A    between atoms: C_1  and  C_2
REMARK    2  A    between atoms: N_6  and  N_7
REMARK    3  A    between atoms: C_8  and  C_9
REMARK    4  A    between atoms: C_14  and  C_15
REMARK    5  A    between atoms: N_19  and  N_20
REMARK                            x       y       z     vdW  Elec       q    Type
REMARK                         _______ _______ _______ _____ _____    ______ ____
ROOT
ATOM      1  N   UNL     1       4.342   6.008  18.045  0.00  0.00    +0.000 NA
ATOM      2  C   UNL     1       4.467   5.180  19.032  0.00  0.00    +0.000 C 
ENDROOT
BRANCH   1   8
ATOM      3  C   UNL     1       6.343   3.782  13.639  0.00  0.00    +0.000 C 
ATOM      4  C   UNL     1       6.572   4.710  14.766  0.00  0.00    +0.000 A 
ATOM      5  N   UNL     1       7.714   5.240  15.156  0.00  0.00    +0.000 NA
ATOM      6  N   UNL     1       7.459   6.044  16.252  0.00  0.00    +0.000 NA
ATOM      7  C   UNL     1       6.174   5.964  16.532  0.00  0.00    +0.000 A 
ATOM      8  N   UNL     1       5.489   6.550  17.553  0.00  0.00    +0.000 N 
ATOM      9  N   UNL     1       5.573   5.148  15.593  0.00  0.00    +0.000 N 
ATOM     10  H   UNL     1       6.068   7.120  18.170  0.00  0.00    +0.000 HD
BRANCH   9  11
ATOM     11  N   UNL     1       4.172   4.818  15.492  0.00  0.00    +0.000 N 
ATOM     12  H   UNL     1       3.954   4.261  16.327  0.00  0.00    +0.000 HD
ATOM     13  H   UNL     1       4.025   4.169  14.722  0.00  0.00    +0.000 HD
ENDBRANCH   9  11
ENDBRANCH   1   8
BRANCH   2  14
ATOM     14  C   UNL     1       3.258   4.500  19.555  0.00  0.00    +0.000 A 
ATOM     15  C   UNL     1       2.318   5.322  20.205  0.00  0.00    +0.000 A 
ATOM     16  C   UNL     1       1.139   4.791  20.721  0.00  0.00    +0.000 A 
ATOM     17  C   UNL     1       0.887   3.433  20.595  0.00  0.00    +0.000 A 
ATOM     18  C   UNL     1       1.817   2.609  19.959  0.00  0.00    +0.000 A 
ATOM     19  C   UNL     1       3.021   3.124  19.431  0.00  0.00    +0.000 A 
BRANCH  19  20
ATOM     20  C   UNL     1       3.983   2.138  18.818  0.00  0.00    +0.000 C 
ATOM     21  F   UNL     1       3.466   0.913  18.539  0.00  0.00    +0.000 F 
ATOM     22  F   UNL     1       4.497   2.592  17.640  0.00  0.00    +0.000 F 
ATOM     23  F   UNL     1       5.057   1.908  19.624  0.00  0.00    +0.000 F 
ENDBRANCH  19  20
ENDBRANCH   2  14
TORSDOF 4
ENDMDL
MODEL 9
REMARK VINA RESULT:      -6.9      4.203      5.554
REMARK  Name = 
REMARK  5 active torsions:
REMARK  status: ('A' for Active; 'I' for Inactive)
REMARK    1  A    between atoms: C_1  and  C_2
REMARK    2  A    between atoms: N_6  and  N_7
REMARK    3  A    between atoms: C_8  and  C_9
REMARK    4  A    between atoms: C_14  and  C_15
REMARK    5  A    between atoms: N_19  and  N_20
REMARK                            x       y       z     vdW  Elec       q    Type
REMARK                         _______ _______ _______ _____ _____    ______ ____
ROOT
ATOM      1  N   UNL     1       2.806   6.921  18.574  0.00  0.00    +0.000 NA
ATOM      2  C   UNL     1       2.273   6.095  17.732  0.00  0.00    +0.000 C 
ENDROOT
BRANCH   1   8
ATOM      3  C   UNL     1      -0.399   9.144  22.201  0.00  0.00    +0.000 C 
ATOM      4  C   UNL     1       0.255   9.281  20.883  0.00  0.00    +0.000 A 
ATOM      5  N   UNL     1       0.001  10.170  19.944  0.00  0.00    +0.000 NA
ATOM      6  N   UNL     1       0.849   9.922  18.880  0.00  0.00    +0.000 NA
ATOM      7  C   UNL     1       1.580   8.867  19.174  0.00  0.00    +0.000 A 
ATOM      8  N   UNL     1       2.514   8.239  18.406  0.00  0.00    +0.000 N 
ATOM      9  N   UNL     1       1.251   8.449  20.450  0.00  0.00    +0.000 N 
ATOM     10  H   UNL     1       2.645   8.659  17.485  0.00  0.00    +0.000 HD
BRANCH   9  11
ATOM     11  N   UNL     1       1.836   7.356  21.188  0.00  0.00    +0.000 N 
ATOM     12  H   UNL     1       2.829   7.595  21.303  0.00  0.00    +0.000 HD
ATOM     13  H   UNL     1       1.854   6.519  20.610  0.00  0.00    +0.000 HD
ENDBRANCH   9  11
ENDBRANCH   1   8
BRANCH   2  14
ATOM     14  C   UNL     1       2.494   4.641  17.917  0.00  0.00    +0.000 A 
ATOM     15  C   UNL     1       1.433   3.923  18.500  0.00  0.00    +0.000 A 
ATOM     16  C   UNL     1       1.528   2.549  18.707  0.00  0.00    +0.000 A 
ATOM     17  C   UNL     1       2.683   1.879  18.335  0.00  0.00    +0.000 A 
ATOM     18  C   UNL     1       3.743   2.584  17.763  0.00  0.00    +0.000 A 
ATOM     19  C   UNL     1       3.672   3.978  17.547  0.00  0.00    +0.000 A 
BRANCH  19  20
ATOM     20  C   UNL     1       4.896   4.650  16.978  0.00  0.00    +0.000 C 
ATOM     21  F   UNL     1       4.664   5.536  15.975  0.00  0.00    +0.000 F 
ATOM     22  F   UNL     1       5.583   5.347  17.926  0.00  0.00    +0.000 F 
ATOM     23  F   UNL     1       5.782   3.747  16.471  0.00  0.00    +0.000 F 
ENDBRANCH  19  20
ENDBRANCH   2  14
TORSDOF 4
ENDMDL
