MODEL 1
REMARK VINA RESULT:      -6.0      0.000      0.000
REMARK  Name = 
REMARK  14 active torsions:
REMARK  status: ('A' for Active; 'I' for Inactive)
REMARK    1  A    between atoms: C_1  and  C_2
REMARK    2  A    between atoms: C_2  and  C_3
REMARK    3  A    between atoms: C_3  and  C_4
REMARK    4  A    between atoms: C_4  and  C_5
REMARK    5  A    between atoms: C_5  and  C_6
REMARK    6  A    between atoms: C_6  and  C_7
REMARK    7  A    between atoms: C_7  and  C_8
REMARK    8  A    between atoms: C_8  and  C_9
REMARK    9  A    between atoms: C_12  and  C_13
REMARK   10  A    between atoms: C_13  and  C_14
REMARK   11  A    between atoms: C_14  and  CA_15
REMARK   12  A    between atoms: CA_15  and  N_16
REMARK   13  A    between atoms: CA_15  and  C_17
REMARK   14  A    between atoms: C_17  and  O_18
REMARK                            x       y       z     vdW  Elec       q    Type
REMARK                         _______ _______ _______ _____ _____    ______ ____
ROOT
ATOM      1  C   UNL     1       2.616   2.710  18.351  0.00  0.00    +0.000 A 
ATOM      2  C   UNL     1       2.492   3.295  17.086  0.00  0.00    +0.000 A 
ATOM      3  C   UNL     1       3.609   3.808  16.433  0.00  0.00    +0.000 A 
ATOM      4  C   UNL     1       4.866   3.777  17.047  0.00  0.00    +0.000 A 
ATOM      5  C   UNL     1       4.984   3.229  18.331  0.00  0.00    +0.000 A 
ATOM      6  C   UNL     1       3.866   2.700  18.978  0.00  0.00    +0.000 A 
ENDROOT
BRANCH   1   7
ATOM      7  C   UNL     1       1.428   2.022  18.976  0.00  0.00    +0.000 C 
BRANCH   7   8
ATOM      8  C   UNL     1       0.664   3.019  19.850  0.00  0.00    +0.000 C 
BRANCH   8   9
ATOM      9  C   UNL     1       1.196   3.071  21.275  0.00  0.00    +0.000 C 
BRANCH   9  10
ATOM     10  C   UNL     1       2.148   4.256  21.428  0.00  0.00    +0.000 C 
BRANCH  10  11
ATOM     11  C   UNL     1       1.671   5.455  20.618  0.00  0.00    +0.000 C 
BRANCH  11  12
ATOM     12  C   UNL     1       2.824   6.074  19.832  0.00  0.00    +0.000 C 
BRANCH  12  14
ATOM     13  C   UNL     1       3.437   7.361  17.761  0.00  0.00    +0.000 C 
ATOM     14  C   UNL     1       2.347   6.578  18.473  0.00  0.00    +0.000 C 
ENDBRANCH  12  14
ENDBRANCH  11  12
ENDBRANCH  10  11
ENDBRANCH   9  10
ENDBRANCH   8   9
ENDBRANCH   7   8
ENDBRANCH   1   7
BRANCH   4  15
ATOM     15  C   UNL     1       6.072   4.315  16.321  0.00  0.00    +0.000 C 
BRANCH  15  16
ATOM     16  C   UNL     1       6.592   5.639  16.895  0.00  0.00    +0.000 C 
BRANCH  16  17
ATOM     17  CA  UNL     1       7.682   5.482  17.972  0.00  0.00    +0.000 C 
BRANCH  17  18
ATOM     18  N   UNL     1       8.267   4.137  17.813  0.00  0.00    +0.000 NA
ATOM     19  H1  UNL     1       9.035   4.208  17.140  0.00  0.00    +0.000 HD
ATOM     20  H2  UNL     1       7.585   3.537  17.347  0.00  0.00    +0.000 HD
ENDBRANCH  17  18
BRANCH  17  21
ATOM     21  C   UNL     1       7.156   5.660  19.412  0.00  0.00    +0.000 C 
BRANCH  21  22
ATOM     22  O   UNL     1       8.202   5.511  20.371  0.00  0.00    +0.000 OA
ATOM     23  H   UNL     1       9.047   5.563  19.896  0.00  0.00    +0.000 HD
ENDBRANCH  21  22
ENDBRANCH  17  21
ENDBRANCH  16  17
ENDBRANCH  15  16
ENDBRANCH   4  15
TORSDOF 13
ENDMDL
MODEL 2
REMARK VINA RESULT:      -5.9      3.885      6.967
REMARK  Name = 
REMARK  14 active torsions:
REMARK  status: ('A' for Active; 'I' for Inactive)
REMARK    1  A    between atoms: C_1  and  C_2
REMARK    2  A    between atoms: C_2  and  C_3
REMARK    3  A    between atoms: C_3  and  C_4
REMARK    4  A    between atoms: C_4  and  C_5
REMARK    5  A    between atoms: C_5  and  C_6
REMARK    6  A    between atoms: C_6  and  C_7
REMARK    7  A    between atoms: C_7  and  C_8
REMARK    8  A    between atoms: C_8  and  C_9
REMARK    9  A    between atoms: C_12  and  C_13
REMARK   10  A    between atoms: C_13  and  C_14
REMARK   11  A    between atoms: C_14  and  CA_15
REMARK   12  A    between atoms: CA_15  and  N_16
REMARK   13  A    between atoms: CA_15  and  C_17
REMARK   14  A    between atoms: C_17  and  O_18
REMARK                            x       y       z     vdW  Elec       q    Type
REMARK                         _______ _______ _______ _____ _____    ______ ____
ROOT
ATOM      1  C   UNL     1       5.598   5.039  16.387  0.00  0.00    +0.000 A 
ATOM      2  C   UNL     1       5.434   6.204  17.145  0.00  0.00    +0.000 A 
ATOM      3  C   UNL     1       4.292   6.389  17.917  0.00  0.00    +0.000 A 
ATOM      4  C   UNL     1       3.274   5.429  17.919  0.00  0.00    +0.000 A 
ATOM      5  C   UNL     1       3.418   4.281  17.128  0.00  0.00    +0.000 A 
ATOM      6  C   UNL     1       4.572   4.088  16.367  0.00  0.00    +0.000 A 
ENDROOT
BRANCH   1   7
ATOM      7  C   UNL     1       6.906   4.783  15.680  0.00  0.00    +0.000 C 
BRANCH   7   8
ATOM      8  C   UNL     1       6.661   3.884  14.467  0.00  0.00    +0.000 C 
BRANCH   8   9
ATOM      9  C   UNL     1       6.835   4.625  13.149  0.00  0.00    +0.000 C 
BRANCH   9  10
ATOM     10  C   UNL     1       6.788   3.633  11.988  0.00  0.00    +0.000 C 
BRANCH  10  11
ATOM     11  C   UNL     1       5.488   2.837  11.995  0.00  0.00    +0.000 C 
BRANCH  11  12
ATOM     12  C   UNL     1       4.301   3.734  11.655  0.00  0.00    +0.000 C 
BRANCH  12  14
ATOM     13  C   UNL     1       2.936   4.116   9.578  0.00  0.00    +0.000 C 
ATOM     14  C   UNL     1       3.421   3.090  10.587  0.00  0.00    +0.000 C 
ENDBRANCH  12  14
ENDBRANCH  11  12
ENDBRANCH  10  11
ENDBRANCH   9  10
ENDBRANCH   8   9
ENDBRANCH   7   8
ENDBRANCH   1   7
BRANCH   4  15
ATOM     15  C   UNL     1       2.051   5.629  18.777  0.00  0.00    +0.000 C 
BRANCH  15  16
ATOM     16  C   UNL     1       2.216   5.107  20.209  0.00  0.00    +0.000 C 
BRANCH  16  17
ATOM     17  CA  UNL     1       1.996   3.590  20.363  0.00  0.00    +0.000 C 
BRANCH  17  18
ATOM     18  N   UNL     1       0.559   3.330  20.154  0.00  0.00    +0.000 NA
ATOM     19  H1  UNL     1       0.039   4.125  20.534  0.00  0.00    +0.000 HD
ATOM     20  H2  UNL     1       0.280   2.546  20.745  0.00  0.00    +0.000 HD
ENDBRANCH  17  18
BRANCH  17  21
ATOM     21  C   UNL     1       2.436   3.039  21.737  0.00  0.00    +0.000 C 
BRANCH  21  22
ATOM     22  O   UNL     1       1.391   2.293  22.358  0.00  0.00    +0.000 OA
ATOM     23  H   UNL     1       0.840   2.916  22.859  0.00  0.00    +0.000 HD
ENDBRANCH  21  22
ENDBRANCH  17  21
ENDBRANCH  16  17
ENDBRANCH  15  16
ENDBRANCH   4  15
TORSDOF 13
ENDMDL
MODEL 3
REMARK VINA RESULT:      -5.9      2.267      2.935
REMARK  Name = 
REMARK  14 active torsions:
REMARK  status: ('A' for Active; 'I' for Inactive)
REMARK    1  A    between atoms: C_1  and  C_2
REMARK    2  A    between atoms: C_2  and  C_3
REMARK    3  A    between atoms: C_3  and  C_4
REMARK    4  A    between atoms: C_4  and  C_5
REMARK    5  A    between atoms: C_5  and  C_6
REMARK    6  A    between atoms: C_6  and  C_7
REMARK    7  A    between atoms: C_7  and  C_8
REMARK    8  A    between atoms: C_8  and  C_9
REMARK    9  A    between atoms: C_12  and  C_13
REMARK   10  A    between atoms: C_13  and  C_14
REMARK   11  A    between atoms: C_14  and  CA_15
REMARK   12  A    between atoms: CA_15  and  N_16
REMARK   13  A    between atoms: CA_15  and  C_17
REMARK   14  A    between atoms: C_17  and  O_18
REMARK                            x       y       z     vdW  Elec       q    Type
REMARK                         _______ _______ _______ _____ _____    ______ ____
ROOT
ATOM      1  C   UNL     1       4.154   3.023  19.258  0.00  0.00    +0.000 A 
ATOM      2  C   UNL     1       5.144   4.010  19.300  0.00  0.00    +0.000 A 
ATOM      3  C   UNL     1       5.422   4.780  18.175  0.00  0.00    +0.000 A 
ATOM      4  C   UNL     1       4.737   4.556  16.975  0.00  0.00    +0.000 A 
ATOM      5  C   UNL     1       3.773   3.539  16.920  0.00  0.00    +0.000 A 
ATOM      6  C   UNL     1       3.484   2.778  18.054  0.00  0.00    +0.000 A 
ENDROOT
BRANCH   1   7
ATOM      7  C   UNL     1       3.758   2.305  20.524  0.00  0.00    +0.000 C 
BRANCH   7   8
ATOM      8  C   UNL     1       2.233   2.234  20.614  0.00  0.00    +0.000 C 
BRANCH   8   9
ATOM      9  C   UNL     1       1.642   3.384  21.417  0.00  0.00    +0.000 C 
BRANCH   9  10
ATOM     10  C   UNL     1       1.009   4.402  20.471  0.00  0.00    +0.000 C 
BRANCH  10  11
ATOM     11  C   UNL     1       1.803   5.703  20.448  0.00  0.00    +0.000 C 
BRANCH  11  12
ATOM     12  C   UNL     1       2.097   6.135  19.014  0.00  0.00    +0.000 C 
BRANCH  12  14
ATOM     13  C   UNL     1       3.080   8.002  17.646  0.00  0.00    +0.000 C 
ATOM     14  C   UNL     1       2.385   7.632  18.945  0.00  0.00    +0.000 C 
ENDBRANCH  12  14
ENDBRANCH  11  12
ENDBRANCH  10  11
ENDBRANCH   9  10
ENDBRANCH   8   9
ENDBRANCH   7   8
ENDBRANCH   1   7
BRANCH   4  15
ATOM     15  C   UNL     1       5.029   5.411  15.769  0.00  0.00    +0.000 C 
BRANCH  15  16
ATOM     16  C   UNL     1       5.634   4.629  14.597  0.00  0.00    +0.000 C 
BRANCH  16  17
ATOM     17  CA  UNL     1       7.161   4.778  14.453  0.00  0.00    +0.000 C 
BRANCH  17  18
ATOM     18  N   UNL     1       7.599   5.790  15.433  0.00  0.00    +0.000 NA
ATOM     19  H1  UNL     1       7.399   5.427  16.369  0.00  0.00    +0.000 HD
ATOM     20  H2  UNL     1       6.993   6.608  15.350  0.00  0.00    +0.000 HD
ENDBRANCH  17  18
BRANCH  17  21
ATOM     21  C   UNL     1       7.610   5.190  13.035  0.00  0.00    +0.000 C 
BRANCH  21  22
ATOM     22  O   UNL     1       8.781   6.003  13.074  0.00  0.00    +0.000 OA
ATOM     23  H   UNL     1       8.868   6.438  12.210  0.00  0.00    +0.000 HD
ENDBRANCH  21  22
ENDBRANCH  17  21
ENDBRANCH  16  17
ENDBRANCH  15  16
ENDBRANCH   4  15
TORSDOF 13
ENDMDL
MODEL 4
REMARK VINA RESULT:      -5.8      3.701      5.920
REMARK  Name = 
REMARK  14 active torsions:
REMARK  status: ('A' for Active; 'I' for Inactive)
REMARK    1  A    between atoms: C_1  and  C_2
REMARK    2  A    between atoms: C_2  and  C_3
REMARK    3  A    between atoms: C_3  and  C_4
REMARK    4  A    between atoms: C_4  and  C_5
REMARK    5  A    between atoms: C_5  and  C_6
REMARK    6  A    between atoms: C_6  and  C_7
REMARK    7  A    between atoms: C_7  and  C_8
REMARK    8  A    between atoms: C_8  and  C_9
REMARK    9  A    between atoms: C_12  and  C_13
REMARK   10  A    between atoms: C_13  and  C_14
REMARK   11  A    between atoms: C_14  and  CA_15
REMARK   12  A    between atoms: CA_15  and  N_16
REMARK   13  A    between atoms: CA_15  and  C_17
REMARK   14  A    between atoms: C_17  and  O_18
REMARK                            x       y       z     vdW  Elec       q    Type
REMARK                         _______ _______ _______ _____ _____    ______ ____
ROOT
ATOM      1  C   UNL     1       4.143   5.697  18.787  0.00  0.00    +0.000 A 
ATOM      2  C   UNL     1       4.322   6.437  17.613  0.00  0.00    +0.000 A 
ATOM      3  C   UNL     1       3.525   7.547  17.351  0.00  0.00    +0.000 A 
ATOM      4  C   UNL     1       2.512   7.919  18.241  0.00  0.00    +0.000 A 
ATOM      5  C   UNL     1       2.304   7.154  19.397  0.00  0.00    +0.000 A 
ATOM      6  C   UNL     1       3.114   6.051  19.667  0.00  0.00    +0.000 A 
ENDROOT
BRANCH   1   7
ATOM      7  C   UNL     1       5.112   4.593  19.131  0.00  0.00    +0.000 C 
BRANCH   7   8
ATOM      8  C   UNL     1       4.397   3.243  19.049  0.00  0.00    +0.000 C 
BRANCH   8   9
ATOM      9  C   UNL     1       3.905   2.930  17.643  0.00  0.00    +0.000 C 
BRANCH   9  10
ATOM     10  C   UNL     1       2.535   2.258  17.712  0.00  0.00    +0.000 C 
BRANCH  10  11
ATOM     11  C   UNL     1       1.464   3.237  18.179  0.00  0.00    +0.000 C 
BRANCH  11  12
ATOM     12  C   UNL     1       0.723   2.692  19.397  0.00  0.00    +0.000 C 
BRANCH  12  14
ATOM     13  C   UNL     1       1.835   2.681  21.652  0.00  0.00    +0.000 C 
ATOM     14  C   UNL     1       1.054   3.506  20.645  0.00  0.00    +0.000 C 
ENDBRANCH  12  14
ENDBRANCH  11  12
ENDBRANCH  10  11
ENDBRANCH   9  10
ENDBRANCH   8   9
ENDBRANCH   7   8
ENDBRANCH   1   7
BRANCH   4  15
ATOM     15  C   UNL     1       1.670   9.137  17.958  0.00  0.00    +0.000 C 
BRANCH  15  16
ATOM     16  C   UNL     1       0.832   9.595  19.158  0.00  0.00    +0.000 C 
BRANCH  16  17
ATOM     17  CA  UNL     1       0.546  11.108  19.194  0.00  0.00    +0.000 C 
BRANCH  17  18
ATOM     18  N   UNL     1       1.523  11.762  18.304  0.00  0.00    +0.000 NA
ATOM     19  H1  UNL     1       2.328  12.041  18.873  0.00  0.00    +0.000 HD
ATOM     20  H2  UNL     1       1.130  12.648  17.982  0.00  0.00    +0.000 HD
ENDBRANCH  17  18
BRANCH  17  21
ATOM     21  C   UNL     1       0.634  11.718  20.610  0.00  0.00    +0.000 C 
BRANCH  21  22
ATOM     22  O   UNL     1       1.290  10.835  21.519  0.00  0.00    +0.000 OA
ATOM     23  H   UNL     1       2.157  10.615  21.141  0.00  0.00    +0.000 HD
ENDBRANCH  21  22
ENDBRANCH  17  21
ENDBRANCH  16  17
ENDBRANCH  15  16
ENDBRANCH   4  15
TORSDOF 13
ENDMDL
MODEL 5
REMARK VINA RESULT:      -5.7      4.365      6.511
REMARK  Name = 
REMARK  14 active torsions:
REMARK  status: ('A' for Active; 'I' for Inactive)
REMARK    1  A    between atoms: C_1  and  C_2
REMARK    2  A    between atoms: C_2  and  C_3
REMARK    3  A    between atoms: C_3  and  C_4
REMARK    4  A    between atoms: C_4  and  C_5
REMARK    5  A    between atoms: C_5  and  C_6
REMARK    6  A    between atoms: C_6  and  C_7
REMARK    7  A    between atoms: C_7  and  C_8
REMARK    8  A    between atoms: C_8  and  C_9
REMARK    9  A    between atoms: C_12  and  C_13
REMARK   10  A    between atoms: C_13  and  C_14
REMARK   11  A    between atoms: C_14  and  CA_15
REMARK   12  A    between atoms: CA_15  and  N_16
REMARK   13  A    between atoms: CA_15  and  C_17
REMARK   14  A    between atoms: C_17  and  O_18
REMARK                            x       y       z     vdW  Elec       q    Type
REMARK                         _______ _______ _______ _____ _____    ______ ____
ROOT
ATOM      1  C   UNL     1       3.953   5.904  18.918  0.00  0.00    +0.000 A 
ATOM      2  C   UNL     1       2.920   6.310  19.769  0.00  0.00    +0.000 A 
ATOM      3  C   UNL     1       2.113   7.393  19.434  0.00  0.00    +0.000 A 
ATOM      4  C   UNL     1       2.347   8.113  18.256  0.00  0.00    +0.000 A 
ATOM      5  C   UNL     1       3.408   7.733  17.424  0.00  0.00    +0.000 A 
ATOM      6  C   UNL     1       4.206   6.636  17.753  0.00  0.00    +0.000 A 
ENDROOT
BRANCH   1   7
ATOM      7  C   UNL     1       4.717   4.637  19.219  0.00  0.00    +0.000 C 
BRANCH   7   8
ATOM      8  C   UNL     1       4.784   3.773  17.958  0.00  0.00    +0.000 C 
BRANCH   8   9
ATOM      9  C   UNL     1       3.654   2.756  17.888  0.00  0.00    +0.000 C 
BRANCH   9  10
ATOM     10  C   UNL     1       2.438   3.381  17.207  0.00  0.00    +0.000 C 
BRANCH  10  11
ATOM     11  C   UNL     1       1.230   3.391  18.135  0.00  0.00    +0.000 C 
BRANCH  11  12
ATOM     12  C   UNL     1       1.474   2.505  19.354  0.00  0.00    +0.000 C 
BRANCH  12  14
ATOM     13  C   UNL     1       2.181   3.201  21.665  0.00  0.00    +0.000 C 
ATOM     14  C   UNL     1       1.062   3.220  20.638  0.00  0.00    +0.000 C 
ENDBRANCH  12  14
ENDBRANCH  11  12
ENDBRANCH  10  11
ENDBRANCH   9  10
ENDBRANCH   8   9
ENDBRANCH   7   8
ENDBRANCH   1   7
BRANCH   4  15
ATOM     15  C   UNL     1       1.453   9.270  17.892  0.00  0.00    +0.000 C 
BRANCH  15  16
ATOM     16  C   UNL     1       1.030  10.120  19.096  0.00  0.00    +0.000 C 
BRANCH  16  17
ATOM     17  CA  UNL     1       0.449  11.499  18.729  0.00  0.00    +0.000 C 
BRANCH  17  18
ATOM     18  N   UNL     1       0.630  12.378  19.900  0.00  0.00    +0.000 NA
ATOM     19  H1  UNL     1       1.584  12.247  20.245  0.00  0.00    +0.000 HD
ATOM     20  H2  UNL     1       0.041  12.035  20.660  0.00  0.00    +0.000 HD
ENDBRANCH  17  18
BRANCH  17  21
ATOM     21  C   UNL     1      -1.042  11.453  18.331  0.00  0.00    +0.000 C 
BRANCH  21  22
ATOM     22  O   UNL     1      -1.384  12.535  17.466  0.00  0.00    +0.000 OA
ATOM     23  H   UNL     1      -1.088  13.357  17.891  0.00  0.00    +0.000 HD
ENDBRANCH  21  22
ENDBRANCH  17  21
ENDBRANCH  16  17
ENDBRANCH  15  16
ENDBRANCH   4  15
TORSDOF 13
ENDMDL
MODEL 6
REMARK VINA RESULT:      -5.7      2.699      3.268
REMARK  Name = 
REMARK  14 active torsions:
REMARK  status: ('A' for Active; 'I' for Inactive)
REMARK    1  A    between atoms: C_1  and  C_2
REMARK    2  A    between atoms: C_2  and  C_3
REMARK    3  A    between atoms: C_3  and  C_4
REMARK    4  A    between atoms: C_4  and  C_5
REMARK    5  A    between atoms: C_5  and  C_6
REMARK    6  A    between atoms: C_6  and  C_7
REMARK    7  A    between atoms: C_7  and  C_8
REMARK    8  A    between atoms: C_8  and  C_9
REMARK    9  A    between atoms: C_12  and  C_13
REMARK   10  A    between atoms: C_13  and  C_14
REMARK   11  A    between atoms: C_14  and  CA_15
REMARK   12  A    between atoms: CA_15  and  N_16
REMARK   13  A    between atoms: CA_15  and  C_17
REMARK   14  A    between atoms: C_17  and  O_18
REMARK                            x       y       z     vdW  Elec       q    Type
REMARK                         _______ _______ _______ _____ _____    ______ ____
ROOT
ATOM      1  C   UNL     1       4.292   3.125  19.056  0.00  0.00    +0.000 A 
ATOM      2  C   UNL     1       3.842   2.982  17.739  0.00  0.00    +0.000 A 
ATOM      3  C   UNL     1       4.362   3.782  16.726  0.00  0.00    +0.000 A 
ATOM      4  C   UNL     1       5.316   4.763  17.016  0.00  0.00    +0.000 A 
ATOM      5  C   UNL     1       5.737   4.935  18.341  0.00  0.00    +0.000 A 
ATOM      6  C   UNL     1       5.227   4.122  19.354  0.00  0.00    +0.000 A 
ENDROOT
BRANCH   1   7
ATOM      7  C   UNL     1       3.835   2.150  20.113  0.00  0.00    +0.000 C 
BRANCH   7   8
ATOM      8  C   UNL     1       2.803   2.827  21.018  0.00  0.00    +0.000 C 
BRANCH   8   9
ATOM      9  C   UNL     1       1.431   2.925  20.365  0.00  0.00    +0.000 C 
BRANCH   9  10
ATOM     10  C   UNL     1       0.925   4.364  20.442  0.00  0.00    +0.000 C 
BRANCH  10  11
ATOM     11  C   UNL     1       2.044   5.322  20.831  0.00  0.00    +0.000 C 
BRANCH  11  12
ATOM     12  C   UNL     1       1.983   6.598  19.996  0.00  0.00    +0.000 C 
BRANCH  12  14
ATOM     13  C   UNL     1       3.067   7.503  17.915  0.00  0.00    +0.000 C 
ATOM     14  C   UNL     1       2.357   6.316  18.543  0.00  0.00    +0.000 C 
ENDBRANCH  12  14
ENDBRANCH  11  12
ENDBRANCH  10  11
ENDBRANCH   9  10
ENDBRANCH   8   9
ENDBRANCH   7   8
ENDBRANCH   1   7
BRANCH   4  15
ATOM     15  C   UNL     1       5.889   5.608  15.906  0.00  0.00    +0.000 C 
BRANCH  15  16
ATOM     16  C   UNL     1       5.631   5.037  14.507  0.00  0.00    +0.000 C 
BRANCH  16  17
ATOM     17  CA  UNL     1       6.865   4.393  13.845  0.00  0.00    +0.000 C 
BRANCH  17  18
ATOM     18  N   UNL     1       7.712   5.488  13.336  0.00  0.00    +0.000 NA
ATOM     19  H1  UNL     1       7.214   6.368  13.493  0.00  0.00    +0.000 HD
ATOM     20  H2  UNL     1       7.767   5.412  12.319  0.00  0.00    +0.000 HD
ENDBRANCH  17  18
BRANCH  17  21
ATOM     21  C   UNL     1       6.512   3.423  12.697  0.00  0.00    +0.000 C 
BRANCH  21  22
ATOM     22  O   UNL     1       5.257   3.750  12.104  0.00  0.00    +0.000 OA
ATOM     23  H   UNL     1       4.564   3.296  12.611  0.00  0.00    +0.000 HD
ENDBRANCH  21  22
ENDBRANCH  17  21
ENDBRANCH  16  17
ENDBRANCH  15  16
ENDBRANCH   4  15
TORSDOF 13
ENDMDL
MODEL 7
REMARK VINA RESULT:      -5.6      4.505      6.778
REMARK  Name = 
REMARK  14 active torsions:
REMARK  status: ('A' for Active; 'I' for Inactive)
REMARK    1  A    between atoms: C_1  and  C_2
REMARK    2  A    between atoms: C_2  and  C_3
REMARK    3  A    between atoms: C_3  and  C_4
REMARK    4  A    between atoms: C_4  and  C_5
REMARK    5  A    between atoms: C_5  and  C_6
REMARK    6  A    between atoms: C_6  and  C_7
REMARK    7  A    between atoms: C_7  and  C_8
REMARK    8  A    between atoms: C_8  and  C_9
REMARK    9  A    between atoms: C_12  and  C_13
REMARK   10  A    between atoms: C_13  and  C_14
REMARK   11  A    between atoms: C_14  and  CA_15
REMARK   12  A    between atoms: CA_15  and  N_16
REMARK   13  A    between atoms: CA_15  and  C_17
REMARK   14  A    between atoms: C_17  and  O_18
REMARK                            x       y       z     vdW  Elec       q    Type
REMARK                         _______ _______ _______ _____ _____    ______ ____
ROOT
ATOM      1  C   UNL     1       3.645   6.174  18.122  0.00  0.00    +0.000 A 
ATOM      2  C   UNL     1       3.038   6.047  19.376  0.00  0.00    +0.000 A 
ATOM      3  C   UNL     1       2.199   7.046  19.859  0.00  0.00    +0.000 A 
ATOM      4  C   UNL     1       1.976   8.208  19.111  0.00  0.00    +0.000 A 
ATOM      5  C   UNL     1       2.616   8.355  17.873  0.00  0.00    +0.000 A 
ATOM      6  C   UNL     1       3.444   7.345  17.382  0.00  0.00    +0.000 A 
ENDROOT
BRANCH   1   7
ATOM      7  C   UNL     1       4.425   5.018  17.546  0.00  0.00    +0.000 C 
BRANCH   7   8
ATOM      8  C   UNL     1       4.355   3.829  18.507  0.00  0.00    +0.000 C 
BRANCH   8   9
ATOM      9  C   UNL     1       3.720   2.602  17.868  0.00  0.00    +0.000 C 
BRANCH   9  10
ATOM     10  C   UNL     1       2.213   2.809  17.737  0.00  0.00    +0.000 C 
BRANCH  10  11
ATOM     11  C   UNL     1       1.468   2.212  18.925  0.00  0.00    +0.000 C 
BRANCH  11  12
ATOM     12  C   UNL     1       0.854   3.310  19.789  0.00  0.00    +0.000 C 
BRANCH  12  14
ATOM     13  C   UNL     1       2.628   2.685  21.456  0.00  0.00    +0.000 C 
ATOM     14  C   UNL     1       1.177   3.088  21.264  0.00  0.00    +0.000 C 
ENDBRANCH  12  14
ENDBRANCH  11  12
ENDBRANCH  10  11
ENDBRANCH   9  10
ENDBRANCH   8   9
ENDBRANCH   7   8
ENDBRANCH   1   7
BRANCH   4  15
ATOM     15  C   UNL     1       1.047   9.273  19.634  0.00  0.00    +0.000 C 
BRANCH  15  16
ATOM     16  C   UNL     1       0.433  10.144  18.531  0.00  0.00    +0.000 C 
BRANCH  16  17
ATOM     17  CA  UNL     1      -0.929  10.766  18.896  0.00  0.00    +0.000 C 
BRANCH  17  18
ATOM     18  N   UNL     1      -1.949  10.118  18.051  0.00  0.00    +0.000 NA
ATOM     19  H1  UNL     1      -1.948   9.119  18.270  0.00  0.00    +0.000 HD
ATOM     20  H2  UNL     1      -1.640  10.158  17.078  0.00  0.00    +0.000 HD
ENDBRANCH  17  18
BRANCH  17  21
ATOM     21  C   UNL     1      -0.979  12.297  18.702  0.00  0.00    +0.000 C 
BRANCH  21  22
ATOM     22  O   UNL     1      -1.378  12.641  17.376  0.00  0.00    +0.000 OA
ATOM     23  H   UNL     1      -0.579  12.665  16.824  0.00  0.00    +0.000 HD
ENDBRANCH  21  22
ENDBRANCH  17  21
ENDBRANCH  16  17
ENDBRANCH  15  16
ENDBRANCH   4  15
TORSDOF 13
ENDMDL
MODEL 8
REMARK VINA RESULT:      -5.6      5.083      7.427
REMARK  Name = 
REMARK  14 active torsions:
REMARK  status: ('A' for Active; 'I' for Inactive)
REMARK    1  A    between atoms: C_1  and  C_2
REMARK    2  A    between atoms: C_2  and  C_3
REMARK    3  A    between atoms: C_3  and  C_4
REMARK    4  A    between atoms: C_4  and  C_5
REMARK    5  A    between atoms: C_5  and  C_6
REMARK    6  A    between atoms: C_6  and  C_7
REMARK    7  A    between atoms: C_7  and  C_8
REMARK    8  A    between atoms: C_8  and  C_9
REMARK    9  A    between atoms: C_12  and  C_13
REMARK   10  A    between atoms: C_13  and  C_14
REMARK   11  A    between atoms: C_14  and  CA_15
REMARK   12  A    between atoms: CA_15  and  N_16
REMARK   13  A    between atoms: CA_15  and  C_17
REMARK   14  A    between atoms: C_17  and  O_18
REMARK                            x       y       z     vdW  Elec       q    Type
REMARK                         _______ _______ _______ _____ _____    ______ ____
ROOT
ATOM      1  C   UNL     1       2.827   6.947  18.982  0.00  0.00    +0.000 A 
ATOM      2  C   UNL     1       2.674   7.738  17.838  0.00  0.00    +0.000 A 
ATOM      3  C   UNL     1       1.888   8.885  17.872  0.00  0.00    +0.000 A 
ATOM      4  C   UNL     1       1.211   9.246  19.043  0.00  0.00    +0.000 A 
ATOM      5  C   UNL     1       1.330   8.432  20.178  0.00  0.00    +0.000 A 
ATOM      6  C   UNL     1       2.132   7.291  20.147  0.00  0.00    +0.000 A 
ENDROOT
BRANCH   1   7
ATOM      7  C   UNL     1       3.803   5.797  18.973  0.00  0.00    +0.000 C 
BRANCH   7   8
ATOM      8  C   UNL     1       4.048   5.350  17.530  0.00  0.00    +0.000 C 
BRANCH   8   9
ATOM      9  C   UNL     1       3.761   3.869  17.323  0.00  0.00    +0.000 C 
BRANCH   9  10
ATOM     10  C   UNL     1       2.259   3.615  17.431  0.00  0.00    +0.000 C 
BRANCH  10  11
ATOM     11  C   UNL     1       1.969   2.350  18.231  0.00  0.00    +0.000 C 
BRANCH  11  12
ATOM     12  C   UNL     1       0.751   2.543  19.130  0.00  0.00    +0.000 C 
BRANCH  12  14
ATOM     13  C   UNL     1       1.694   3.215  21.362  0.00  0.00    +0.000 C 
ATOM     14  C   UNL     1       0.975   3.690  20.111  0.00  0.00    +0.000 C 
ENDBRANCH  12  14
ENDBRANCH  11  12
ENDBRANCH  10  11
ENDBRANCH   9  10
ENDBRANCH   8   9
ENDBRANCH   7   8
ENDBRANCH   1   7
BRANCH   4  15
ATOM     15  C   UNL     1       0.380  10.503  19.075  0.00  0.00    +0.000 C 
BRANCH  15  16
ATOM     16  C   UNL     1      -0.873  10.431  18.194  0.00  0.00    +0.000 C 
BRANCH  16  17
ATOM     17  CA  UNL     1      -1.771  11.681  18.262  0.00  0.00    +0.000 C 
BRANCH  17  18
ATOM     18  N   UNL     1      -1.143  12.721  17.425  0.00  0.00    +0.000 NA
ATOM     19  H1  UNL     1      -1.768  12.907  16.636  0.00  0.00    +0.000 HD
ATOM     20  H2  UNL     1      -0.307  12.328  16.989  0.00  0.00    +0.000 HD
ENDBRANCH  17  18
BRANCH  17  21
ATOM     21  C   UNL     1      -1.978  12.215  19.696  0.00  0.00    +0.000 C 
BRANCH  21  22
ATOM     22  O   UNL     1      -3.360  12.428  19.978  0.00  0.00    +0.000 OA
ATOM     23  H   UNL     1      -3.753  11.568  20.198  0.00  0.00    +0.000 HD
ENDBRANCH  21  22
ENDBRANCH  17  21
ENDBRANCH  16  17
ENDBRANCH  15  16
ENDBRANCH   4  15
TORSDOF 13
ENDMDL
MODEL 9
REMARK VINA RESULT:      -5.6      4.033      6.910
REMARK  Name = 
REMARK  14 active torsions:
REMARK  status: ('A' for Active; 'I' for Inactive)
REMARK    1  A    between atoms: C_1  and  C_2
REMARK    2  A    between atoms: C_2  and  C_3
REMARK    3  A    between atoms: C_3  and  C_4
REMARK    4  A    between atoms: C_4  and  C_5
REMARK    5  A    between atoms: C_5  and  C_6
REMARK    6  A    between atoms: C_6  and  C_7
REMARK    7  A    between atoms: C_7  and  C_8
REMARK    8  A    between atoms: C_8  and  C_9
REMARK    9  A    between atoms: C_12  and  C_13
REMARK   10  A    between atoms: C_13  and  C_14
REMARK   11  A    between atoms: C_14  and  CA_15
REMARK   12  A    between atoms: CA_15  and  N_16
REMARK   13  A    between atoms: CA_15  and  C_17
REMARK   14  A    between atoms: C_17  and  O_18
REMARK                            x       y       z     vdW  Elec       q    Type
REMARK                         _______ _______ _______ _____ _____    ______ ____
ROOT
ATOM      1  C   UNL     1       5.898   5.752  16.936  0.00  0.00    +0.000 A 
ATOM      2  C   UNL     1       4.909   6.403  17.681  0.00  0.00    +0.000 A 
ATOM      3  C   UNL     1       3.773   5.717  18.097  0.00  0.00    +0.000 A 
ATOM      4  C   UNL     1       3.588   4.374  17.748  0.00  0.00    +0.000 A 
ATOM      5  C   UNL     1       4.558   3.732  16.967  0.00  0.00    +0.000 A 
ATOM      6  C   UNL     1       5.705   4.417  16.564  0.00  0.00    +0.000 A 
ENDROOT
BRANCH   1   7
ATOM      7  C   UNL     1       7.192   6.464  16.626  0.00  0.00    +0.000 C 
BRANCH   7   8
ATOM      8  C   UNL     1       7.661   7.230  17.864  0.00  0.00    +0.000 C 
BRANCH   8   9
ATOM      9  C   UNL     1       7.871   8.712  17.587  0.00  0.00    +0.000 C 
BRANCH   9  10
ATOM     10  C   UNL     1       8.685   9.338  18.718  0.00  0.00    +0.000 C 
BRANCH  10  11
ATOM     11  C   UNL     1       9.339  10.640  18.271  0.00  0.00    +0.000 C 
BRANCH  11  12
ATOM     12  C   UNL     1      10.365  11.113  19.298  0.00  0.00    +0.000 C 
BRANCH  12  14
ATOM     13  C   UNL     1      10.923  12.641  17.381  0.00  0.00    +0.000 C 
ATOM     14  C   UNL     1      11.445  11.964  18.636  0.00  0.00    +0.000 C 
ENDBRANCH  12  14
ENDBRANCH  11  12
ENDBRANCH  10  11
ENDBRANCH   9  10
ENDBRANCH   8   9
ENDBRANCH   7   8
ENDBRANCH   1   7
BRANCH   4  15
ATOM     15  C   UNL     1       2.364   3.634  18.224  0.00  0.00    +0.000 C 
BRANCH  15  16
ATOM     16  C   UNL     1       1.420   4.495  19.073  0.00  0.00    +0.000 C 
BRANCH  16  17
ATOM     17  CA  UNL     1       1.398   4.130  20.570  0.00  0.00    +0.000 C 
BRANCH  17  18
ATOM     18  N   UNL     1       2.327   5.044  21.259  0.00  0.00    +0.000 NA
ATOM     19  H1  UNL     1       3.276   4.819  20.948  0.00  0.00    +0.000 HD
ATOM     20  H2  UNL     1       2.333   4.815  22.254  0.00  0.00    +0.000 HD
ENDBRANCH  17  18
BRANCH  17  21
ATOM     21  C   UNL     1       1.795   2.665  20.853  0.00  0.00    +0.000 C 
BRANCH  21  22
ATOM     22  O   UNL     1       2.607   2.561  22.021  0.00  0.00    +0.000 OA
ATOM     23  H   UNL     1       2.055   2.794  22.786  0.00  0.00    +0.000 HD
ENDBRANCH  21  22
ENDBRANCH  17  21
ENDBRANCH  16  17
ENDBRANCH  15  16
ENDBRANCH   4  15
TORSDOF 13
ENDMDL
