MODEL 1
REMARK VINA RESULT:      -8.2      0.000      0.000
REMARK  Name = 
REMARK  10 active torsions:
REMARK  status: ('A' for Active; 'I' for Inactive)
REMARK    1  A    between atoms: C_1  and  C_2
REMARK    2  A    between atoms: C_4  and  C_5
REMARK    3  A    between atoms: C_5  and  N_6
REMARK    4  A    between atoms: N_9  and  C_10
REMARK    5  A    between atoms: C_10  and  C_11
REMARK    6  A    between atoms: C_11  and  O_12
REMARK    7  A    between atoms: O_12  and  C_13
REMARK    8  A    between atoms: C_13  and  C_14
REMARK    9  A    between atoms: C_13  and  C_20
REMARK   10  A    between atoms: C_30  and  O_31
REMARK                            x       y       z     vdW  Elec       q    Type
REMARK                         _______ _______ _______ _____ _____    ______ ____
ROOT
ATOM      1  N   UNL     1      -1.044  10.591  21.464  0.00  0.00    +0.000 NA
ATOM      2  C   UNL     1      -0.851  11.431  20.262  0.00  0.00    +0.000 C 
ATOM      3  C   UNL     1       0.592  11.551  19.690  0.00  0.00    +0.000 C 
ATOM      4  N   UNL     1       1.410  10.318  19.665  0.00  0.00    +0.000 NA
ATOM      5  C   UNL     1       1.265   9.646  20.973  0.00  0.00    +0.000 C 
ATOM      6  C   UNL     1      -0.204   9.379  21.379  0.00  0.00    +0.000 C 
ENDROOT
BRANCH   1   7
ATOM      7  C   UNL     1      -0.755  11.314  22.710  0.00  0.00    +0.000 C 
BRANCH   7  11
ATOM      8  C   UNL     1      -1.434  15.916  24.476  0.00  0.00    +0.000 C 
ATOM      9  C   UNL     1      -2.053  14.624  24.031  0.00  0.00    +0.000 A 
ATOM     10  C   UNL     1      -1.262  13.650  23.411  0.00  0.00    +0.000 A 
ATOM     11  C   UNL     1      -1.765  12.368  23.134  0.00  0.00    +0.000 A 
ATOM     12  C   UNL     1      -3.106  12.091  23.429  0.00  0.00    +0.000 A 
ATOM     13  C   UNL     1      -3.928  13.084  23.972  0.00  0.00    +0.000 A 
ATOM     14  C   UNL     1      -3.397  14.336  24.278  0.00  0.00    +0.000 A 
BRANCH  14  15
ATOM     15  O   UNL     1      -4.174  15.296  24.861  0.00  0.00    +0.000 OA
ATOM     16  H   UNL     1      -4.059  15.242  25.818  0.00  0.00    +0.000 HD
ENDBRANCH  14  15
ENDBRANCH   7  11
ENDBRANCH   1   7
BRANCH   4  17
ATOM     17  C   UNL     1       1.044   9.385  18.585  0.00  0.00    +0.000 C 
BRANCH  17  18
ATOM     18  C   UNL     1       2.189   8.563  17.962  0.00  0.00    +0.000 C 
BRANCH  18  19
ATOM     19  O   UNL     1       2.616   7.463  18.781  0.00  0.00    +0.000 OA
BRANCH  19  20
ATOM     20  C   UNL     1       2.995   6.264  18.081  0.00  0.00    +0.000 C 
BRANCH  20  21
ATOM     21  C   UNL     1       4.504   6.077  18.014  0.00  0.00    +0.000 A 
ATOM     22  C   UNL     1       5.232   5.569  19.101  0.00  0.00    +0.000 A 
ATOM     23  C   UNL     1       6.625   5.481  19.045  0.00  0.00    +0.000 A 
ATOM     24  C   UNL     1       7.310   5.905  17.908  0.00  0.00    +0.000 A 
ATOM     25  C   UNL     1       6.604   6.405  16.819  0.00  0.00    +0.000 A 
ATOM     26  C   UNL     1       5.210   6.480  16.868  0.00  0.00    +0.000 A 
ENDBRANCH  20  21
BRANCH  20  27
ATOM     27  C   UNL     1       2.253   5.073  18.674  0.00  0.00    +0.000 A 
ATOM     28  C   UNL     1       1.984   3.952  17.868  0.00  0.00    +0.000 A 
ATOM     29  C   UNL     1       1.259   2.872  18.369  0.00  0.00    +0.000 A 
ATOM     30  C   UNL     1       0.806   2.887  19.687  0.00  0.00    +0.000 A 
ATOM     31  C   UNL     1       1.085   3.977  20.506  0.00  0.00    +0.000 A 
ATOM     32  C   UNL     1       1.804   5.066  20.005  0.00  0.00    +0.000 A 
ENDBRANCH  20  27
ENDBRANCH  19  20
ENDBRANCH  18  19
ENDBRANCH  17  18
ENDBRANCH   4  17
TORSDOF 9
ENDMDL
MODEL 2
REMARK VINA RESULT:      -8.2      1.335      1.852
REMARK  Name = 
REMARK  10 active torsions:
REMARK  status: ('A' for Active; 'I' for Inactive)
REMARK    1  A    between atoms: C_1  and  C_2
REMARK    2  A    between atoms: C_4  and  C_5
REMARK    3  A    between atoms: C_5  and  N_6
REMARK    4  A    between atoms: N_9  and  C_10
REMARK    5  A    between atoms: C_10  and  C_11
REMARK    6  A    between atoms: C_11  and  O_12
REMARK    7  A    between atoms: O_12  and  C_13
REMARK    8  A    between atoms: C_13  and  C_14
REMARK    9  A    between atoms: C_13  and  C_20
REMARK   10  A    between atoms: C_30  and  O_31
REMARK                            x       y       z     vdW  Elec       q    Type
REMARK                         _______ _______ _______ _____ _____    ______ ____
ROOT
ATOM      1  N   UNL     1      -1.517  11.220  20.207  0.00  0.00    +0.000 NA
ATOM      2  C   UNL     1      -1.230  11.687  18.834  0.00  0.00    +0.000 C 
ATOM      3  C   UNL     1       0.263  11.849  18.423  0.00  0.00    +0.000 C 
ATOM      4  N   UNL     1       1.204  10.802  18.881  0.00  0.00    +0.000 NA
ATOM      5  C   UNL     1       0.929  10.531  20.308  0.00  0.00    +0.000 C 
ATOM      6  C   UNL     1      -0.548  10.178  20.604  0.00  0.00    +0.000 C 
ENDROOT
BRANCH   1   7
ATOM      7  C   UNL     1      -1.505  12.313  21.189  0.00  0.00    +0.000 C 
BRANCH   7  11
ATOM      8  C   UNL     1      -6.048  14.263  21.762  0.00  0.00    +0.000 C 
ATOM      9  C   UNL     1      -4.941  13.432  22.343  0.00  0.00    +0.000 A 
ATOM     10  C   UNL     1      -3.856  13.060  21.542  0.00  0.00    +0.000 A 
ATOM     11  C   UNL     1      -2.726  12.430  22.088  0.00  0.00    +0.000 A 
ATOM     12  C   UNL     1      -2.723  12.116  23.454  0.00  0.00    +0.000 A 
ATOM     13  C   UNL     1      -3.837  12.408  24.247  0.00  0.00    +0.000 A 
ATOM     14  C   UNL     1      -4.931  13.072  23.691  0.00  0.00    +0.000 A 
BRANCH  14  15
ATOM     15  O   UNL     1      -6.002  13.414  24.468  0.00  0.00    +0.000 OA
ATOM     16  H   UNL     1      -6.550  12.629  24.595  0.00  0.00    +0.000 HD
ENDBRANCH  14  15
ENDBRANCH   7  11
ENDBRANCH   1   7
BRANCH   4  17
ATOM     17  C   UNL     1       1.114   9.547  18.112  0.00  0.00    +0.000 C 
BRANCH  17  18
ATOM     18  C   UNL     1       2.415   8.738  17.953  0.00  0.00    +0.000 C 
BRANCH  18  19
ATOM     19  O   UNL     1       2.456   7.552  18.761  0.00  0.00    +0.000 OA
BRANCH  19  20
ATOM     20  C   UNL     1       2.850   6.342  18.089  0.00  0.00    +0.000 C 
BRANCH  20  21
ATOM     21  C   UNL     1       4.362   6.191  17.996  0.00  0.00    +0.000 A 
ATOM     22  C   UNL     1       5.067   6.537  16.833  0.00  0.00    +0.000 A 
ATOM     23  C   UNL     1       6.443   6.316  16.744  0.00  0.00    +0.000 A 
ATOM     24  C   UNL     1       7.133   5.740  17.810  0.00  0.00    +0.000 A 
ATOM     25  C   UNL     1       6.451   5.399  18.973  0.00  0.00    +0.000 A 
ATOM     26  C   UNL     1       5.077   5.633  19.070  0.00  0.00    +0.000 A 
ENDBRANCH  20  21
BRANCH  20  27
ATOM     27  C   UNL     1       2.152   5.152  18.732  0.00  0.00    +0.000 A 
ATOM     28  C   UNL     1       1.826   4.031  17.948  0.00  0.00    +0.000 A 
ATOM     29  C   UNL     1       1.138   2.951  18.498  0.00  0.00    +0.000 A 
ATOM     30  C   UNL     1       0.778   2.966  19.845  0.00  0.00    +0.000 A 
ATOM     31  C   UNL     1       1.114   4.057  20.643  0.00  0.00    +0.000 A 
ATOM     32  C   UNL     1       1.796   5.145  20.092  0.00  0.00    +0.000 A 
ENDBRANCH  20  27
ENDBRANCH  19  20
ENDBRANCH  18  19
ENDBRANCH  17  18
ENDBRANCH   4  17
TORSDOF 9
ENDMDL
MODEL 3
REMARK VINA RESULT:      -8.2      3.184      6.273
REMARK  Name = 
REMARK  10 active torsions:
REMARK  status: ('A' for Active; 'I' for Inactive)
REMARK    1  A    between atoms: C_1  and  C_2
REMARK    2  A    between atoms: C_4  and  C_5
REMARK    3  A    between atoms: C_5  and  N_6
REMARK    4  A    between atoms: N_9  and  C_10
REMARK    5  A    between atoms: C_10  and  C_11
REMARK    6  A    between atoms: C_11  and  O_12
REMARK    7  A    between atoms: O_12  and  C_13
REMARK    8  A    between atoms: C_13  and  C_14
REMARK    9  A    between atoms: C_13  and  C_20
REMARK   10  A    between atoms: C_30  and  O_31
REMARK                            x       y       z     vdW  Elec       q    Type
REMARK                         _______ _______ _______ _____ _____    ______ ____
ROOT
ATOM      1  N   UNL     1       2.217   5.810  19.307  0.00  0.00    +0.000 NA
ATOM      2  C   UNL     1       3.674   5.690  19.083  0.00  0.00    +0.000 C 
ATOM      3  C   UNL     1       4.395   4.443  19.672  0.00  0.00    +0.000 C 
ATOM      4  N   UNL     1       3.690   3.145  19.565  0.00  0.00    +0.000 NA
ATOM      5  C   UNL     1       2.283   3.355  19.966  0.00  0.00    +0.000 C 
ATOM      6  C   UNL     1       1.572   4.486  19.186  0.00  0.00    +0.000 C 
ENDROOT
BRANCH   1   7
ATOM      7  C   UNL     1       1.893   6.406  20.611  0.00  0.00    +0.000 C 
BRANCH   7  11
ATOM      8  C   UNL     1      -0.439  10.062  23.052  0.00  0.00    +0.000 C 
ATOM      9  C   UNL     1       0.309   9.632  21.824  0.00  0.00    +0.000 A 
ATOM     10  C   UNL     1       0.928   8.377  21.790  0.00  0.00    +0.000 A 
ATOM     11  C   UNL     1       1.490   7.872  20.606  0.00  0.00    +0.000 A 
ATOM     12  C   UNL     1       1.483   8.676  19.458  0.00  0.00    +0.000 A 
ATOM     13  C   UNL     1       0.942   9.964  19.504  0.00  0.00    +0.000 A 
ATOM     14  C   UNL     1       0.351  10.429  20.679  0.00  0.00    +0.000 A 
BRANCH  14  15
ATOM     15  O   UNL     1      -0.233  11.664  20.721  0.00  0.00    +0.000 OA
ATOM     16  H   UNL     1      -0.253  11.961  21.639  0.00  0.00    +0.000 HD
ENDBRANCH  14  15
ENDBRANCH   7  11
ENDBRANCH   1   7
BRANCH   4  17
ATOM     17  C   UNL     1       3.738   2.554  18.216  0.00  0.00    +0.000 C 
BRANCH  17  18
ATOM     18  C   UNL     1       3.848   3.535  17.033  0.00  0.00    +0.000 C 
BRANCH  18  19
ATOM     19  O   UNL     1       5.126   3.503  16.378  0.00  0.00    +0.000 OA
BRANCH  19  20
ATOM     20  C   UNL     1       5.587   4.751  15.830  0.00  0.00    +0.000 C 
BRANCH  20  21
ATOM     21  C   UNL     1       6.519   5.496  16.775  0.00  0.00    +0.000 A 
ATOM     22  C   UNL     1       7.286   4.821  17.736  0.00  0.00    +0.000 A 
ATOM     23  C   UNL     1       8.075   5.532  18.644  0.00  0.00    +0.000 A 
ATOM     24  C   UNL     1       8.103   6.925  18.609  0.00  0.00    +0.000 A 
ATOM     25  C   UNL     1       7.355   7.610  17.657  0.00  0.00    +0.000 A 
ATOM     26  C   UNL     1       6.577   6.900  16.740  0.00  0.00    +0.000 A 
ENDBRANCH  20  21
BRANCH  20  27
ATOM     27  C   UNL     1       6.176   4.513  14.446  0.00  0.00    +0.000 A 
ATOM     28  C   UNL     1       7.334   5.208  14.055  0.00  0.00    +0.000 A 
ATOM     29  C   UNL     1       7.863   5.050  12.775  0.00  0.00    +0.000 A 
ATOM     30  C   UNL     1       7.252   4.184  11.870  0.00  0.00    +0.000 A 
ATOM     31  C   UNL     1       6.119   3.468  12.248  0.00  0.00    +0.000 A 
ATOM     32  C   UNL     1       5.582   3.630  13.527  0.00  0.00    +0.000 A 
ENDBRANCH  20  27
ENDBRANCH  19  20
ENDBRANCH  18  19
ENDBRANCH  17  18
ENDBRANCH   4  17
TORSDOF 9
ENDMDL
MODEL 4
REMARK VINA RESULT:      -8.1      0.945      2.070
REMARK  Name = 
REMARK  10 active torsions:
REMARK  status: ('A' for Active; 'I' for Inactive)
REMARK    1  A    between atoms: C_1  and  C_2
REMARK    2  A    between atoms: C_4  and  C_5
REMARK    3  A    between atoms: C_5  and  N_6
REMARK    4  A    between atoms: N_9  and  C_10
REMARK    5  A    between atoms: C_10  and  C_11
REMARK    6  A    between atoms: C_11  and  O_12
REMARK    7  A    between atoms: O_12  and  C_13
REMARK    8  A    between atoms: C_13  and  C_14
REMARK    9  A    between atoms: C_13  and  C_20
REMARK   10  A    between atoms: C_30  and  O_31
REMARK                            x       y       z     vdW  Elec       q    Type
REMARK                         _______ _______ _______ _____ _____    ______ ____
ROOT
ATOM      1  N   UNL     1      -0.283  11.278  21.011  0.00  0.00    +0.000 NA
ATOM      2  C   UNL     1      -0.609  10.103  20.174  0.00  0.00    +0.000 C 
ATOM      3  C   UNL     1      -0.259  10.177  18.659  0.00  0.00    +0.000 C 
ATOM      4  N   UNL     1       1.036  10.797  18.298  0.00  0.00    +0.000 NA
ATOM      5  C   UNL     1       1.180  12.044  19.078  0.00  0.00    +0.000 C 
ATOM      6  C   UNL     1       1.017  11.849  20.604  0.00  0.00    +0.000 C 
ENDROOT
BRANCH   1   7
ATOM      7  C   UNL     1      -1.323  12.314  20.959  0.00  0.00    +0.000 C 
BRANCH   7  11
ATOM      8  C   UNL     1      -4.661  12.323  24.649  0.00  0.00    +0.000 C 
ATOM      9  C   UNL     1      -3.416  12.922  24.064  0.00  0.00    +0.000 A 
ATOM     10  C   UNL     1      -2.801  12.311  22.965  0.00  0.00    +0.000 A 
ATOM     11  C   UNL     1      -1.737  12.929  22.286  0.00  0.00    +0.000 A 
ATOM     12  C   UNL     1      -1.248  14.150  22.768  0.00  0.00    +0.000 A 
ATOM     13  C   UNL     1      -1.801  14.728  23.916  0.00  0.00    +0.000 A 
ATOM     14  C   UNL     1      -2.884  14.118  24.548  0.00  0.00    +0.000 A 
BRANCH  14  15
ATOM     15  O   UNL     1      -3.471  14.701  25.636  0.00  0.00    +0.000 OA
ATOM     16  H   UNL     1      -2.907  14.547  26.405  0.00  0.00    +0.000 HD
ENDBRANCH  14  15
ENDBRANCH   7  11
ENDBRANCH   1   7
BRANCH   4  17
ATOM     17  C   UNL     1       2.199   9.925  18.539  0.00  0.00    +0.000 C 
BRANCH  17  18
ATOM     18  C   UNL     1       2.227   8.582  17.783  0.00  0.00    +0.000 C 
BRANCH  18  19
ATOM     19  O   UNL     1       2.732   7.492  18.569  0.00  0.00    +0.000 OA
BRANCH  19  20
ATOM     20  C   UNL     1       2.939   6.251  17.869  0.00  0.00    +0.000 C 
BRANCH  20  21
ATOM     21  C   UNL     1       4.414   5.946  17.646  0.00  0.00    +0.000 A 
ATOM     22  C   UNL     1       4.993   6.004  16.369  0.00  0.00    +0.000 A 
ATOM     23  C   UNL     1       6.329   5.643  16.177  0.00  0.00    +0.000 A 
ATOM     24  C   UNL     1       7.102   5.212  17.254  0.00  0.00    +0.000 A 
ATOM     25  C   UNL     1       6.545   5.157  18.528  0.00  0.00    +0.000 A 
ATOM     26  C   UNL     1       5.214   5.531  18.724  0.00  0.00    +0.000 A 
ENDBRANCH  20  21
BRANCH  20  27
ATOM     27  C   UNL     1       2.180   5.135  18.575  0.00  0.00    +0.000 A 
ATOM     28  C   UNL     1       1.838   5.279  19.931  0.00  0.00    +0.000 A 
ATOM     29  C   UNL     1       1.192   4.251  20.616  0.00  0.00    +0.000 A 
ATOM     30  C   UNL     1       0.864   3.070  19.954  0.00  0.00    +0.000 A 
ATOM     31  C   UNL     1       1.174   2.919  18.605  0.00  0.00    +0.000 A 
ATOM     32  C   UNL     1       1.828   3.945  17.917  0.00  0.00    +0.000 A 
ENDBRANCH  20  27
ENDBRANCH  19  20
ENDBRANCH  18  19
ENDBRANCH  17  18
ENDBRANCH   4  17
TORSDOF 9
ENDMDL
MODEL 5
REMARK VINA RESULT:      -8.0      0.352      1.275
REMARK  Name = 
REMARK  10 active torsions:
REMARK  status: ('A' for Active; 'I' for Inactive)
REMARK    1  A    between atoms: C_1  and  C_2
REMARK    2  A    between atoms: C_4  and  C_5
REMARK    3  A    between atoms: C_5  and  N_6
REMARK    4  A    between atoms: N_9  and  C_10
REMARK    5  A    between atoms: C_10  and  C_11
REMARK    6  A    between atoms: C_11  and  O_12
REMARK    7  A    between atoms: O_12  and  C_13
REMARK    8  A    between atoms: C_13  and  C_14
REMARK    9  A    between atoms: C_13  and  C_20
REMARK   10  A    between atoms: C_30  and  O_31
REMARK                            x       y       z     vdW  Elec       q    Type
REMARK                         _______ _______ _______ _____ _____    ______ ____
ROOT
ATOM      1  N   UNL     1      -0.935  10.702  21.274  0.00  0.00    +0.000 NA
ATOM      2  C   UNL     1      -0.970  11.451  19.999  0.00  0.00    +0.000 C 
ATOM      3  C   UNL     1       0.383  11.710  19.276  0.00  0.00    +0.000 C 
ATOM      4  N   UNL     1       1.362  10.599  19.261  0.00  0.00    +0.000 NA
ATOM      5  C   UNL     1       1.431  10.031  20.624  0.00  0.00    +0.000 C 
ATOM      6  C   UNL     1       0.056   9.609  21.195  0.00  0.00    +0.000 C 
ENDROOT
BRANCH   1   7
ATOM      7  C   UNL     1      -0.638  11.563  22.427  0.00  0.00    +0.000 C 
BRANCH   7  11
ATOM      8  C   UNL     1      -1.989  16.159  23.776  0.00  0.00    +0.000 C 
ATOM      9  C   UNL     1      -2.382  14.721  23.599  0.00  0.00    +0.000 A 
ATOM     10  C   UNL     1      -1.512  13.837  22.952  0.00  0.00    +0.000 A 
ATOM     11  C   UNL     1      -1.767  12.456  22.915  0.00  0.00    +0.000 A 
ATOM     12  C   UNL     1      -2.953  11.974  23.487  0.00  0.00    +0.000 A 
ATOM     13  C   UNL     1      -3.869  12.860  24.063  0.00  0.00    +0.000 A 
ATOM     14  C   UNL     1      -3.574  14.222  24.125  0.00  0.00    +0.000 A 
BRANCH  14  15
ATOM     15  O   UNL     1      -4.434  15.090  24.736  0.00  0.00    +0.000 OA
ATOM     16  H   UNL     1      -5.244  15.138  24.211  0.00  0.00    +0.000 HD
ENDBRANCH  14  15
ENDBRANCH   7  11
ENDBRANCH   1   7
BRANCH   4  17
ATOM     17  C   UNL     1       1.034   9.534  18.296  0.00  0.00    +0.000 C 
BRANCH  17  18
ATOM     18  C   UNL     1       2.194   8.623  17.850  0.00  0.00    +0.000 C 
BRANCH  18  19
ATOM     19  O   UNL     1       2.360   7.460  18.675  0.00  0.00    +0.000 OA
BRANCH  19  20
ATOM     20  C   UNL     1       2.783   6.261  17.999  0.00  0.00    +0.000 C 
BRANCH  20  21
ATOM     21  C   UNL     1       4.298   6.127  17.939  0.00  0.00    +0.000 A 
ATOM     22  C   UNL     1       5.018   6.432  16.774  0.00  0.00    +0.000 A 
ATOM     23  C   UNL     1       6.399   6.226  16.718  0.00  0.00    +0.000 A 
ATOM     24  C   UNL     1       7.077   5.707  17.819  0.00  0.00    +0.000 A 
ATOM     25  C   UNL     1       6.379   5.407  18.985  0.00  0.00    +0.000 A 
ATOM     26  C   UNL     1       5.001   5.626  19.047  0.00  0.00    +0.000 A 
ENDBRANCH  20  21
BRANCH  20  27
ATOM     27  C   UNL     1       2.083   5.057  18.614  0.00  0.00    +0.000 A 
ATOM     28  C   UNL     1       1.690   5.097  19.964  0.00  0.00    +0.000 A 
ATOM     29  C   UNL     1       1.097   3.989  20.568  0.00  0.00    +0.000 A 
ATOM     30  C   UNL     1       0.874   2.829  19.829  0.00  0.00    +0.000 A 
ATOM     31  C   UNL     1       1.235   2.779  18.485  0.00  0.00    +0.000 A 
ATOM     32  C   UNL     1       1.836   3.885  17.879  0.00  0.00    +0.000 A 
ENDBRANCH  20  27
ENDBRANCH  19  20
ENDBRANCH  18  19
ENDBRANCH  17  18
ENDBRANCH   4  17
TORSDOF 9
ENDMDL
MODEL 6
REMARK VINA RESULT:      -8.0      1.050      2.016
REMARK  Name = 
REMARK  10 active torsions:
REMARK  status: ('A' for Active; 'I' for Inactive)
REMARK    1  A    between atoms: C_1  and  C_2
REMARK    2  A    between atoms: C_4  and  C_5
REMARK    3  A    between atoms: C_5  and  N_6
REMARK    4  A    between atoms: N_9  and  C_10
REMARK    5  A    between atoms: C_10  and  C_11
REMARK    6  A    between atoms: C_11  and  O_12
REMARK    7  A    between atoms: O_12  and  C_13
REMARK    8  A    between atoms: C_13  and  C_14
REMARK    9  A    between atoms: C_13  and  C_20
REMARK   10  A    between atoms: C_30  and  O_31
REMARK                            x       y       z     vdW  Elec       q    Type
REMARK                         _______ _______ _______ _____ _____    ______ ____
ROOT
ATOM      1  N   UNL     1       0.374  11.214  20.963  0.00  0.00    +0.000 NA
ATOM      2  C   UNL     1       1.162  10.003  21.275  0.00  0.00    +0.000 C 
ATOM      3  C   UNL     1       1.001   8.774  20.332  0.00  0.00    +0.000 C 
ATOM      4  N   UNL     1       0.920   9.047  18.880  0.00  0.00    +0.000 NA
ATOM      5  C   UNL     1      -0.017  10.171  18.677  0.00  0.00    +0.000 C 
ATOM      6  C   UNL     1       0.331  11.433  19.502  0.00  0.00    +0.000 C 
ENDROOT
BRANCH   1   7
ATOM      7  C   UNL     1      -0.993  11.152  21.498  0.00  0.00    +0.000 C 
BRANCH   7  11
ATOM      8  C   UNL     1      -4.514  12.879  24.562  0.00  0.00    +0.000 C 
ATOM      9  C   UNL     1      -3.148  13.061  23.968  0.00  0.00    +0.000 A 
ATOM     10  C   UNL     1      -2.578  12.036  23.207  0.00  0.00    +0.000 A 
ATOM     11  C   UNL     1      -1.381  12.230  22.498  0.00  0.00    +0.000 A 
ATOM     12  C   UNL     1      -0.720  13.460  22.615  0.00  0.00    +0.000 A 
ATOM     13  C   UNL     1      -1.238  14.463  23.440  0.00  0.00    +0.000 A 
ATOM     14  C   UNL     1      -2.450  14.263  24.101  0.00  0.00    +0.000 A 
BRANCH  14  15
ATOM     15  O   UNL     1      -2.996  15.255  24.865  0.00  0.00    +0.000 OA
ATOM     16  H   UNL     1      -3.851  15.497  24.485  0.00  0.00    +0.000 HD
ENDBRANCH  14  15
ENDBRANCH   7  11
ENDBRANCH   1   7
BRANCH   4  17
ATOM     17  C   UNL     1       2.220   9.368  18.263  0.00  0.00    +0.000 C 
BRANCH  17  18
ATOM     18  C   UNL     1       2.993   8.196  17.628  0.00  0.00    +0.000 C 
BRANCH  18  19
ATOM     19  O   UNL     1       3.156   7.073  18.507  0.00  0.00    +0.000 OA
BRANCH  19  20
ATOM     20  C   UNL     1       3.182   5.778  17.880  0.00  0.00    +0.000 C 
BRANCH  20  21
ATOM     21  C   UNL     1       4.595   5.312  17.559  0.00  0.00    +0.000 A 
ATOM     22  C   UNL     1       5.669   5.567  18.425  0.00  0.00    +0.000 A 
ATOM     23  C   UNL     1       6.970   5.199  18.072  0.00  0.00    +0.000 A 
ATOM     24  C   UNL     1       7.218   4.580  16.848  0.00  0.00    +0.000 A 
ATOM     25  C   UNL     1       6.164   4.314  15.981  0.00  0.00    +0.000 A 
ATOM     26  C   UNL     1       4.861   4.667  16.338  0.00  0.00    +0.000 A 
ENDBRANCH  20  21
BRANCH  20  27
ATOM     27  C   UNL     1       2.385   4.789  18.720  0.00  0.00    +0.000 A 
ATOM     28  C   UNL     1       2.404   4.896  20.122  0.00  0.00    +0.000 A 
ATOM     29  C   UNL     1       1.729   3.971  20.917  0.00  0.00    +0.000 A 
ATOM     30  C   UNL     1       1.011   2.935  20.324  0.00  0.00    +0.000 A 
ATOM     31  C   UNL     1       0.960   2.827  18.937  0.00  0.00    +0.000 A 
ATOM     32  C   UNL     1       1.643   3.747  18.137  0.00  0.00    +0.000 A 
ENDBRANCH  20  27
ENDBRANCH  19  20
ENDBRANCH  18  19
ENDBRANCH  17  18
ENDBRANCH   4  17
TORSDOF 9
ENDMDL
MODEL 7
REMARK VINA RESULT:      -8.0      3.073      6.329
REMARK  Name = 
REMARK  10 active torsions:
REMARK  status: ('A' for Active; 'I' for Inactive)
REMARK    1  A    between atoms: C_1  and  C_2
REMARK    2  A    between atoms: C_4  and  C_5
REMARK    3  A    between atoms: C_5  and  N_6
REMARK    4  A    between atoms: N_9  and  C_10
REMARK    5  A    between atoms: C_10  and  C_11
REMARK    6  A    between atoms: C_11  and  O_12
REMARK    7  A    between atoms: O_12  and  C_13
REMARK    8  A    between atoms: C_13  and  C_14
REMARK    9  A    between atoms: C_13  and  C_20
REMARK   10  A    between atoms: C_30  and  O_31
REMARK                            x       y       z     vdW  Elec       q    Type
REMARK                         _______ _______ _______ _____ _____    ______ ____
ROOT
ATOM      1  N   UNL     1       2.687   6.342  18.928  0.00  0.00    +0.000 NA
ATOM      2  C   UNL     1       3.916   5.549  19.147  0.00  0.00    +0.000 C 
ATOM      3  C   UNL     1       3.750   4.066  19.588  0.00  0.00    +0.000 C 
ATOM      4  N   UNL     1       2.674   3.286  18.935  0.00  0.00    +0.000 NA
ATOM      5  C   UNL     1       1.453   4.118  18.916  0.00  0.00    +0.000 C 
ATOM      6  C   UNL     1       1.655   5.511  18.273  0.00  0.00    +0.000 C 
ENDROOT
BRANCH   1   7
ATOM      7  C   UNL     1       2.153   6.912  20.173  0.00  0.00    +0.000 C 
BRANCH   7  11
ATOM      8  C   UNL     1      -0.521  10.453  22.425  0.00  0.00    +0.000 C 
ATOM      9  C   UNL     1       0.266  10.032  21.219  0.00  0.00    +0.000 A 
ATOM     10  C   UNL     1       1.002   8.842  21.249  0.00  0.00    +0.000 A 
ATOM     11  C   UNL     1       1.612   8.331  20.092  0.00  0.00    +0.000 A 
ATOM     12  C   UNL     1       1.530   9.069  18.904  0.00  0.00    +0.000 A 
ATOM     13  C   UNL     1       0.869  10.301  18.883  0.00  0.00    +0.000 A 
ATOM     14  C   UNL     1       0.234  10.768  20.034  0.00  0.00    +0.000 A 
BRANCH  14  15
ATOM     15  O   UNL     1      -0.465  11.942  20.013  0.00  0.00    +0.000 OA
ATOM     16  H   UNL     1      -0.048  12.556  20.631  0.00  0.00    +0.000 HD
ENDBRANCH  14  15
ENDBRANCH   7  11
ENDBRANCH   1   7
BRANCH   4  17
ATOM     17  C   UNL     1       3.003   2.857  17.564  0.00  0.00    +0.000 C 
BRANCH  17  18
ATOM     18  C   UNL     1       4.496   2.840  17.182  0.00  0.00    +0.000 C 
BRANCH  18  19
ATOM     19  O   UNL     1       4.855   3.853  16.229  0.00  0.00    +0.000 OA
BRANCH  19  20
ATOM     20  C   UNL     1       6.260   3.983  15.946  0.00  0.00    +0.000 C 
BRANCH  20  21
ATOM     21  C   UNL     1       6.541   4.190  14.464  0.00  0.00    +0.000 A 
ATOM     22  C   UNL     1       5.879   3.443  13.478  0.00  0.00    +0.000 A 
ATOM     23  C   UNL     1       6.210   3.595  12.129  0.00  0.00    +0.000 A 
ATOM     24  C   UNL     1       7.209   4.488  11.747  0.00  0.00    +0.000 A 
ATOM     25  C   UNL     1       7.870   5.242  12.712  0.00  0.00    +0.000 A 
ATOM     26  C   UNL     1       7.531   5.102  14.059  0.00  0.00    +0.000 A 
ENDBRANCH  20  21
BRANCH  20  27
ATOM     27  C   UNL     1       6.863   5.057  16.841  0.00  0.00    +0.000 A 
ATOM     28  C   UNL     1       7.601   4.680  17.978  0.00  0.00    +0.000 A 
ATOM     29  C   UNL     1       8.116   5.642  18.845  0.00  0.00    +0.000 A 
ATOM     30  C   UNL     1       7.917   6.996  18.582  0.00  0.00    +0.000 A 
ATOM     31  C   UNL     1       7.210   7.389  17.449  0.00  0.00    +0.000 A 
ATOM     32  C   UNL     1       6.685   6.427  16.582  0.00  0.00    +0.000 A 
ENDBRANCH  20  27
ENDBRANCH  19  20
ENDBRANCH  18  19
ENDBRANCH  17  18
ENDBRANCH   4  17
TORSDOF 9
ENDMDL
MODEL 8
REMARK VINA RESULT:      -7.9      2.667      4.594
REMARK  Name = 
REMARK  10 active torsions:
REMARK  status: ('A' for Active; 'I' for Inactive)
REMARK    1  A    between atoms: C_1  and  C_2
REMARK    2  A    between atoms: C_4  and  C_5
REMARK    3  A    between atoms: C_5  and  N_6
REMARK    4  A    between atoms: N_9  and  C_10
REMARK    5  A    between atoms: C_10  and  C_11
REMARK    6  A    between atoms: C_11  and  O_12
REMARK    7  A    between atoms: O_12  and  C_13
REMARK    8  A    between atoms: C_13  and  C_14
REMARK    9  A    between atoms: C_13  and  C_20
REMARK   10  A    between atoms: C_30  and  O_31
REMARK                            x       y       z     vdW  Elec       q    Type
REMARK                         _______ _______ _______ _____ _____    ______ ____
ROOT
ATOM      1  N   UNL     1      -1.427  11.787  18.568  0.00  0.00    +0.000 NA
ATOM      2  C   UNL     1      -0.068  12.359  18.455  0.00  0.00    +0.000 C 
ATOM      3  C   UNL     1       0.985  11.935  19.519  0.00  0.00    +0.000 C 
ATOM      4  N   UNL     1       0.995  10.511  19.925  0.00  0.00    +0.000 NA
ATOM      5  C   UNL     1      -0.402  10.094  20.166  0.00  0.00    +0.000 C 
ATOM      6  C   UNL     1      -1.350  10.368  18.974  0.00  0.00    +0.000 C 
ENDROOT
BRANCH   1   7
ATOM      7  C   UNL     1      -2.276  12.530  19.509  0.00  0.00    +0.000 C 
BRANCH   7  11
ATOM      8  C   UNL     1      -6.631  12.476  21.916  0.00  0.00    +0.000 C 
ATOM      9  C   UNL     1      -5.888  12.248  20.632  0.00  0.00    +0.000 A 
ATOM     10  C   UNL     1      -4.549  12.638  20.525  0.00  0.00    +0.000 A 
ATOM     11  C   UNL     1      -3.774  12.292  19.405  0.00  0.00    +0.000 A 
ATOM     12  C   UNL     1      -4.383  11.597  18.352  0.00  0.00    +0.000 A 
ATOM     13  C   UNL     1      -5.743  11.276  18.413  0.00  0.00    +0.000 A 
ATOM     14  C   UNL     1      -6.482  11.593  19.553  0.00  0.00    +0.000 A 
BRANCH  14  15
ATOM     15  O   UNL     1      -7.797  11.233  19.649  0.00  0.00    +0.000 OA
ATOM     16  H   UNL     1      -8.318  12.027  19.824  0.00  0.00    +0.000 HD
ENDBRANCH  14  15
ENDBRANCH   7  11
ENDBRANCH   1   7
BRANCH   4  17
ATOM     17  C   UNL     1       1.616   9.616  18.933  0.00  0.00    +0.000 C 
BRANCH  17  18
ATOM     18  C   UNL     1       1.798   8.143  19.347  0.00  0.00    +0.000 C 
BRANCH  18  19
ATOM     19  O   UNL     1       2.649   7.399  18.462  0.00  0.00    +0.000 OA
BRANCH  19  20
ATOM     20  C   UNL     1       3.317   6.261  19.036  0.00  0.00    +0.000 C 
BRANCH  20  21
ATOM     21  C   UNL     1       2.381   5.079  19.247  0.00  0.00    +0.000 A 
ATOM     22  C   UNL     1       1.949   4.701  20.528  0.00  0.00    +0.000 A 
ATOM     23  C   UNL     1       1.154   3.566  20.703  0.00  0.00    +0.000 A 
ATOM     24  C   UNL     1       0.787   2.789  19.607  0.00  0.00    +0.000 A 
ATOM     25  C   UNL     1       1.200   3.153  18.329  0.00  0.00    +0.000 A 
ATOM     26  C   UNL     1       1.983   4.296  18.150  0.00  0.00    +0.000 A 
ENDBRANCH  20  21
BRANCH  20  27
ATOM     27  C   UNL     1       4.553   5.926  18.211  0.00  0.00    +0.000 A 
ATOM     28  C   UNL     1       4.669   6.426  16.902  0.00  0.00    +0.000 A 
ATOM     29  C   UNL     1       5.763   6.090  16.105  0.00  0.00    +0.000 A 
ATOM     30  C   UNL     1       6.766   5.264  16.610  0.00  0.00    +0.000 A 
ATOM     31  C   UNL     1       6.680   4.780  17.912  0.00  0.00    +0.000 A 
ATOM     32  C   UNL     1       5.581   5.108  18.711  0.00  0.00    +0.000 A 
ENDBRANCH  20  27
ENDBRANCH  19  20
ENDBRANCH  18  19
ENDBRANCH  17  18
ENDBRANCH   4  17
TORSDOF 9
ENDMDL
MODEL 9
REMARK VINA RESULT:      -7.9      1.203      1.872
REMARK  Name = 
REMARK  10 active torsions:
REMARK  status: ('A' for Active; 'I' for Inactive)
REMARK    1  A    between atoms: C_1  and  C_2
REMARK    2  A    between atoms: C_4  and  C_5
REMARK    3  A    between atoms: C_5  and  N_6
REMARK    4  A    between atoms: N_9  and  C_10
REMARK    5  A    between atoms: C_10  and  C_11
REMARK    6  A    between atoms: C_11  and  O_12
REMARK    7  A    between atoms: O_12  and  C_13
REMARK    8  A    between atoms: C_13  and  C_14
REMARK    9  A    between atoms: C_13  and  C_20
REMARK   10  A    between atoms: C_30  and  O_31
REMARK                            x       y       z     vdW  Elec       q    Type
REMARK                         _______ _______ _______ _____ _____    ______ ____
ROOT
ATOM      1  N   UNL     1      -1.550  11.811  20.725  0.00  0.00    +0.000 NA
ATOM      2  C   UNL     1      -1.533  11.353  19.319  0.00  0.00    +0.000 C 
ATOM      3  C   UNL     1      -0.160  11.319  18.587  0.00  0.00    +0.000 C 
ATOM      4  N   UNL     1       1.004  10.834  19.362  0.00  0.00    +0.000 NA
ATOM      5  C   UNL     1       0.971  11.481  20.691  0.00  0.00    +0.000 C 
ATOM      6  C   UNL     1      -0.368  11.294  21.444  0.00  0.00    +0.000 C 
ENDROOT
BRANCH   1   7
ATOM      7  C   UNL     1      -1.605  13.275  20.841  0.00  0.00    +0.000 C 
BRANCH   7  11
ATOM      8  C   UNL     1      -4.494  12.394  24.795  0.00  0.00    +0.000 C 
ATOM      9  C   UNL     1      -4.062  13.358  23.730  0.00  0.00    +0.000 A 
ATOM     10  C   UNL     1      -2.967  13.049  22.915  0.00  0.00    +0.000 A 
ATOM     11  C   UNL     1      -2.636  13.842  21.804  0.00  0.00    +0.000 A 
ATOM     12  C   UNL     1      -3.386  14.999  21.553  0.00  0.00    +0.000 A 
ATOM     13  C   UNL     1      -4.430  15.362  22.410  0.00  0.00    +0.000 A 
ATOM     14  C   UNL     1      -4.767  14.537  23.483  0.00  0.00    +0.000 A 
BRANCH  14  15
ATOM     15  O   UNL     1      -5.821  14.850  24.294  0.00  0.00    +0.000 OA
ATOM     16  H   UNL     1      -6.535  14.222  24.121  0.00  0.00    +0.000 HD
ENDBRANCH  14  15
ENDBRANCH   7  11
ENDBRANCH   1   7
BRANCH   4  17
ATOM     17  C   UNL     1       1.038   9.369  19.525  0.00  0.00    +0.000 C 
BRANCH  17  18
ATOM     18  C   UNL     1       1.931   8.585  18.544  0.00  0.00    +0.000 C 
BRANCH  18  19
ATOM     19  O   UNL     1       2.588   7.457  19.144  0.00  0.00    +0.000 OA
BRANCH  19  20
ATOM     20  C   UNL     1       2.843   6.339  18.274  0.00  0.00    +0.000 C 
BRANCH  20  21
ATOM     21  C   UNL     1       4.326   6.139  17.998  0.00  0.00    +0.000 A 
ATOM     22  C   UNL     1       4.894   6.456  16.755  0.00  0.00    +0.000 A 
ATOM     23  C   UNL     1       6.242   6.191  16.500  0.00  0.00    +0.000 A 
ATOM     24  C   UNL     1       7.038   5.599  17.478  0.00  0.00    +0.000 A 
ATOM     25  C   UNL     1       6.494   5.286  18.719  0.00  0.00    +0.000 A 
ATOM     26  C   UNL     1       5.150   5.563  18.981  0.00  0.00    +0.000 A 
ENDBRANCH  20  21
BRANCH  20  27
ATOM     27  C   UNL     1       2.147   5.099  18.821  0.00  0.00    +0.000 A 
ATOM     28  C   UNL     1       1.810   4.050  17.947  0.00  0.00    +0.000 A 
ATOM     29  C   UNL     1       1.124   2.928  18.410  0.00  0.00    +0.000 A 
ATOM     30  C   UNL     1       0.778   2.830  19.757  0.00  0.00    +0.000 A 
ATOM     31  C   UNL     1       1.124   3.848  20.641  0.00  0.00    +0.000 A 
ATOM     32  C   UNL     1       1.805   4.977  20.178  0.00  0.00    +0.000 A 
ENDBRANCH  20  27
ENDBRANCH  19  20
ENDBRANCH  18  19
ENDBRANCH  17  18
ENDBRANCH   4  17
TORSDOF 9
ENDMDL
