MODEL 1
REMARK VINA RESULT:      -7.9      0.000      0.000
REMARK  Name = 
REMARK  8 active torsions:
REMARK  status: ('A' for Active; 'I' for Inactive)
REMARK    1  A    between atoms: C_1  and  C_2
REMARK    2  A    between atoms: C_5  and  S_6
REMARK    3  A    between atoms: S_6  and  C_7
REMARK    4  A    between atoms: C_7  and  C_8
REMARK    5  A    between atoms: C_7  and  C_9
REMARK    6  A    between atoms: N_11  and  C_12
REMARK    7  A    between atoms: C_12  and  C_13
REMARK    8  A    between atoms: C_13  and  C_14
REMARK                            x       y       z     vdW  Elec       q    Type
REMARK                         _______ _______ _______ _____ _____    ______ ____
ROOT
ATOM      1  C   UNL     1       7.384   6.371  17.921  0.00  0.00    +0.000 C 
ATOM      2  O   UNL     1       8.029   5.875  18.846  0.00  0.00    +0.000 OA
ATOM      3  N   UNL     1       7.491   7.716  17.613  0.00  0.00    +0.000 N 
ATOM      4  H   UNL     1       6.949   8.102  16.849  0.00  0.00    +0.000 HD
ENDROOT
BRANCH   1   5
ATOM      5  C   UNL     1       6.382   5.557  17.079  0.00  0.00    +0.000 C 
ATOM      6  C   UNL     1       6.970   5.308  15.690  0.00  0.00    +0.000 C 
BRANCH   5   7
ATOM      7  S   UNL     1       4.809   6.517  16.948  0.00  0.00    +0.000 S 
BRANCH   7  12
ATOM      8  C   UNL     1       0.721   3.435  20.290  0.00  0.00    +0.000 C 
ATOM      9  C   UNL     1       1.773   4.166  19.505  0.00  0.00    +0.000 A 
ATOM     10  C   UNL     1       2.376   5.322  20.017  0.00  0.00    +0.000 A 
ATOM     11  C   UNL     1       3.326   6.024  19.262  0.00  0.00    +0.000 A 
ATOM     12  C   UNL     1       3.689   5.584  17.988  0.00  0.00    +0.000 A 
ATOM     13  C   UNL     1       3.084   4.428  17.476  0.00  0.00    +0.000 A 
ATOM     14  C   UNL     1       2.134   3.725  18.231  0.00  0.00    +0.000 A 
ENDBRANCH   7  12
ENDBRANCH   5   7
ENDBRANCH   1   5
BRANCH   3  15
ATOM     15  C   UNL     1       8.445   8.543  18.337  0.00  0.00    +0.000 C 
BRANCH  15  16
ATOM     16  C   UNL     1       8.466  10.010  17.895  0.00  0.00    +0.000 C 
BRANCH  16  17
ATOM     17  C   UNL     1       9.580  10.815  18.544  0.00  0.00    +0.000 C 
ATOM     18  C   UNL     1      10.458  11.525  17.808  0.00  0.00    +0.000 C 
ATOM     19  C   UNL     1      11.598  12.314  18.389  0.00  0.00    +0.000 C 
ATOM     20  C   UNL     1      11.887  11.965  19.847  0.00  0.00    +0.000 C 
ATOM     21  C   UNL     1      10.595  11.866  20.646  0.00  0.00    +0.000 C 
ATOM     22  C   UNL     1       9.657  10.803  20.058  0.00  0.00    +0.000 C 
ENDBRANCH  16  17
ENDBRANCH  15  16
ENDBRANCH   3  15
TORSDOF 6
ENDMDL
MODEL 2
REMARK VINA RESULT:      -7.7      0.840      1.202
REMARK  Name = 
REMARK  8 active torsions:
REMARK  status: ('A' for Active; 'I' for Inactive)
REMARK    1  A    between atoms: C_1  and  C_2
REMARK    2  A    between atoms: C_5  and  S_6
REMARK    3  A    between atoms: S_6  and  C_7
REMARK    4  A    between atoms: C_7  and  C_8
REMARK    5  A    between atoms: C_7  and  C_9
REMARK    6  A    between atoms: N_11  and  C_12
REMARK    7  A    between atoms: C_12  and  C_13
REMARK    8  A    between atoms: C_13  and  C_14
REMARK                            x       y       z     vdW  Elec       q    Type
REMARK                         _______ _______ _______ _____ _____    ______ ____
ROOT
ATOM      1  C   UNL     1       7.234   6.226  18.279  0.00  0.00    +0.000 C 
ATOM      2  O   UNL     1       7.702   5.858  19.358  0.00  0.00    +0.000 OA
ATOM      3  N   UNL     1       7.543   7.466  17.749  0.00  0.00    +0.000 N 
ATOM      4  H   UNL     1       7.145   7.748  16.861  0.00  0.00    +0.000 HD
ENDROOT
BRANCH   1   5
ATOM      5  C   UNL     1       6.242   5.367  17.470  0.00  0.00    +0.000 C 
ATOM      6  C   UNL     1       6.736   5.242  16.028  0.00  0.00    +0.000 C 
BRANCH   5   7
ATOM      7  S   UNL     1       4.587   6.186  17.513  0.00  0.00    +0.000 S 
BRANCH   7  12
ATOM      8  C   UNL     1       1.562   2.783  21.593  0.00  0.00    +0.000 C 
ATOM      9  C   UNL     1       2.271   3.592  20.543  0.00  0.00    +0.000 A 
ATOM     10  C   UNL     1       3.296   3.027  19.775  0.00  0.00    +0.000 A 
ATOM     11  C   UNL     1       3.984   3.797  18.827  0.00  0.00    +0.000 A 
ATOM     12  C   UNL     1       3.657   5.140  18.629  0.00  0.00    +0.000 A 
ATOM     13  C   UNL     1       2.631   5.705  19.399  0.00  0.00    +0.000 A 
ATOM     14  C   UNL     1       1.943   4.934  20.348  0.00  0.00    +0.000 A 
ENDBRANCH   7  12
ENDBRANCH   5   7
ENDBRANCH   1   5
BRANCH   3  15
ATOM     15  C   UNL     1       8.503   8.319  18.434  0.00  0.00    +0.000 C 
BRANCH  15  16
ATOM     16  C   UNL     1       8.341   9.813  18.135  0.00  0.00    +0.000 C 
BRANCH  16  17
ATOM     17  C   UNL     1       9.467  10.663  18.701  0.00  0.00    +0.000 C 
ATOM     18  C   UNL     1      10.381  11.247  17.900  0.00  0.00    +0.000 C 
ATOM     19  C   UNL     1      11.534  12.071  18.401  0.00  0.00    +0.000 C 
ATOM     20  C   UNL     1      11.785  11.904  19.897  0.00  0.00    +0.000 C 
ATOM     21  C   UNL     1      10.475  11.945  20.673  0.00  0.00    +0.000 C 
ATOM     22  C   UNL     1       9.516  10.843  20.205  0.00  0.00    +0.000 C 
ENDBRANCH  16  17
ENDBRANCH  15  16
ENDBRANCH   3  15
TORSDOF 6
ENDMDL
MODEL 3
REMARK VINA RESULT:      -7.6      0.761      1.327
REMARK  Name = 
REMARK  8 active torsions:
REMARK  status: ('A' for Active; 'I' for Inactive)
REMARK    1  A    between atoms: C_1  and  C_2
REMARK    2  A    between atoms: C_5  and  S_6
REMARK    3  A    between atoms: S_6  and  C_7
REMARK    4  A    between atoms: C_7  and  C_8
REMARK    5  A    between atoms: C_7  and  C_9
REMARK    6  A    between atoms: N_11  and  C_12
REMARK    7  A    between atoms: C_12  and  C_13
REMARK    8  A    between atoms: C_13  and  C_14
REMARK                            x       y       z     vdW  Elec       q    Type
REMARK                         _______ _______ _______ _____ _____    ______ ____
ROOT
ATOM      1  C   UNL     1       7.043   6.275  17.739  0.00  0.00    +0.000 C 
ATOM      2  O   UNL     1       7.791   5.710  18.539  0.00  0.00    +0.000 OA
ATOM      3  N   UNL     1       7.185   7.622  17.453  0.00  0.00    +0.000 N 
ATOM      4  H   UNL     1       6.556   8.065  16.793  0.00  0.00    +0.000 HD
ENDROOT
BRANCH   1   5
ATOM      5  C   UNL     1       5.876   5.550  17.042  0.00  0.00    +0.000 C 
ATOM      6  C   UNL     1       6.136   5.497  15.537  0.00  0.00    +0.000 C 
BRANCH   5   7
ATOM      7  S   UNL     1       4.316   6.476  17.392  0.00  0.00    +0.000 S 
BRANCH   7  12
ATOM      8  C   UNL     1       1.372   2.891  21.374  0.00  0.00    +0.000 C 
ATOM      9  C   UNL     1       2.140   3.785  20.442  0.00  0.00    +0.000 A 
ATOM     10  C   UNL     1       2.031   5.178  20.532  0.00  0.00    +0.000 A 
ATOM     11  C   UNL     1       2.716   6.006  19.632  0.00  0.00    +0.000 A 
ATOM     12  C   UNL     1       3.520   5.458  18.631  0.00  0.00    +0.000 A 
ATOM     13  C   UNL     1       3.627   4.063  18.540  0.00  0.00    +0.000 A 
ATOM     14  C   UNL     1       2.942   3.234  19.441  0.00  0.00    +0.000 A 
ENDBRANCH   7  12
ENDBRANCH   5   7
ENDBRANCH   1   5
BRANCH   3  15
ATOM     15  C   UNL     1       8.287   8.367  18.041  0.00  0.00    +0.000 C 
BRANCH  15  16
ATOM     16  C   UNL     1       8.204   9.883  17.831  0.00  0.00    +0.000 C 
BRANCH  16  17
ATOM     17  C   UNL     1       9.285  10.651  18.574  0.00  0.00    +0.000 C 
ATOM     18  C   UNL     1       9.294  10.732  19.919  0.00  0.00    +0.000 C 
ATOM     19  C   UNL     1      10.316  11.502  20.708  0.00  0.00    +0.000 C 
ATOM     20  C   UNL     1      11.134  12.465  19.851  0.00  0.00    +0.000 C 
ATOM     21  C   UNL     1      11.574  11.796  18.555  0.00  0.00    +0.000 C 
ATOM     22  C   UNL     1      10.366  11.311  17.742  0.00  0.00    +0.000 C 
ENDBRANCH  16  17
ENDBRANCH  15  16
ENDBRANCH   3  15
TORSDOF 6
ENDMDL
MODEL 4
REMARK VINA RESULT:      -7.5      0.407      1.562
REMARK  Name = 
REMARK  8 active torsions:
REMARK  status: ('A' for Active; 'I' for Inactive)
REMARK    1  A    between atoms: C_1  and  C_2
REMARK    2  A    between atoms: C_5  and  S_6
REMARK    3  A    between atoms: S_6  and  C_7
REMARK    4  A    between atoms: C_7  and  C_8
REMARK    5  A    between atoms: C_7  and  C_9
REMARK    6  A    between atoms: N_11  and  C_12
REMARK    7  A    between atoms: C_12  and  C_13
REMARK    8  A    between atoms: C_13  and  C_14
REMARK                            x       y       z     vdW  Elec       q    Type
REMARK                         _______ _______ _______ _____ _____    ______ ____
ROOT
ATOM      1  C   UNL     1       7.163   6.557  18.163  0.00  0.00    +0.000 C 
ATOM      2  O   UNL     1       7.657   6.175  19.225  0.00  0.00    +0.000 OA
ATOM      3  N   UNL     1       7.508   7.777  17.609  0.00  0.00    +0.000 N 
ATOM      4  H   UNL     1       7.086   8.071  16.736  0.00  0.00    +0.000 HD
ENDROOT
BRANCH   1   5
ATOM      5  C   UNL     1       6.097   5.742  17.406  0.00  0.00    +0.000 C 
ATOM      6  C   UNL     1       6.604   5.424  15.999  0.00  0.00    +0.000 C 
BRANCH   5   7
ATOM      7  S   UNL     1       4.545   6.741  17.318  0.00  0.00    +0.000 S 
BRANCH   7  12
ATOM      8  C   UNL     1       0.797   3.111  20.505  0.00  0.00    +0.000 C 
ATOM      9  C   UNL     1       1.666   4.034  19.698  0.00  0.00    +0.000 A 
ATOM     10  C   UNL     1       1.854   3.824  18.326  0.00  0.00    +0.000 A 
ATOM     11  C   UNL     1       2.700   4.662  17.587  0.00  0.00    +0.000 A 
ATOM     12  C   UNL     1       3.368   5.722  18.203  0.00  0.00    +0.000 A 
ATOM     13  C   UNL     1       3.181   5.930  19.576  0.00  0.00    +0.000 A 
ATOM     14  C   UNL     1       2.334   5.091  20.316  0.00  0.00    +0.000 A 
ENDBRANCH   7  12
ENDBRANCH   5   7
ENDBRANCH   1   5
BRANCH   3  15
ATOM     15  C   UNL     1       8.536   8.588  18.244  0.00  0.00    +0.000 C 
BRANCH  15  16
ATOM     16  C   UNL     1       8.522  10.061  17.825  0.00  0.00    +0.000 C 
BRANCH  16  17
ATOM     17  C   UNL     1       9.565  10.899  18.546  0.00  0.00    +0.000 C 
ATOM     18  C   UNL     1       9.617  10.955  19.892  0.00  0.00    +0.000 C 
ATOM     19  C   UNL     1      10.604  11.789  20.661  0.00  0.00    +0.000 C 
ATOM     20  C   UNL     1      11.311  12.830  19.797  0.00  0.00    +0.000 C 
ATOM     21  C   UNL     1      11.754  12.223  18.473  0.00  0.00    +0.000 C 
ATOM     22  C   UNL     1      10.560  11.660  17.692  0.00  0.00    +0.000 C 
ENDBRANCH  16  17
ENDBRANCH  15  16
ENDBRANCH   3  15
TORSDOF 6
ENDMDL
MODEL 5
REMARK VINA RESULT:      -7.3      1.378      1.852
REMARK  Name = 
REMARK  8 active torsions:
REMARK  status: ('A' for Active; 'I' for Inactive)
REMARK    1  A    between atoms: C_1  and  C_2
REMARK    2  A    between atoms: C_5  and  S_6
REMARK    3  A    between atoms: S_6  and  C_7
REMARK    4  A    between atoms: C_7  and  C_8
REMARK    5  A    between atoms: C_7  and  C_9
REMARK    6  A    between atoms: N_11  and  C_12
REMARK    7  A    between atoms: C_12  and  C_13
REMARK    8  A    between atoms: C_13  and  C_14
REMARK                            x       y       z     vdW  Elec       q    Type
REMARK                         _______ _______ _______ _____ _____    ______ ____
ROOT
ATOM      1  C   UNL     1       7.040   7.110  17.589  0.00  0.00    +0.000 C 
ATOM      2  O   UNL     1       6.520   7.729  16.658  0.00  0.00    +0.000 OA
ATOM      3  N   UNL     1       8.067   7.664  18.333  0.00  0.00    +0.000 N 
ATOM      4  H   UNL     1       8.480   7.135  19.092  0.00  0.00    +0.000 HD
ENDROOT
BRANCH   1   5
ATOM      5  C   UNL     1       6.628   5.672  17.960  0.00  0.00    +0.000 C 
ATOM      6  C   UNL     1       7.867   4.881  18.381  0.00  0.00    +0.000 C 
BRANCH   5   7
ATOM      7  S   UNL     1       5.836   4.890  16.485  0.00  0.00    +0.000 S 
BRANCH   7  12
ATOM      8  C   UNL     1       0.714   2.798  19.086  0.00  0.00    +0.000 C 
ATOM      9  C   UNL     1       1.950   3.293  18.389  0.00  0.00    +0.000 A 
ATOM     10  C   UNL     1       2.951   2.402  17.986  0.00  0.00    +0.000 A 
ATOM     11  C   UNL     1       4.121   2.873  17.375  0.00  0.00    +0.000 A 
ATOM     12  C   UNL     1       4.309   4.239  17.155  0.00  0.00    +0.000 A 
ATOM     13  C   UNL     1       3.306   5.131  17.561  0.00  0.00    +0.000 A 
ATOM     14  C   UNL     1       2.135   4.659  18.172  0.00  0.00    +0.000 A 
ENDBRANCH   7  12
ENDBRANCH   5   7
ENDBRANCH   1   5
BRANCH   3  15
ATOM     15  C   UNL     1       8.486   9.032  18.070  0.00  0.00    +0.000 C 
BRANCH  15  16
ATOM     16  C   UNL     1       8.954   9.796  19.313  0.00  0.00    +0.000 C 
BRANCH  16  17
ATOM     17  C   UNL     1       9.924  10.922  18.994  0.00  0.00    +0.000 C 
ATOM     18  C   UNL     1       9.971  11.486  17.771  0.00  0.00    +0.000 C 
ATOM     19  C   UNL     1      10.928  12.580  17.387  0.00  0.00    +0.000 C 
ATOM     20  C   UNL     1      12.070  12.756  18.384  0.00  0.00    +0.000 C 
ATOM     21  C   UNL     1      11.548  12.722  19.815  0.00  0.00    +0.000 C 
ATOM     22  C   UNL     1      10.829  11.399  20.112  0.00  0.00    +0.000 C 
ENDBRANCH  16  17
ENDBRANCH  15  16
ENDBRANCH   3  15
TORSDOF 6
ENDMDL
MODEL 6
REMARK VINA RESULT:      -7.3      1.183      1.285
REMARK  Name = 
REMARK  8 active torsions:
REMARK  status: ('A' for Active; 'I' for Inactive)
REMARK    1  A    between atoms: C_1  and  C_2
REMARK    2  A    between atoms: C_5  and  S_6
REMARK    3  A    between atoms: S_6  and  C_7
REMARK    4  A    between atoms: C_7  and  C_8
REMARK    5  A    between atoms: C_7  and  C_9
REMARK    6  A    between atoms: N_11  and  C_12
REMARK    7  A    between atoms: C_12  and  C_13
REMARK    8  A    between atoms: C_13  and  C_14
REMARK                            x       y       z     vdW  Elec       q    Type
REMARK                         _______ _______ _______ _____ _____    ______ ____
ROOT
ATOM      1  C   UNL     1       7.104   7.173  17.604  0.00  0.00    +0.000 C 
ATOM      2  O   UNL     1       6.639   7.808  16.655  0.00  0.00    +0.000 OA
ATOM      3  N   UNL     1       8.128   7.688  18.379  0.00  0.00    +0.000 N 
ATOM      4  H   UNL     1       8.495   7.147  19.153  0.00  0.00    +0.000 HD
ENDROOT
BRANCH   1   5
ATOM      5  C   UNL     1       6.622   5.755  17.967  0.00  0.00    +0.000 C 
ATOM      6  C   UNL     1       7.785   4.771  17.825  0.00  0.00    +0.000 C 
BRANCH   5   7
ATOM      7  S   UNL     1       5.247   5.292  16.824  0.00  0.00    +0.000 S 
BRANCH   7  12
ATOM      8  C   UNL     1       0.762   3.329  20.487  0.00  0.00    +0.000 C 
ATOM      9  C   UNL     1       1.903   3.766  19.613  0.00  0.00    +0.000 A 
ATOM     10  C   UNL     1       2.931   4.569  20.123  0.00  0.00    +0.000 A 
ATOM     11  C   UNL     1       3.970   5.009  19.292  0.00  0.00    +0.000 A 
ATOM     12  C   UNL     1       4.001   4.654  17.942  0.00  0.00    +0.000 A 
ATOM     13  C   UNL     1       2.972   3.852  17.432  0.00  0.00    +0.000 A 
ATOM     14  C   UNL     1       1.931   3.411  18.263  0.00  0.00    +0.000 A 
ENDBRANCH   7  12
ENDBRANCH   5   7
ENDBRANCH   1   5
BRANCH   3  15
ATOM     15  C   UNL     1       8.610   9.037  18.125  0.00  0.00    +0.000 C 
BRANCH  15  16
ATOM     16  C   UNL     1       8.999   9.814  19.387  0.00  0.00    +0.000 C 
BRANCH  16  17
ATOM     17  C   UNL     1       9.969  10.952  19.115  0.00  0.00    +0.000 C 
ATOM     18  C   UNL     1      10.236  11.366  17.860  0.00  0.00    +0.000 C 
ATOM     19  C   UNL     1      11.208  12.463  17.525  0.00  0.00    +0.000 C 
ATOM     20  C   UNL     1      12.121  12.831  18.692  0.00  0.00    +0.000 C 
ATOM     21  C   UNL     1      11.328  12.937  19.987  0.00  0.00    +0.000 C 
ATOM     22  C   UNL     1      10.615  11.618  20.313  0.00  0.00    +0.000 C 
ENDBRANCH  16  17
ENDBRANCH  15  16
ENDBRANCH   3  15
TORSDOF 6
ENDMDL
MODEL 7
REMARK VINA RESULT:      -7.3      1.365      1.924
REMARK  Name = 
REMARK  8 active torsions:
REMARK  status: ('A' for Active; 'I' for Inactive)
REMARK    1  A    between atoms: C_1  and  C_2
REMARK    2  A    between atoms: C_5  and  S_6
REMARK    3  A    between atoms: S_6  and  C_7
REMARK    4  A    between atoms: C_7  and  C_8
REMARK    5  A    between atoms: C_7  and  C_9
REMARK    6  A    between atoms: N_11  and  C_12
REMARK    7  A    between atoms: C_12  and  C_13
REMARK    8  A    between atoms: C_13  and  C_14
REMARK                            x       y       z     vdW  Elec       q    Type
REMARK                         _______ _______ _______ _____ _____    ______ ____
ROOT
ATOM      1  C   UNL     1       7.017   6.053  16.963  0.00  0.00    +0.000 C 
ATOM      2  O   UNL     1       7.705   6.229  15.955  0.00  0.00    +0.000 OA
ATOM      3  N   UNL     1       7.272   6.742  18.135  0.00  0.00    +0.000 N 
ATOM      4  H   UNL     1       6.695   6.578  18.951  0.00  0.00    +0.000 HD
ENDROOT
BRANCH   1   5
ATOM      5  C   UNL     1       5.867   5.028  17.011  0.00  0.00    +0.000 C 
ATOM      6  C   UNL     1       5.800   4.275  15.683  0.00  0.00    +0.000 C 
BRANCH   5   7
ATOM      7  S   UNL     1       4.286   5.934  17.317  0.00  0.00    +0.000 S 
BRANCH   7  12
ATOM      8  C   UNL     1       1.566   2.653  21.701  0.00  0.00    +0.000 C 
ATOM      9  C   UNL     1       2.213   3.416  20.579  0.00  0.00    +0.000 A 
ATOM     10  C   UNL     1       3.424   2.985  20.024  0.00  0.00    +0.000 A 
ATOM     11  C   UNL     1       4.045   3.724  19.008  0.00  0.00    +0.000 A 
ATOM     12  C   UNL     1       3.467   4.902  18.529  0.00  0.00    +0.000 A 
ATOM     13  C   UNL     1       2.256   5.333  19.087  0.00  0.00    +0.000 A 
ATOM     14  C   UNL     1       1.634   4.593  20.104  0.00  0.00    +0.000 A 
ENDBRANCH   7  12
ENDBRANCH   5   7
ENDBRANCH   1   5
BRANCH   3  15
ATOM     15  C   UNL     1       8.316   7.755  18.158  0.00  0.00    +0.000 C 
BRANCH  15  16
ATOM     16  C   UNL     1       7.844   9.153  17.744  0.00  0.00    +0.000 C 
BRANCH  16  17
ATOM     17  C   UNL     1       8.644  10.272  18.391  0.00  0.00    +0.000 C 
ATOM     18  C   UNL     1       9.291  10.090  19.560  0.00  0.00    +0.000 C 
ATOM     19  C   UNL     1      10.070  11.165  20.265  0.00  0.00    +0.000 C 
ATOM     20  C   UNL     1       9.781  12.565  19.729  0.00  0.00    +0.000 C 
ATOM     21  C   UNL     1       9.760  12.567  18.206  0.00  0.00    +0.000 C 
ATOM     22  C   UNL     1       8.700  11.600  17.663  0.00  0.00    +0.000 C 
ENDBRANCH  16  17
ENDBRANCH  15  16
ENDBRANCH   3  15
TORSDOF 6
ENDMDL
MODEL 8
REMARK VINA RESULT:      -7.3      1.130      1.863
REMARK  Name = 
REMARK  8 active torsions:
REMARK  status: ('A' for Active; 'I' for Inactive)
REMARK    1  A    between atoms: C_1  and  C_2
REMARK    2  A    between atoms: C_5  and  S_6
REMARK    3  A    between atoms: S_6  and  C_7
REMARK    4  A    between atoms: C_7  and  C_8
REMARK    5  A    between atoms: C_7  and  C_9
REMARK    6  A    between atoms: N_11  and  C_12
REMARK    7  A    between atoms: C_12  and  C_13
REMARK    8  A    between atoms: C_13  and  C_14
REMARK                            x       y       z     vdW  Elec       q    Type
REMARK                         _______ _______ _______ _____ _____    ______ ____
ROOT
ATOM      1  C   UNL     1       6.825   6.734  16.910  0.00  0.00    +0.000 C 
ATOM      2  O   UNL     1       7.785   6.486  16.177  0.00  0.00    +0.000 OA
ATOM      3  N   UNL     1       6.812   7.856  17.720  0.00  0.00    +0.000 N 
ATOM      4  H   UNL     1       6.012   8.037  18.315  0.00  0.00    +0.000 HD
ENDROOT
BRANCH   1   5
ATOM      5  C   UNL     1       5.604   5.801  17.018  0.00  0.00    +0.000 C 
ATOM      6  C   UNL     1       5.431   5.034  15.707  0.00  0.00    +0.000 C 
BRANCH   5   7
ATOM      7  S   UNL     1       4.108   6.829  17.362  0.00  0.00    +0.000 S 
BRANCH   7  12
ATOM      8  C   UNL     1       0.982   2.934  20.888  0.00  0.00    +0.000 C 
ATOM      9  C   UNL     1       1.698   3.929  20.019  0.00  0.00    +0.000 A 
ATOM     10  C   UNL     1       1.469   3.970  18.638  0.00  0.00    +0.000 A 
ATOM     11  C   UNL     1       2.171   4.871  17.826  0.00  0.00    +0.000 A 
ATOM     12  C   UNL     1       3.109   5.746  18.379  0.00  0.00    +0.000 A 
ATOM     13  C   UNL     1       3.338   5.703  19.761  0.00  0.00    +0.000 A 
ATOM     14  C   UNL     1       2.635   4.801  20.574  0.00  0.00    +0.000 A 
ENDBRANCH   7  12
ENDBRANCH   5   7
ENDBRANCH   1   5
BRANCH   3  15
ATOM     15  C   UNL     1       7.911   8.806  17.646  0.00  0.00    +0.000 C 
BRANCH  15  16
ATOM     16  C   UNL     1       8.749   8.898  18.925  0.00  0.00    +0.000 C 
BRANCH  16  17
ATOM     17  C   UNL     1       9.340  10.279  19.156  0.00  0.00    +0.000 C 
ATOM     18  C   UNL     1       9.545  10.760  20.398  0.00  0.00    +0.000 C 
ATOM     19  C   UNL     1      10.096  12.128  20.690  0.00  0.00    +0.000 C 
ATOM     20  C   UNL     1      10.077  13.054  19.477  0.00  0.00    +0.000 C 
ATOM     21  C   UNL     1      10.570  12.326  18.233  0.00  0.00    +0.000 C 
ATOM     22  C   UNL     1       9.707  11.094  17.931  0.00  0.00    +0.000 C 
ENDBRANCH  16  17
ENDBRANCH  15  16
ENDBRANCH   3  15
TORSDOF 6
ENDMDL
MODEL 9
REMARK VINA RESULT:      -7.3      1.419      1.716
REMARK  Name = 
REMARK  8 active torsions:
REMARK  status: ('A' for Active; 'I' for Inactive)
REMARK    1  A    between atoms: C_1  and  C_2
REMARK    2  A    between atoms: C_5  and  S_6
REMARK    3  A    between atoms: S_6  and  C_7
REMARK    4  A    between atoms: C_7  and  C_8
REMARK    5  A    between atoms: C_7  and  C_9
REMARK    6  A    between atoms: N_11  and  C_12
REMARK    7  A    between atoms: C_12  and  C_13
REMARK    8  A    between atoms: C_13  and  C_14
REMARK                            x       y       z     vdW  Elec       q    Type
REMARK                         _______ _______ _______ _____ _____    ______ ____
ROOT
ATOM      1  C   UNL     1       7.050   5.864  17.022  0.00  0.00    +0.000 C 
ATOM      2  O   UNL     1       7.746   6.125  16.039  0.00  0.00    +0.000 OA
ATOM      3  N   UNL     1       7.255   6.497  18.235  0.00  0.00    +0.000 N 
ATOM      4  H   UNL     1       6.671   6.264  19.030  0.00  0.00    +0.000 HD
ENDROOT
BRANCH   1   5
ATOM      5  C   UNL     1       5.945   4.791  16.992  0.00  0.00    +0.000 C 
ATOM      6  C   UNL     1       6.018   4.022  15.672  0.00  0.00    +0.000 C 
BRANCH   5   7
ATOM      7  S   UNL     1       4.307   5.630  17.155  0.00  0.00    +0.000 S 
BRANCH   7  12
ATOM      8  C   UNL     1       1.542   2.571  21.670  0.00  0.00    +0.000 C 
ATOM      9  C   UNL     1       2.207   3.273  20.520  0.00  0.00    +0.000 A 
ATOM     10  C   UNL     1       3.492   2.906  20.103  0.00  0.00    +0.000 A 
ATOM     11  C   UNL     1       4.126   3.593  19.058  0.00  0.00    +0.000 A 
ATOM     12  C   UNL     1       3.487   4.654  18.413  0.00  0.00    +0.000 A 
ATOM     13  C   UNL     1       2.201   5.021  18.833  0.00  0.00    +0.000 A 
ATOM     14  C   UNL     1       1.567   4.334  19.878  0.00  0.00    +0.000 A 
ENDBRANCH   7  12
ENDBRANCH   5   7
ENDBRANCH   1   5
BRANCH   3  15
ATOM     15  C   UNL     1       8.254   7.551  18.334  0.00  0.00    +0.000 C 
BRANCH  15  16
ATOM     16  C   UNL     1       7.843   8.869  17.671  0.00  0.00    +0.000 C 
BRANCH  16  17
ATOM     17  C   UNL     1       8.561  10.079  18.247  0.00  0.00    +0.000 C 
ATOM     18  C   UNL     1       8.495  11.287  17.653  0.00  0.00    +0.000 C 
ATOM     19  C   UNL     1       9.208  12.511  18.157  0.00  0.00    +0.000 C 
ATOM     20  C   UNL     1      10.286  12.195  19.191  0.00  0.00    +0.000 C 
ATOM     21  C   UNL     1       9.778  11.184  20.209  0.00  0.00    +0.000 C 
ATOM     22  C   UNL     1       9.345   9.878  19.529  0.00  0.00    +0.000 C 
ENDBRANCH  16  17
ENDBRANCH  15  16
ENDBRANCH   3  15
TORSDOF 6
ENDMDL
