MODEL 1
REMARK VINA RESULT:      -7.0      0.000      0.000
REMARK  Name = 
REMARK  4 active torsions:
REMARK  status: ('A' for Active; 'I' for Inactive)
REMARK    1  A    between atoms: C_2  and  OXT_3
REMARK    2  A    between atoms: C_2  and  CA_4
REMARK    3  A    between atoms: C_13  and  C_14
REMARK    4  A    between atoms: C_14  and  O_15
REMARK                            x       y       z     vdW  Elec       q    Type
REMARK                         _______ _______ _______ _____ _____    ______ ____
ROOT
ATOM      1  CA  UNL     1       6.113   4.657  17.752  0.00  0.00    +0.000 A 
ATOM      2  N   UNL     1       5.645   3.612  18.518  0.00  0.00    +0.000 N 
ATOM      3  C   UNL     1       4.457   3.932  19.120  0.00  0.00    +0.000 A 
ATOM      4  C   UNL     1       3.662   3.181  19.998  0.00  0.00    +0.000 A 
ATOM      5  C   UNL     1       2.468   3.758  20.436  0.00  0.00    +0.000 A 
ATOM      6 CL   UNL     1       1.448   2.871  21.504  0.00  0.00    +0.000 Cl
ATOM      7  C   UNL     1       2.084   5.030  20.022  0.00  0.00    +0.000 A 
ATOM      8  C   UNL     1       2.897   5.766  19.150  0.00  0.00    +0.000 A 
ATOM      9  C   UNL     1       4.110   5.212  18.690  0.00  0.00    +0.000 A 
ATOM     10  C   UNL     1       5.153   5.666  17.817  0.00  0.00    +0.000 A 
ATOM     11  H   UNL     1       6.136   2.732  18.624  0.00  0.00    +0.000 HD
ENDROOT
BRANCH   1  13
ATOM     12  O   UNL     1       7.500   4.795  15.853  0.00  0.00    +0.000 OA
ATOM     13  C   UNL     1       7.364   4.530  17.039  0.00  0.00    +0.000 C 
BRANCH  13  14
ATOM     14  OXT UNL     1       8.371   4.034  17.788  0.00  0.00    +0.000 OA
ATOM     15  HXT UNL     1       8.097   3.340  18.431  0.00  0.00    +0.000 HD
ENDBRANCH  13  14
ENDBRANCH   1  13
BRANCH  10  16
ATOM     16  C   UNL     1       5.187   6.965  17.093  0.00  0.00    +0.000 C 
BRANCH  16  17
ATOM     17  O   UNL     1       5.213   6.717  15.687  0.00  0.00    +0.000 OA
ATOM     18  H   UNL     1       4.862   7.528  15.271  0.00  0.00    +0.000 HD
ENDBRANCH  16  17
ENDBRANCH  10  16
TORSDOF 4
ENDMDL
MODEL 2
REMARK VINA RESULT:      -6.8      1.412      1.664
REMARK  Name = 
REMARK  4 active torsions:
REMARK  status: ('A' for Active; 'I' for Inactive)
REMARK    1  A    between atoms: C_2  and  OXT_3
REMARK    2  A    between atoms: C_2  and  CA_4
REMARK    3  A    between atoms: C_13  and  C_14
REMARK    4  A    between atoms: C_14  and  O_15
REMARK                            x       y       z     vdW  Elec       q    Type
REMARK                         _______ _______ _______ _____ _____    ______ ____
ROOT
ATOM      1  CA  UNL     1       6.161   4.465  17.725  0.00  0.00    +0.000 A 
ATOM      2  N   UNL     1       5.696   4.085  18.964  0.00  0.00    +0.000 N 
ATOM      3  C   UNL     1       4.354   3.811  18.928  0.00  0.00    +0.000 A 
ATOM      4  C   UNL     1       3.485   3.426  19.959  0.00  0.00    +0.000 A 
ATOM      5  C   UNL     1       2.154   3.182  19.619  0.00  0.00    +0.000 A 
ATOM      6 CL   UNL     1       1.049   2.691  20.846  0.00  0.00    +0.000 Cl
ATOM      7  C   UNL     1       1.704   3.319  18.309  0.00  0.00    +0.000 A 
ATOM      8  C   UNL     1       2.587   3.712  17.295  0.00  0.00    +0.000 A 
ATOM      9  C   UNL     1       3.939   3.968  17.606  0.00  0.00    +0.000 A 
ATOM     10  C   UNL     1       5.085   4.371  16.844  0.00  0.00    +0.000 A 
ATOM     11  H   UNL     1       6.281   4.033  19.790  0.00  0.00    +0.000 HD
ENDROOT
BRANCH   1  13
ATOM     12  O   UNL     1       8.479   4.053  17.801  0.00  0.00    +0.000 OA
ATOM     13  C   UNL     1       7.554   4.811  17.548  0.00  0.00    +0.000 C 
BRANCH  13  14
ATOM     14  OXT UNL     1       7.752   6.079  17.128  0.00  0.00    +0.000 OA
ATOM     15  HXT UNL     1       8.037   6.702  17.835  0.00  0.00    +0.000 HD
ENDBRANCH  13  14
ENDBRANCH   1  13
BRANCH  10  16
ATOM     16  C   UNL     1       5.120   4.618  15.377  0.00  0.00    +0.000 C 
BRANCH  16  17
ATOM     17  O   UNL     1       5.460   5.985  15.141  0.00  0.00    +0.000 OA
ATOM     18  H   UNL     1       5.306   6.133  14.188  0.00  0.00    +0.000 HD
ENDBRANCH  16  17
ENDBRANCH  10  16
TORSDOF 4
ENDMDL
MODEL 3
REMARK VINA RESULT:      -6.7      1.545      1.750
REMARK  Name = 
REMARK  4 active torsions:
REMARK  status: ('A' for Active; 'I' for Inactive)
REMARK    1  A    between atoms: C_2  and  OXT_3
REMARK    2  A    between atoms: C_2  and  CA_4
REMARK    3  A    between atoms: C_13  and  C_14
REMARK    4  A    between atoms: C_14  and  O_15
REMARK                            x       y       z     vdW  Elec       q    Type
REMARK                         _______ _______ _______ _____ _____    ______ ____
ROOT
ATOM      1  CA  UNL     1       5.838   4.473  16.849  0.00  0.00    +0.000 A 
ATOM      2  N   UNL     1       5.221   3.285  17.174  0.00  0.00    +0.000 N 
ATOM      3  C   UNL     1       3.927   3.492  17.574  0.00  0.00    +0.000 A 
ATOM      4  C   UNL     1       2.964   2.574  18.016  0.00  0.00    +0.000 A 
ATOM      5  C   UNL     1       1.699   3.072  18.334  0.00  0.00    +0.000 A 
ATOM      6 CL   UNL     1       0.475   1.984  18.868  0.00  0.00    +0.000 Cl
ATOM      7  C   UNL     1       1.406   4.428  18.220  0.00  0.00    +0.000 A 
ATOM      8  C   UNL     1       2.385   5.330  17.783  0.00  0.00    +0.000 A 
ATOM      9  C   UNL     1       3.674   4.858  17.456  0.00  0.00    +0.000 A 
ATOM     10  C   UNL     1       4.880   5.476  16.987  0.00  0.00    +0.000 A 
ATOM     11  H   UNL     1       5.683   2.385  17.132  0.00  0.00    +0.000 HD
ENDROOT
BRANCH   1  13
ATOM     12  O   UNL     1       8.160   4.209  17.141  0.00  0.00    +0.000 OA
ATOM     13  C   UNL     1       7.216   4.479  16.413  0.00  0.00    +0.000 C 
BRANCH  13  14
ATOM     14  OXT UNL     1       7.381   4.868  15.130  0.00  0.00    +0.000 OA
ATOM     15  HXT UNL     1       7.724   5.785  15.024  0.00  0.00    +0.000 HD
ENDBRANCH  13  14
ENDBRANCH   1  13
BRANCH  10  16
ATOM     16  C   UNL     1       5.063   6.920  16.681  0.00  0.00    +0.000 C 
BRANCH  16  17
ATOM     17  O   UNL     1       5.193   7.086  15.268  0.00  0.00    +0.000 OA
ATOM     18  H   UNL     1       5.746   7.881  15.147  0.00  0.00    +0.000 HD
ENDBRANCH  16  17
ENDBRANCH  10  16
TORSDOF 4
ENDMDL
MODEL 4
REMARK VINA RESULT:      -6.7      1.913      2.363
REMARK  Name = 
REMARK  4 active torsions:
REMARK  status: ('A' for Active; 'I' for Inactive)
REMARK    1  A    between atoms: C_2  and  OXT_3
REMARK    2  A    between atoms: C_2  and  CA_4
REMARK    3  A    between atoms: C_13  and  C_14
REMARK    4  A    between atoms: C_14  and  O_15
REMARK                            x       y       z     vdW  Elec       q    Type
REMARK                         _______ _______ _______ _____ _____    ______ ____
ROOT
ATOM      1  CA  UNL     1       6.573   5.338  18.682  0.00  0.00    +0.000 A 
ATOM      2  N   UNL     1       5.539   5.157  19.573  0.00  0.00    +0.000 N 
ATOM      3  C   UNL     1       4.479   4.522  18.980  0.00  0.00    +0.000 A 
ATOM      4  C   UNL     1       3.228   4.173  19.509  0.00  0.00    +0.000 A 
ATOM      5  C   UNL     1       2.342   3.496  18.669  0.00  0.00    +0.000 A 
ATOM      6 CL   UNL     1       0.798   3.031  19.275  0.00  0.00    +0.000 Cl
ATOM      7  C   UNL     1       2.685   3.181  17.357  0.00  0.00    +0.000 A 
ATOM      8  C   UNL     1       3.938   3.545  16.846  0.00  0.00    +0.000 A 
ATOM      9  C   UNL     1       4.855   4.232  17.669  0.00  0.00    +0.000 A 
ATOM     10  C   UNL     1       6.184   4.740  17.485  0.00  0.00    +0.000 A 
ATOM     11  H   UNL     1       5.568   5.471  20.536  0.00  0.00    +0.000 HD
ENDROOT
BRANCH   1  13
ATOM     12  O   UNL     1       8.217   7.023  18.587  0.00  0.00    +0.000 OA
ATOM     13  C   UNL     1       7.786   6.002  19.104  0.00  0.00    +0.000 C 
BRANCH  13  14
ATOM     14  OXT UNL     1       8.444   5.359  20.093  0.00  0.00    +0.000 OA
ATOM     15  HXT UNL     1       8.511   4.385  19.971  0.00  0.00    +0.000 HD
ENDBRANCH  13  14
ENDBRANCH   1  13
BRANCH  10  16
ATOM     16  C   UNL     1       7.003   4.623  16.248  0.00  0.00    +0.000 C 
BRANCH  16  17
ATOM     17  O   UNL     1       7.389   5.929  15.818  0.00  0.00    +0.000 OA
ATOM     18  H   UNL     1       7.099   5.996  14.888  0.00  0.00    +0.000 HD
ENDBRANCH  16  17
ENDBRANCH  10  16
TORSDOF 4
ENDMDL
MODEL 5
REMARK VINA RESULT:      -6.6      1.383      1.569
REMARK  Name = 
REMARK  4 active torsions:
REMARK  status: ('A' for Active; 'I' for Inactive)
REMARK    1  A    between atoms: C_2  and  OXT_3
REMARK    2  A    between atoms: C_2  and  CA_4
REMARK    3  A    between atoms: C_13  and  C_14
REMARK    4  A    between atoms: C_14  and  O_15
REMARK                            x       y       z     vdW  Elec       q    Type
REMARK                         _______ _______ _______ _____ _____    ______ ____
ROOT
ATOM      1  CA  UNL     1       6.105   4.633  18.108  0.00  0.00    +0.000 A 
ATOM      2  N   UNL     1       5.468   3.481  18.511  0.00  0.00    +0.000 N 
ATOM      3  C   UNL     1       4.106   3.614  18.434  0.00  0.00    +0.000 A 
ATOM      4  C   UNL     1       3.092   2.706  18.773  0.00  0.00    +0.000 A 
ATOM      5  C   UNL     1       1.772   3.108  18.558  0.00  0.00    +0.000 A 
ATOM      6 CL   UNL     1       0.490   2.025  18.943  0.00  0.00    +0.000 Cl
ATOM      7  C   UNL     1       1.474   4.361  18.031  0.00  0.00    +0.000 A 
ATOM      8  C   UNL     1       2.502   5.256  17.706  0.00  0.00    +0.000 A 
ATOM      9  C   UNL     1       3.846   4.881  17.913  0.00  0.00    +0.000 A 
ATOM     10  C   UNL     1       5.111   5.521  17.698  0.00  0.00    +0.000 A 
ATOM     11  H   UNL     1       5.957   2.654  18.833  0.00  0.00    +0.000 HD
ENDROOT
BRANCH   1  13
ATOM     12  O   UNL     1       8.198   5.079  19.091  0.00  0.00    +0.000 OA
ATOM     13  C   UNL     1       7.548   4.707  18.125  0.00  0.00    +0.000 C 
BRANCH  13  14
ATOM     14  OXT UNL     1       8.125   4.382  16.948  0.00  0.00    +0.000 OA
ATOM     15  HXT UNL     1       7.753   3.577  16.521  0.00  0.00    +0.000 HD
ENDBRANCH  13  14
ENDBRANCH   1  13
BRANCH  10  16
ATOM     16  C   UNL     1       5.322   6.874  17.117  0.00  0.00    +0.000 C 
BRANCH  16  17
ATOM     17  O   UNL     1       5.469   6.759  15.701  0.00  0.00    +0.000 OA
ATOM     18  H   UNL     1       5.530   7.674  15.368  0.00  0.00    +0.000 HD
ENDBRANCH  16  17
ENDBRANCH  10  16
TORSDOF 4
ENDMDL
MODEL 6
REMARK VINA RESULT:      -6.6      1.639      1.639
REMARK  Name = 
REMARK  4 active torsions:
REMARK  status: ('A' for Active; 'I' for Inactive)
REMARK    1  A    between atoms: C_2  and  OXT_3
REMARK    2  A    between atoms: C_2  and  CA_4
REMARK    3  A    between atoms: C_13  and  C_14
REMARK    4  A    between atoms: C_14  and  O_15
REMARK                            x       y       z     vdW  Elec       q    Type
REMARK                         _______ _______ _______ _____ _____    ______ ____
ROOT
ATOM      1  CA  UNL     1       5.864   4.668  16.746  0.00  0.00    +0.000 A 
ATOM      2  N   UNL     1       5.239   3.461  16.967  0.00  0.00    +0.000 N 
ATOM      3  C   UNL     1       3.969   3.642  17.450  0.00  0.00    +0.000 A 
ATOM      4  C   UNL     1       3.009   2.695  17.834  0.00  0.00    +0.000 A 
ATOM      5  C   UNL     1       1.771   3.174  18.267  0.00  0.00    +0.000 A 
ATOM      6 CL   UNL     1       0.551   2.052  18.735  0.00  0.00    +0.000 Cl
ATOM      7  C   UNL     1       1.502   4.538  18.320  0.00  0.00    +0.000 A 
ATOM      8  C   UNL     1       2.478   5.469  17.939  0.00  0.00    +0.000 A 
ATOM      9  C   UNL     1       3.740   5.016  17.498  0.00  0.00    +0.000 A 
ATOM     10  C   UNL     1       4.935   5.664  17.043  0.00  0.00    +0.000 A 
ATOM     11  H   UNL     1       5.679   2.564  16.802  0.00  0.00    +0.000 HD
ENDROOT
BRANCH   1  13
ATOM     12  O   UNL     1       7.534   5.176  15.165  0.00  0.00    +0.000 OA
ATOM     13  C   UNL     1       7.220   4.701  16.246  0.00  0.00    +0.000 C 
BRANCH  13  14
ATOM     14  OXT UNL     1       8.117   4.103  17.060  0.00  0.00    +0.000 OA
ATOM     15  HXT UNL     1       8.084   3.119  17.048  0.00  0.00    +0.000 HD
ENDBRANCH  13  14
ENDBRANCH   1  13
BRANCH  10  16
ATOM     16  C   UNL     1       5.134   7.131  16.891  0.00  0.00    +0.000 C 
BRANCH  16  17
ATOM     17  O   UNL     1       6.520   7.435  17.059  0.00  0.00    +0.000 OA
ATOM     18  H   UNL     1       6.657   7.506  18.023  0.00  0.00    +0.000 HD
ENDBRANCH  16  17
ENDBRANCH  10  16
TORSDOF 4
ENDMDL
MODEL 7
REMARK VINA RESULT:      -6.5      1.782      2.620
REMARK  Name = 
REMARK  4 active torsions:
REMARK  status: ('A' for Active; 'I' for Inactive)
REMARK    1  A    between atoms: C_2  and  OXT_3
REMARK    2  A    between atoms: C_2  and  CA_4
REMARK    3  A    between atoms: C_13  and  C_14
REMARK    4  A    between atoms: C_14  and  O_15
REMARK                            x       y       z     vdW  Elec       q    Type
REMARK                         _______ _______ _______ _____ _____    ______ ____
ROOT
ATOM      1  CA  UNL     1       5.890   4.258  16.045  0.00  0.00    +0.000 A 
ATOM      2  N   UNL     1       4.580   3.864  15.888  0.00  0.00    +0.000 N 
ATOM      3  C   UNL     1       3.955   3.727  17.100  0.00  0.00    +0.000 A 
ATOM      4  C   UNL     1       2.646   3.318  17.397  0.00  0.00    +0.000 A 
ATOM      5  C   UNL     1       2.268   3.301  18.741  0.00  0.00    +0.000 A 
ATOM      6 CL   UNL     1       0.667   2.822  19.158  0.00  0.00    +0.000 Cl
ATOM      7  C   UNL     1       3.156   3.669  19.747  0.00  0.00    +0.000 A 
ATOM      8  C   UNL     1       4.461   4.067  19.429  0.00  0.00    +0.000 A 
ATOM      9  C   UNL     1       4.874   4.094  18.081  0.00  0.00    +0.000 A 
ATOM     10  C   UNL     1       6.095   4.441  17.412  0.00  0.00    +0.000 A 
ATOM     11  H   UNL     1       4.152   3.689  14.987  0.00  0.00    +0.000 HD
ENDROOT
BRANCH   1  13
ATOM     12  O   UNL     1       7.592   5.316  14.808  0.00  0.00    +0.000 OA
ATOM     13  C   UNL     1       6.733   4.450  14.887  0.00  0.00    +0.000 C 
BRANCH  13  14
ATOM     14  OXT UNL     1       6.450   3.618  13.862  0.00  0.00    +0.000 OA
ATOM     15  HXT UNL     1       5.648   3.062  13.998  0.00  0.00    +0.000 HD
ENDBRANCH  13  14
ENDBRANCH   1  13
BRANCH  10  16
ATOM     16  C   UNL     1       7.342   4.930  18.060  0.00  0.00    +0.000 C 
BRANCH  16  17
ATOM     17  O   UNL     1       8.414   4.041  17.743  0.00  0.00    +0.000 OA
ATOM     18  H   UNL     1       8.699   4.285  16.842  0.00  0.00    +0.000 HD
ENDBRANCH  16  17
ENDBRANCH  10  16
TORSDOF 4
ENDMDL
MODEL 8
REMARK VINA RESULT:      -6.4      1.462      1.682
REMARK  Name = 
REMARK  4 active torsions:
REMARK  status: ('A' for Active; 'I' for Inactive)
REMARK    1  A    between atoms: C_2  and  OXT_3
REMARK    2  A    between atoms: C_2  and  CA_4
REMARK    3  A    between atoms: C_13  and  C_14
REMARK    4  A    between atoms: C_14  and  O_15
REMARK                            x       y       z     vdW  Elec       q    Type
REMARK                         _______ _______ _______ _____ _____    ______ ____
ROOT
ATOM      1  CA  UNL     1       5.509   4.362  16.246  0.00  0.00    +0.000 A 
ATOM      2  N   UNL     1       4.928   3.265  16.842  0.00  0.00    +0.000 N 
ATOM      3  C   UNL     1       3.926   3.639  17.699  0.00  0.00    +0.000 A 
ATOM      4  C   UNL     1       3.107   2.855  18.524  0.00  0.00    +0.000 A 
ATOM      5  C   UNL     1       2.135   3.515  19.279  0.00  0.00    +0.000 A 
ATOM      6 CL   UNL     1       1.093   2.595  20.297  0.00  0.00    +0.000 Cl
ATOM      7  C   UNL     1       1.988   4.897  19.220  0.00  0.00    +0.000 A 
ATOM      8  C   UNL     1       2.822   5.663  18.395  0.00  0.00    +0.000 A 
ATOM      9  C   UNL     1       3.815   5.027  17.620  0.00  0.00    +0.000 A 
ATOM     10  C   UNL     1       4.809   5.482  16.693  0.00  0.00    +0.000 A 
ATOM     11  H   UNL     1       5.224   2.312  16.670  0.00  0.00    +0.000 HD
ENDROOT
BRANCH   1  13
ATOM     12  O   UNL     1       7.675   4.759  15.411  0.00  0.00    +0.000 OA
ATOM     13  C   UNL     1       6.599   4.187  15.313  0.00  0.00    +0.000 C 
BRANCH  13  14
ATOM     14  OXT UNL     1       6.305   3.373  14.276  0.00  0.00    +0.000 OA
ATOM     15  HXT UNL     1       5.636   3.735  13.651  0.00  0.00    +0.000 HD
ENDBRANCH  13  14
ENDBRANCH   1  13
BRANCH  10  16
ATOM     16  C   UNL     1       5.033   6.890  16.268  0.00  0.00    +0.000 C 
BRANCH  16  17
ATOM     17  O   UNL     1       6.350   7.290  16.649  0.00  0.00    +0.000 OA
ATOM     18  H   UNL     1       6.231   8.060  17.237  0.00  0.00    +0.000 HD
ENDBRANCH  16  17
ENDBRANCH  10  16
TORSDOF 4
ENDMDL
MODEL 9
REMARK VINA RESULT:      -6.4      1.842      2.164
REMARK  Name = 
REMARK  4 active torsions:
REMARK  status: ('A' for Active; 'I' for Inactive)
REMARK    1  A    between atoms: C_2  and  OXT_3
REMARK    2  A    between atoms: C_2  and  CA_4
REMARK    3  A    between atoms: C_13  and  C_14
REMARK    4  A    between atoms: C_14  and  O_15
REMARK                            x       y       z     vdW  Elec       q    Type
REMARK                         _______ _______ _______ _____ _____    ______ ____
ROOT
ATOM      1  CA  UNL     1       5.946   4.669  16.049  0.00  0.00    +0.000 A 
ATOM      2  N   UNL     1       4.690   4.106  16.089  0.00  0.00    +0.000 N 
ATOM      3  C   UNL     1       4.093   4.311  17.305  0.00  0.00    +0.000 A 
ATOM      4  C   UNL     1       2.843   3.887  17.778  0.00  0.00    +0.000 A 
ATOM      5  C   UNL     1       2.478   4.275  19.068  0.00  0.00    +0.000 A 
ATOM      6 CL   UNL     1       0.946   3.792  19.690  0.00  0.00    +0.000 Cl
ATOM      7  C   UNL     1       3.323   5.049  19.857  0.00  0.00    +0.000 A 
ATOM      8  C   UNL     1       4.572   5.457  19.369  0.00  0.00    +0.000 A 
ATOM      9  C   UNL     1       4.970   5.080  18.069  0.00  0.00    +0.000 A 
ATOM     10  C   UNL     1       6.138   5.314  17.270  0.00  0.00    +0.000 A 
ATOM     11  H   UNL     1       4.280   3.597  15.315  0.00  0.00    +0.000 HD
ENDROOT
BRANCH   1  13
ATOM     12  O   UNL     1       7.618   5.361  14.542  0.00  0.00    +0.000 OA
ATOM     13  C   UNL     1       6.755   4.555  14.856  0.00  0.00    +0.000 C 
BRANCH  13  14
ATOM     14  OXT UNL     1       6.432   3.500  14.077  0.00  0.00    +0.000 OA
ATOM     15  HXT UNL     1       6.708   2.627  14.439  0.00  0.00    +0.000 HD
ENDBRANCH  13  14
ENDBRANCH   1  13
BRANCH  10  16
ATOM     16  C   UNL     1       7.324   6.122  17.665  0.00  0.00    +0.000 C 
BRANCH  16  17
ATOM     17  O   UNL     1       7.368   7.308  16.871  0.00  0.00    +0.000 OA
ATOM     18  H   UNL     1       6.640   7.870  17.197  0.00  0.00    +0.000 HD
ENDBRANCH  16  17
ENDBRANCH  10  16
TORSDOF 4
ENDMDL
