MODEL 1
REMARK VINA RESULT:      -8.1      0.000      0.000
REMARK  Name = 
REMARK  7 active torsions:
REMARK  status: ('A' for Active; 'I' for Inactive)
REMARK    1  A    between atoms: C_1  and  C_2
REMARK    2  A    between atoms: C_2  and  C_3
REMARK    3  A    between atoms: C_3  and  C_4
REMARK    4  A    between atoms: C_4  and  C_5
REMARK    5  A    between atoms: C_5  and  C_6
REMARK    6  A    between atoms: C_6  and  N_7
REMARK    7  A    between atoms: C_17  and  C_19
REMARK                            x       y       z     vdW  Elec       q    Type
REMARK                         _______ _______ _______ _____ _____    ______ ____
ROOT
ATOM      1  N   UNL     1       6.379   4.225  14.140  0.00  0.00    +0.000 N 
ATOM      2  C   UNL     1       6.486   5.168  15.127  0.00  0.00    +0.000 C 
ATOM      3  O   UNL     1       7.466   5.913  15.204  0.00  0.00    +0.000 OA
ATOM      4  N   UNL     1       5.390   5.261  16.009  0.00  0.00    +0.000 N 
ATOM      5  C   UNL     1       5.271   6.456  16.691  0.00  0.00    +0.000 A 
ATOM      6  C   UNL     1       4.304   6.677  17.569  0.00  0.00    +0.000 A 
ATOM      7  F   UNL     1       4.168   7.858  18.196  0.00  0.00    +0.000 F 
ATOM      8  C   UNL     1       3.320   5.630  17.868  0.00  0.00    +0.000 A 
ATOM      9  O   UNL     1       2.340   5.933  18.543  0.00  0.00    +0.000 OA
ATOM     10  N   UNL     1       3.585   4.377  17.321  0.00  0.00    +0.000 N 
ATOM     11  C   UNL     1       2.815   3.278  17.723  0.00  0.00    +0.000 C 
ATOM     12  O   UNL     1       2.336   2.445  16.953  0.00  0.00    +0.000 OA
ATOM     13  C   UNL     1       4.528   4.176  16.297  0.00  0.00    +0.000 A 
ATOM     14  O   UNL     1       4.623   3.119  15.665  0.00  0.00    +0.000 OA
ATOM     15  H   UNL     1       5.698   3.481  14.289  0.00  0.00    +0.000 HD
ENDROOT
BRANCH  11  16
ATOM     16  C   UNL     1       2.392   3.196  19.161  0.00  0.00    +0.000 A 
ATOM     17  C   UNL     1       3.354   2.936  20.148  0.00  0.00    +0.000 A 
ATOM     18  C   UNL     1       2.943   2.679  21.460  0.00  0.00    +0.000 A 
ATOM     19  C   UNL     1       1.587   2.693  21.790  0.00  0.00    +0.000 A 
ATOM     20  C   UNL     1       0.642   3.027  20.823  0.00  0.00    +0.000 A 
ATOM     21  C   UNL     1       1.044   3.303  19.527  0.00  0.00    +0.000 A 
ENDBRANCH  11  16
BRANCH   1  22
ATOM     22  C   UNL     1       7.424   3.997  13.163  0.00  0.00    +0.000 C 
BRANCH  22  23
ATOM     23  C   UNL     1       6.860   3.693  11.777  0.00  0.00    +0.000 C 
BRANCH  23  24
ATOM     24  C   UNL     1       5.619   2.799  11.848  0.00  0.00    +0.000 C 
BRANCH  24  25
ATOM     25  C   UNL     1       4.332   3.610  11.718  0.00  0.00    +0.000 C 
BRANCH  25  27
ATOM     26  C   UNL     1       2.996   4.164   9.657  0.00  0.00    +0.000 C 
ATOM     27  C   UNL     1       3.447   3.060  10.599  0.00  0.00    +0.000 C 
ENDBRANCH  25  27
ENDBRANCH  24  25
ENDBRANCH  23  24
ENDBRANCH  22  23
ENDBRANCH   1  22
TORSDOF 6
ENDMDL
MODEL 2
REMARK VINA RESULT:      -8.0      1.254      1.554
REMARK  Name = 
REMARK  7 active torsions:
REMARK  status: ('A' for Active; 'I' for Inactive)
REMARK    1  A    between atoms: C_1  and  C_2
REMARK    2  A    between atoms: C_2  and  C_3
REMARK    3  A    between atoms: C_3  and  C_4
REMARK    4  A    between atoms: C_4  and  C_5
REMARK    5  A    between atoms: C_5  and  C_6
REMARK    6  A    between atoms: C_6  and  N_7
REMARK    7  A    between atoms: C_17  and  C_19
REMARK                            x       y       z     vdW  Elec       q    Type
REMARK                         _______ _______ _______ _____ _____    ______ ____
ROOT
ATOM      1  N   UNL     1       6.214   4.539  14.013  0.00  0.00    +0.000 N 
ATOM      2  C   UNL     1       6.889   4.624  15.200  0.00  0.00    +0.000 C 
ATOM      3  O   UNL     1       8.120   4.588  15.247  0.00  0.00    +0.000 OA
ATOM      4  N   UNL     1       6.090   4.803  16.349  0.00  0.00    +0.000 N 
ATOM      5  C   UNL     1       6.734   5.334  17.449  0.00  0.00    +0.000 A 
ATOM      6  C   UNL     1       6.116   5.537  18.602  0.00  0.00    +0.000 A 
ATOM      7  F   UNL     1       6.738   6.095  19.655  0.00  0.00    +0.000 F 
ATOM      8  C   UNL     1       4.702   5.176  18.759  0.00  0.00    +0.000 A 
ATOM      9  O   UNL     1       4.121   5.545  19.776  0.00  0.00    +0.000 OA
ATOM     10  N   UNL     1       4.140   4.460  17.705  0.00  0.00    +0.000 N 
ATOM     11  C   UNL     1       2.866   3.900  17.861  0.00  0.00    +0.000 C 
ATOM     12  O   UNL     1       1.966   3.972  17.023  0.00  0.00    +0.000 OA
ATOM     13  C   UNL     1       4.750   4.358  16.442  0.00  0.00    +0.000 A 
ATOM     14  O   UNL     1       4.171   3.909  15.448  0.00  0.00    +0.000 OA
ATOM     15  H   UNL     1       5.223   4.305  14.064  0.00  0.00    +0.000 HD
ENDROOT
BRANCH  11  16
ATOM     16  C   UNL     1       2.502   3.326  19.201  0.00  0.00    +0.000 A 
ATOM     17  C   UNL     1       1.277   3.673  19.789  0.00  0.00    +0.000 A 
ATOM     18  C   UNL     1       1.014   3.289  21.108  0.00  0.00    +0.000 A 
ATOM     19  C   UNL     1       1.956   2.555  21.831  0.00  0.00    +0.000 A 
ATOM     20  C   UNL     1       3.137   2.147  21.216  0.00  0.00    +0.000 A 
ATOM     21  C   UNL     1       3.395   2.507  19.903  0.00  0.00    +0.000 A 
ENDBRANCH  11  16
BRANCH   1  22
ATOM     22  C   UNL     1       6.888   4.342  12.746  0.00  0.00    +0.000 C 
BRANCH  22  23
ATOM     23  C   UNL     1       6.397   3.091  12.020  0.00  0.00    +0.000 C 
BRANCH  23  24
ATOM     24  C   UNL     1       4.876   2.941  12.103  0.00  0.00    +0.000 C 
BRANCH  24  25
ATOM     25  C   UNL     1       4.159   4.014  11.286  0.00  0.00    +0.000 C 
BRANCH  25  27
ATOM     26  C   UNL     1       2.760   4.397   9.229  0.00  0.00    +0.000 C 
ATOM     27  C   UNL     1       3.205   3.385  10.272  0.00  0.00    +0.000 C 
ENDBRANCH  25  27
ENDBRANCH  24  25
ENDBRANCH  23  24
ENDBRANCH  22  23
ENDBRANCH   1  22
TORSDOF 6
ENDMDL
MODEL 3
REMARK VINA RESULT:      -7.8      1.204      1.349
REMARK  Name = 
REMARK  7 active torsions:
REMARK  status: ('A' for Active; 'I' for Inactive)
REMARK    1  A    between atoms: C_1  and  C_2
REMARK    2  A    between atoms: C_2  and  C_3
REMARK    3  A    between atoms: C_3  and  C_4
REMARK    4  A    between atoms: C_4  and  C_5
REMARK    5  A    between atoms: C_5  and  C_6
REMARK    6  A    between atoms: C_6  and  N_7
REMARK    7  A    between atoms: C_17  and  C_19
REMARK                            x       y       z     vdW  Elec       q    Type
REMARK                         _______ _______ _______ _____ _____    ______ ____
ROOT
ATOM      1  N   UNL     1       5.935   4.183  13.940  0.00  0.00    +0.000 N 
ATOM      2  C   UNL     1       6.676   4.415  15.068  0.00  0.00    +0.000 C 
ATOM      3  O   UNL     1       7.908   4.406  15.043  0.00  0.00    +0.000 OA
ATOM      4  N   UNL     1       5.940   4.710  16.235  0.00  0.00    +0.000 N 
ATOM      5  C   UNL     1       6.634   5.375  17.227  0.00  0.00    +0.000 A 
ATOM      6  C   UNL     1       6.079   5.696  18.385  0.00  0.00    +0.000 A 
ATOM      7  F   UNL     1       6.748   6.383  19.329  0.00  0.00    +0.000 F 
ATOM      8  C   UNL     1       4.686   5.331  18.667  0.00  0.00    +0.000 A 
ATOM      9  O   UNL     1       4.156   5.803  19.669  0.00  0.00    +0.000 OA
ATOM     10  N   UNL     1       4.082   4.490  17.737  0.00  0.00    +0.000 N 
ATOM     11  C   UNL     1       2.833   3.929  18.032  0.00  0.00    +0.000 C 
ATOM     12  O   UNL     1       1.884   3.888  17.247  0.00  0.00    +0.000 OA
ATOM     13  C   UNL     1       4.619   4.255  16.458  0.00  0.00    +0.000 A 
ATOM     14  O   UNL     1       3.995   3.685  15.558  0.00  0.00    +0.000 OA
ATOM     15  H   UNL     1       4.954   3.939  14.077  0.00  0.00    +0.000 HD
ENDROOT
BRANCH  11  16
ATOM     16  C   UNL     1       2.561   3.504  19.447  0.00  0.00    +0.000 A 
ATOM     17  C   UNL     1       3.467   2.653  20.096  0.00  0.00    +0.000 A 
ATOM     18  C   UNL     1       3.131   2.111  21.341  0.00  0.00    +0.000 A 
ATOM     19  C   UNL     1       1.911   2.424  21.941  0.00  0.00    +0.000 A 
ATOM     20  C   UNL     1       1.049   3.330  21.327  0.00  0.00    +0.000 A 
ATOM     21  C   UNL     1       1.384   3.887  20.104  0.00  0.00    +0.000 A 
ENDBRANCH  11  16
BRANCH   1  22
ATOM     22  C   UNL     1       6.540   3.855  12.665  0.00  0.00    +0.000 C 
BRANCH  22  23
ATOM     23  C   UNL     1       5.589   3.072  11.762  0.00  0.00    +0.000 C 
BRANCH  23  24
ATOM     24  C   UNL     1       4.289   3.837  11.498  0.00  0.00    +0.000 C 
BRANCH  24  25
ATOM     25  C   UNL     1       3.295   3.000  10.697  0.00  0.00    +0.000 C 
BRANCH  25  27
ATOM     26  C   UNL     1       2.354   4.871   9.301  0.00  0.00    +0.000 C 
ATOM     27  C   UNL     1       3.120   3.559   9.285  0.00  0.00    +0.000 C 
ENDBRANCH  25  27
ENDBRANCH  24  25
ENDBRANCH  23  24
ENDBRANCH  22  23
ENDBRANCH   1  22
TORSDOF 6
ENDMDL
MODEL 4
REMARK VINA RESULT:      -7.7      0.891      1.415
REMARK  Name = 
REMARK  7 active torsions:
REMARK  status: ('A' for Active; 'I' for Inactive)
REMARK    1  A    between atoms: C_1  and  C_2
REMARK    2  A    between atoms: C_2  and  C_3
REMARK    3  A    between atoms: C_3  and  C_4
REMARK    4  A    between atoms: C_4  and  C_5
REMARK    5  A    between atoms: C_5  and  C_6
REMARK    6  A    between atoms: C_6  and  N_7
REMARK    7  A    between atoms: C_17  and  C_19
REMARK                            x       y       z     vdW  Elec       q    Type
REMARK                         _______ _______ _______ _____ _____    ______ ____
ROOT
ATOM      1  N   UNL     1       6.448   4.552  14.209  0.00  0.00    +0.000 N 
ATOM      2  C   UNL     1       6.511   5.466  15.225  0.00  0.00    +0.000 C 
ATOM      3  O   UNL     1       7.468   6.234  15.345  0.00  0.00    +0.000 OA
ATOM      4  N   UNL     1       5.395   5.502  16.088  0.00  0.00    +0.000 N 
ATOM      5  C   UNL     1       5.230   6.672  16.803  0.00  0.00    +0.000 A 
ATOM      6  C   UNL     1       4.240   6.840  17.667  0.00  0.00    +0.000 A 
ATOM      7  F   UNL     1       4.060   7.997  18.327  0.00  0.00    +0.000 F 
ATOM      8  C   UNL     1       3.279   5.758  17.913  0.00  0.00    +0.000 A 
ATOM      9  O   UNL     1       2.278   6.014  18.577  0.00  0.00    +0.000 OA
ATOM     10  N   UNL     1       3.589   4.530  17.334  0.00  0.00    +0.000 N 
ATOM     11  C   UNL     1       2.841   3.399  17.686  0.00  0.00    +0.000 C 
ATOM     12  O   UNL     1       2.400   2.578  16.881  0.00  0.00    +0.000 OA
ATOM     13  C   UNL     1       4.557   4.386  16.324  0.00  0.00    +0.000 A 
ATOM     14  O   UNL     1       4.693   3.353  15.662  0.00  0.00    +0.000 OA
ATOM     15  H   UNL     1       5.785   3.785  14.321  0.00  0.00    +0.000 HD
ENDROOT
BRANCH  11  16
ATOM     16  C   UNL     1       2.392   3.261  19.113  0.00  0.00    +0.000 A 
ATOM     17  C   UNL     1       3.345   3.027  20.115  0.00  0.00    +0.000 A 
ATOM     18  C   UNL     1       2.920   2.718  21.411  0.00  0.00    +0.000 A 
ATOM     19  C   UNL     1       1.559   2.655  21.710  0.00  0.00    +0.000 A 
ATOM     20  C   UNL     1       0.618   2.963  20.730  0.00  0.00    +0.000 A 
ATOM     21  C   UNL     1       1.033   3.290  19.449  0.00  0.00    +0.000 A 
ENDBRANCH  11  16
BRANCH   1  22
ATOM     22  C   UNL     1       7.518   4.382  13.247  0.00  0.00    +0.000 C 
BRANCH  22  23
ATOM     23  C   UNL     1       7.053   3.646  11.992  0.00  0.00    +0.000 C 
BRANCH  23  24
ATOM     24  C   UNL     1       5.593   3.198  12.099  0.00  0.00    +0.000 C 
BRANCH  24  25
ATOM     25  C   UNL     1       5.308   1.990  11.210  0.00  0.00    +0.000 C 
BRANCH  25  27
ATOM     26  C   UNL     1       6.117  -0.392  11.304  0.00  0.00    +0.000 C 
ATOM     27  C   UNL     1       6.521   1.063  11.138  0.00  0.00    +0.000 C 
ENDBRANCH  25  27
ENDBRANCH  24  25
ENDBRANCH  23  24
ENDBRANCH  22  23
ENDBRANCH   1  22
TORSDOF 6
ENDMDL
MODEL 5
REMARK VINA RESULT:      -7.6      0.459      1.051
REMARK  Name = 
REMARK  7 active torsions:
REMARK  status: ('A' for Active; 'I' for Inactive)
REMARK    1  A    between atoms: C_1  and  C_2
REMARK    2  A    between atoms: C_2  and  C_3
REMARK    3  A    between atoms: C_3  and  C_4
REMARK    4  A    between atoms: C_4  and  C_5
REMARK    5  A    between atoms: C_5  and  C_6
REMARK    6  A    between atoms: C_6  and  N_7
REMARK    7  A    between atoms: C_17  and  C_19
REMARK                            x       y       z     vdW  Elec       q    Type
REMARK                         _______ _______ _______ _____ _____    ______ ____
ROOT
ATOM      1  N   UNL     1       6.356   4.616  14.387  0.00  0.00    +0.000 N 
ATOM      2  C   UNL     1       6.335   5.498  15.434  0.00  0.00    +0.000 C 
ATOM      3  O   UNL     1       7.229   6.332  15.592  0.00  0.00    +0.000 OA
ATOM      4  N   UNL     1       5.210   5.419  16.281  0.00  0.00    +0.000 N 
ATOM      5  C   UNL     1       4.947   6.549  17.031  0.00  0.00    +0.000 A 
ATOM      6  C   UNL     1       3.937   6.611  17.886  0.00  0.00    +0.000 A 
ATOM      7  F   UNL     1       3.661   7.729  18.580  0.00  0.00    +0.000 F 
ATOM      8  C   UNL     1       3.060   5.452  18.084  0.00  0.00    +0.000 A 
ATOM      9  O   UNL     1       2.035   5.608  18.742  0.00  0.00    +0.000 OA
ATOM     10  N   UNL     1       3.471   4.271  17.470  0.00  0.00    +0.000 N 
ATOM     11  C   UNL     1       2.808   3.075  17.775  0.00  0.00    +0.000 C 
ATOM     12  O   UNL     1       2.441   2.249  16.938  0.00  0.00    +0.000 OA
ATOM     13  C   UNL     1       4.459   4.235  16.470  0.00  0.00    +0.000 A 
ATOM     14  O   UNL     1       4.681   3.238  15.777  0.00  0.00    +0.000 OA
ATOM     15  H   UNL     1       5.752   3.797  14.465  0.00  0.00    +0.000 HD
ENDROOT
BRANCH  11  16
ATOM     16  C   UNL     1       2.355   2.856  19.189  0.00  0.00    +0.000 A 
ATOM     17  C   UNL     1       0.983   2.864  19.483  0.00  0.00    +0.000 A 
ATOM     18  C   UNL     1       0.564   2.843  20.817  0.00  0.00    +0.000 A 
ATOM     19  C   UNL     1       1.501   2.800  21.850  0.00  0.00    +0.000 A 
ATOM     20  C   UNL     1       2.859   2.714  21.552  0.00  0.00    +0.000 A 
ATOM     21  C   UNL     1       3.280   2.714  20.232  0.00  0.00    +0.000 A 
ENDBRANCH  11  16
BRANCH   1  22
ATOM     22  C   UNL     1       7.447   4.561  13.436  0.00  0.00    +0.000 C 
BRANCH  22  23
ATOM     23  C   UNL     1       7.062   3.812  12.161  0.00  0.00    +0.000 C 
BRANCH  23  24
ATOM     24  C   UNL     1       5.637   3.256  12.232  0.00  0.00    +0.000 C 
BRANCH  24  25
ATOM     25  C   UNL     1       5.015   3.120  10.843  0.00  0.00    +0.000 C 
BRANCH  25  27
ATOM     26  C   UNL     1       2.965   4.059   9.726  0.00  0.00    +0.000 C 
ATOM     27  C   UNL     1       3.495   3.263  10.907  0.00  0.00    +0.000 C 
ENDBRANCH  25  27
ENDBRANCH  24  25
ENDBRANCH  23  24
ENDBRANCH  22  23
ENDBRANCH   1  22
TORSDOF 6
ENDMDL
MODEL 6
REMARK VINA RESULT:      -7.4      4.528      7.779
REMARK  Name = 
REMARK  7 active torsions:
REMARK  status: ('A' for Active; 'I' for Inactive)
REMARK    1  A    between atoms: C_1  and  C_2
REMARK    2  A    between atoms: C_2  and  C_3
REMARK    3  A    between atoms: C_3  and  C_4
REMARK    4  A    between atoms: C_4  and  C_5
REMARK    5  A    between atoms: C_5  and  C_6
REMARK    6  A    between atoms: C_6  and  N_7
REMARK    7  A    between atoms: C_17  and  C_19
REMARK                            x       y       z     vdW  Elec       q    Type
REMARK                         _______ _______ _______ _____ _____    ______ ____
ROOT
ATOM      1  N   UNL     1       0.574   9.668  19.835  0.00  0.00    +0.000 N 
ATOM      2  C   UNL     1       1.019   8.659  20.646  0.00  0.00    +0.000 C 
ATOM      3  O   UNL     1       0.775   8.647  21.854  0.00  0.00    +0.000 OA
ATOM      4  N   UNL     1       1.728   7.623  20.004  0.00  0.00    +0.000 N 
ATOM      5  C   UNL     1       1.781   6.423  20.686  0.00  0.00    +0.000 A 
ATOM      6  C   UNL     1       2.430   5.369  20.215  0.00  0.00    +0.000 A 
ATOM      7  F   UNL     1       2.439   4.191  20.864  0.00  0.00    +0.000 F 
ATOM      8  C   UNL     1       3.147   5.449  18.938  0.00  0.00    +0.000 A 
ATOM      9  O   UNL     1       3.578   4.407  18.450  0.00  0.00    +0.000 OA
ATOM     10  N   UNL     1       3.245   6.720  18.378  0.00  0.00    +0.000 N 
ATOM     11  C   UNL     1       4.084   6.919  17.274  0.00  0.00    +0.000 C 
ATOM     12  O   UNL     1       3.769   7.552  16.265  0.00  0.00    +0.000 OA
ATOM     13  C   UNL     1       2.457   7.804  18.805  0.00  0.00    +0.000 A 
ATOM     14  O   UNL     1       2.384   8.870  18.186  0.00  0.00    +0.000 OA
ATOM     15  H   UNL     1       1.028   9.761  18.927  0.00  0.00    +0.000 HD
ENDROOT
BRANCH  11  16
ATOM     16  C   UNL     1       5.386   6.173  17.229  0.00  0.00    +0.000 A 
ATOM     17  C   UNL     1       5.610   5.239  16.206  0.00  0.00    +0.000 A 
ATOM     18  C   UNL     1       6.738   4.414  16.262  0.00  0.00    +0.000 A 
ATOM     19  C   UNL     1       7.642   4.525  17.319  0.00  0.00    +0.000 A 
ATOM     20  C   UNL     1       7.455   5.506  18.291  0.00  0.00    +0.000 A 
ATOM     21  C   UNL     1       6.351   6.340  18.231  0.00  0.00    +0.000 A 
ENDBRANCH  11  16
BRANCH   1  22
ATOM     22  C   UNL     1      -0.158  10.811  20.343  0.00  0.00    +0.000 C 
BRANCH  22  23
ATOM     23  C   UNL     1      -1.211  11.305  19.354  0.00  0.00    +0.000 C 
BRANCH  23  24
ATOM     24  C   UNL     1      -1.255  10.447  18.086  0.00  0.00    +0.000 C 
BRANCH  24  25
ATOM     25  C   UNL     1      -2.660   9.917  17.813  0.00  0.00    +0.000 C 
BRANCH  25  27
ATOM     26  C   UNL     1      -2.837  10.912  15.508  0.00  0.00    +0.000 C 
ATOM     27  C   UNL     1      -2.859   9.631  16.325  0.00  0.00    +0.000 C 
ENDBRANCH  25  27
ENDBRANCH  24  25
ENDBRANCH  23  24
ENDBRANCH  22  23
ENDBRANCH   1  22
TORSDOF 6
ENDMDL
MODEL 7
REMARK VINA RESULT:      -7.4      3.928      5.507
REMARK  Name = 
REMARK  7 active torsions:
REMARK  status: ('A' for Active; 'I' for Inactive)
REMARK    1  A    between atoms: C_1  and  C_2
REMARK    2  A    between atoms: C_2  and  C_3
REMARK    3  A    between atoms: C_3  and  C_4
REMARK    4  A    between atoms: C_4  and  C_5
REMARK    5  A    between atoms: C_5  and  C_6
REMARK    6  A    between atoms: C_6  and  N_7
REMARK    7  A    between atoms: C_17  and  C_19
REMARK                            x       y       z     vdW  Elec       q    Type
REMARK                         _______ _______ _______ _____ _____    ______ ____
ROOT
ATOM      1  N   UNL     1       5.167   5.747  16.970  0.00  0.00    +0.000 N 
ATOM      2  C   UNL     1       4.184   5.253  17.784  0.00  0.00    +0.000 C 
ATOM      3  O   UNL     1       4.043   4.042  17.963  0.00  0.00    +0.000 OA
ATOM      4  N   UNL     1       3.385   6.216  18.435  0.00  0.00    +0.000 N 
ATOM      5  C   UNL     1       2.724   5.779  19.566  0.00  0.00    +0.000 A 
ATOM      6  C   UNL     1       1.921   6.566  20.266  0.00  0.00    +0.000 A 
ATOM      7  F   UNL     1       1.317   6.147  21.391  0.00  0.00    +0.000 F 
ATOM      8  C   UNL     1       1.686   7.951  19.842  0.00  0.00    +0.000 A 
ATOM      9  O   UNL     1       1.086   8.697  20.611  0.00  0.00    +0.000 OA
ATOM     10  N   UNL     1       2.201   8.297  18.595  0.00  0.00    +0.000 N 
ATOM     11  C   UNL     1       1.846   9.527  18.026  0.00  0.00    +0.000 C 
ATOM     12  O   UNL     1       2.642  10.305  17.497  0.00  0.00    +0.000 OA
ATOM     13  C   UNL     1       3.151   7.512  17.917  0.00  0.00    +0.000 A 
ATOM     14  O   UNL     1       3.765   7.907  16.921  0.00  0.00    +0.000 OA
ATOM     15  H   UNL     1       5.062   6.712  16.656  0.00  0.00    +0.000 HD
ENDROOT
BRANCH  11  16
ATOM     16  C   UNL     1       0.442  10.021  18.221  0.00  0.00    +0.000 A 
ATOM     17  C   UNL     1      -0.611   9.392  17.541  0.00  0.00    +0.000 A 
ATOM     18  C   UNL     1      -1.889   9.958  17.576  0.00  0.00    +0.000 A 
ATOM     19  C   UNL     1      -2.122  11.132  18.292  0.00  0.00    +0.000 A 
ATOM     20  C   UNL     1      -1.091  11.711  19.029  0.00  0.00    +0.000 A 
ATOM     21  C   UNL     1       0.173  11.144  19.015  0.00  0.00    +0.000 A 
ENDBRANCH  11  16
BRANCH   1  22
ATOM     22  C   UNL     1       6.063   4.889  16.222  0.00  0.00    +0.000 C 
BRANCH  22  23
ATOM     23  C   UNL     1       6.011   5.170  14.722  0.00  0.00    +0.000 C 
BRANCH  23  24
ATOM     24  C   UNL     1       5.445   3.984  13.936  0.00  0.00    +0.000 C 
BRANCH  24  25
ATOM     25  C   UNL     1       6.293   3.667  12.707  0.00  0.00    +0.000 C 
BRANCH  25  27
ATOM     26  C   UNL     1       4.217   3.227  11.354  0.00  0.00    +0.000 C 
ATOM     27  C   UNL     1       5.572   2.688  11.780  0.00  0.00    +0.000 C 
ENDBRANCH  25  27
ENDBRANCH  24  25
ENDBRANCH  23  24
ENDBRANCH  22  23
ENDBRANCH   1  22
TORSDOF 6
ENDMDL
MODEL 8
REMARK VINA RESULT:      -7.3      4.632      7.638
REMARK  Name = 
REMARK  7 active torsions:
REMARK  status: ('A' for Active; 'I' for Inactive)
REMARK    1  A    between atoms: C_1  and  C_2
REMARK    2  A    between atoms: C_2  and  C_3
REMARK    3  A    between atoms: C_3  and  C_4
REMARK    4  A    between atoms: C_4  and  C_5
REMARK    5  A    between atoms: C_5  and  C_6
REMARK    6  A    between atoms: C_6  and  N_7
REMARK    7  A    between atoms: C_17  and  C_19
REMARK                            x       y       z     vdW  Elec       q    Type
REMARK                         _______ _______ _______ _____ _____    ______ ____
ROOT
ATOM      1  N   UNL     1       0.807  10.321  18.902  0.00  0.00    +0.000 N 
ATOM      2  C   UNL     1       1.089   9.439  19.911  0.00  0.00    +0.000 C 
ATOM      3  O   UNL     1       0.769   9.671  21.078  0.00  0.00    +0.000 OA
ATOM      4  N   UNL     1       1.720   8.240  19.519  0.00  0.00    +0.000 N 
ATOM      5  C   UNL     1       1.599   7.185  20.402  0.00  0.00    +0.000 A 
ATOM      6  C   UNL     1       2.158   6.005  20.177  0.00  0.00    +0.000 A 
ATOM      7  F   UNL     1       1.999   4.970  21.020  0.00  0.00    +0.000 F 
ATOM      8  C   UNL     1       2.958   5.783  18.967  0.00  0.00    +0.000 A 
ATOM      9  O   UNL     1       3.304   4.634  18.706  0.00  0.00    +0.000 OA
ATOM     10  N   UNL     1       3.229   6.916  18.204  0.00  0.00    +0.000 N 
ATOM     11  C   UNL     1       4.152   6.829  17.154  0.00  0.00    +0.000 C 
ATOM     12  O   UNL     1       3.971   7.295  16.028  0.00  0.00    +0.000 OA
ATOM     13  C   UNL     1       2.538   8.130  18.369  0.00  0.00    +0.000 A 
ATOM     14  O   UNL     1       2.620   9.067  17.570  0.00  0.00    +0.000 OA
ATOM     15  H   UNL     1       1.325  10.202  18.031  0.00  0.00    +0.000 HD
ENDROOT
BRANCH  11  16
ATOM     16  C   UNL     1       5.366   5.966  17.346  0.00  0.00    +0.000 A 
ATOM     17  C   UNL     1       6.279   6.278  18.364  0.00  0.00    +0.000 A 
ATOM     18  C   UNL     1       7.496   5.592  18.431  0.00  0.00    +0.000 A 
ATOM     19  C   UNL     1       7.797   4.596  17.502  0.00  0.00    +0.000 A 
ATOM     20  C   UNL     1       6.854   4.237  16.540  0.00  0.00    +0.000 A 
ATOM     21  C   UNL     1       5.639   4.899  16.481  0.00  0.00    +0.000 A 
ENDBRANCH  11  16
BRANCH   1  22
ATOM     22  C   UNL     1       0.173  11.601  19.141  0.00  0.00    +0.000 C 
BRANCH  22  23
ATOM     23  C   UNL     1      -1.142  11.744  18.378  0.00  0.00    +0.000 C 
BRANCH  23  24
ATOM     24  C   UNL     1      -1.966  10.454  18.411  0.00  0.00    +0.000 C 
BRANCH  24  25
ATOM     25  C   UNL     1      -2.126   9.851  17.017  0.00  0.00    +0.000 C 
BRANCH  25  27
ATOM     26  C   UNL     1      -3.071  10.244  14.718  0.00  0.00    +0.000 C 
ATOM     27  C   UNL     1      -2.651  10.891  16.027  0.00  0.00    +0.000 C 
ENDBRANCH  25  27
ENDBRANCH  24  25
ENDBRANCH  23  24
ENDBRANCH  22  23
ENDBRANCH   1  22
TORSDOF 6
ENDMDL
MODEL 9
REMARK VINA RESULT:      -7.1      4.306      6.837
REMARK  Name = 
REMARK  7 active torsions:
REMARK  status: ('A' for Active; 'I' for Inactive)
REMARK    1  A    between atoms: C_1  and  C_2
REMARK    2  A    between atoms: C_2  and  C_3
REMARK    3  A    between atoms: C_3  and  C_4
REMARK    4  A    between atoms: C_4  and  C_5
REMARK    5  A    between atoms: C_5  and  C_6
REMARK    6  A    between atoms: C_6  and  N_7
REMARK    7  A    between atoms: C_17  and  C_19
REMARK                            x       y       z     vdW  Elec       q    Type
REMARK                         _______ _______ _______ _____ _____    ______ ____
ROOT
ATOM      1  N   UNL     1       1.058   9.779  19.597  0.00  0.00    +0.000 N 
ATOM      2  C   UNL     1       1.654   9.397  18.426  0.00  0.00    +0.000 C 
ATOM      3  O   UNL     1       1.524  10.055  17.392  0.00  0.00    +0.000 OA
ATOM      4  N   UNL     1       2.455   8.238  18.494  0.00  0.00    +0.000 N 
ATOM      5  C   UNL     1       3.395   8.101  17.491  0.00  0.00    +0.000 A 
ATOM      6  C   UNL     1       4.202   7.054  17.415  0.00  0.00    +0.000 A 
ATOM      7  F   UNL     1       5.144   6.949  16.461  0.00  0.00    +0.000 F 
ATOM      8  C   UNL     1       4.107   5.971  18.401  0.00  0.00    +0.000 A 
ATOM      9  O   UNL     1       4.987   5.114  18.404  0.00  0.00    +0.000 OA
ATOM     10  N   UNL     1       3.023   6.040  19.271  0.00  0.00    +0.000 N 
ATOM     11  C   UNL     1       2.742   4.947  20.102  0.00  0.00    +0.000 C 
ATOM     12  O   UNL     1       2.477   5.034  21.302  0.00  0.00    +0.000 OA
ATOM     13  C   UNL     1       2.249   7.203  19.437  0.00  0.00    +0.000 A 
ATOM     14  O   UNL     1       1.426   7.342  20.347  0.00  0.00    +0.000 OA
ATOM     15  H   UNL     1       0.979   9.068  20.325  0.00  0.00    +0.000 HD
ENDROOT
BRANCH  11  16
ATOM     16  C   UNL     1       2.945   3.565  19.549  0.00  0.00    +0.000 A 
ATOM     17  C   UNL     1       3.904   2.724  20.132  0.00  0.00    +0.000 A 
ATOM     18  C   UNL     1       4.224   1.512  19.513  0.00  0.00    +0.000 A 
ATOM     19  C   UNL     1       3.587   1.133  18.331  0.00  0.00    +0.000 A 
ATOM     20  C   UNL     1       2.581   1.936  17.798  0.00  0.00    +0.000 A 
ATOM     21  C   UNL     1       2.244   3.128  18.418  0.00  0.00    +0.000 A 
ENDBRANCH  11  16
BRANCH   1  22
ATOM     22  C   UNL     1       0.195  10.938  19.691  0.00  0.00    +0.000 C 
BRANCH  22  23
ATOM     23  C   UNL     1      -1.270  10.587  19.439  0.00  0.00    +0.000 C 
BRANCH  23  24
ATOM     24  C   UNL     1      -1.781  11.172  18.120  0.00  0.00    +0.000 C 
BRANCH  24  25
ATOM     25  C   UNL     1      -1.969  10.091  17.059  0.00  0.00    +0.000 C 
BRANCH  25  27
ATOM     26  C   UNL     1      -2.937  10.061  14.735  0.00  0.00    +0.000 C 
ATOM     27  C   UNL     1      -3.201  10.374  16.199  0.00  0.00    +0.000 C 
ENDBRANCH  25  27
ENDBRANCH  24  25
ENDBRANCH  23  24
ENDBRANCH  22  23
ENDBRANCH   1  22
TORSDOF 6
ENDMDL
