MODEL 1
REMARK VINA RESULT:      -8.8      0.000      0.000
REMARK  Name = 
REMARK  8 active torsions:
REMARK  status: ('A' for Active; 'I' for Inactive)
REMARK    1  A    between atoms: C_1  and  O_2
REMARK    2  A    between atoms: O_2  and  C_3
REMARK    3  A    between atoms: C_3  and  C_5
REMARK    4  A    between atoms: C_7  and  S_8
REMARK    5  A    between atoms: S_8  and  N_11
REMARK    6  A    between atoms: N_11  and  C_12
REMARK    7  A    between atoms: C_18  and  C_19
REMARK    8  A    between atoms: C_28  and  C_29
REMARK                            x       y       z     vdW  Elec       q    Type
REMARK                         _______ _______ _______ _____ _____    ______ ____
ROOT
ATOM      1  N   UNL     1       5.394   6.384  17.872  0.00  0.00    +0.000 N 
ATOM      2  H   UNL     1       5.339   7.164  17.217  0.00  0.00    +0.000 HD
ENDROOT
BRANCH   1   3
ATOM      3  C   UNL     1       4.180   5.629  17.984  0.00  0.00    +0.000 A 
ATOM      4  C   UNL     1       4.334   4.232  18.031  0.00  0.00    +0.000 A 
ATOM      5  C   UNL     1       3.237   3.409  18.265  0.00  0.00    +0.000 A 
ATOM      6 BR   UNL     1       3.470   1.535  18.345  0.00  0.00    +0.000 Br
ATOM      7  C   UNL     1       1.979   3.960  18.464  0.00  0.00    +0.000 A 
ATOM      8  C   UNL     1       1.813   5.344  18.380  0.00  0.00    +0.000 A 
ATOM      9  C   UNL     1       2.897   6.206  18.109  0.00  0.00    +0.000 A 
BRANCH   9  10
ATOM     10  C   UNL     1       2.546   7.672  18.071  0.00  0.00    +0.000 C 
ATOM     11  O   UNL     1       3.015   8.326  17.131  0.00  0.00    +0.000 OA
ATOM     12  N   UNL     1       1.750   8.297  19.031  0.00  0.00    +0.000 N 
ATOM     13  C   UNL     1       1.083   9.555  18.671  0.00  0.00    +0.000 C 
ATOM     14  C   UNL     1       1.160  10.603  19.774  0.00  0.00    +0.000 C 
ATOM     15  C   UNL     1       0.715  10.028  21.117  0.00  0.00    +0.000 C 
ATOM     16  C   UNL     1       1.538   8.795  21.447  0.00  0.00    +0.000 C 
ATOM     17  C   UNL     1       1.413   7.759  20.344  0.00  0.00    +0.000 C 
ENDBRANCH   9  10
ENDBRANCH   1   3
BRANCH   1  18
ATOM     18  S   UNL     1       6.827   5.544  17.527  0.00  0.00    +0.000 S 
ATOM     19  O   UNL     1       6.743   4.306  18.275  0.00  0.00    +0.000 OA
ATOM     20  O   UNL     1       7.938   6.450  17.712  0.00  0.00    +0.000 OA
BRANCH  18  23
ATOM     21  C   UNL     1       6.485   4.191  13.732  0.00  0.00    +0.000 A 
ATOM     22  C   UNL     1       6.077   4.158  15.100  0.00  0.00    +0.000 A 
ATOM     23  C   UNL     1       6.859   5.056  15.814  0.00  0.00    +0.000 A 
ATOM     24  O   UNL     1       7.754   5.614  14.929  0.00  0.00    +0.000 OA
ATOM     25  C   UNL     1       7.490   5.140  13.682  0.00  0.00    +0.000 A 
ATOM     26  C   UNL     1       8.259   5.768  12.584  0.00  0.00    +0.000 C 
BRANCH  21  27
ATOM     27  C   UNL     1       5.931   3.416  12.641  0.00  0.00    +0.000 C 
ATOM     28  O   UNL     1       6.625   2.705  11.917  0.00  0.00    +0.000 OA
BRANCH  27  30
ATOM     29  C   UNL     1       4.090   3.154  11.214  0.00  0.00    +0.000 C 
ATOM     30  O   UNL     1       4.589   3.592  12.480  0.00  0.00    +0.000 OA
ENDBRANCH  27  30
ENDBRANCH  21  27
ENDBRANCH  18  23
ENDBRANCH   1  18
TORSDOF 6
ENDMDL
MODEL 2
REMARK VINA RESULT:      -8.6      2.876      7.792
REMARK  Name = 
REMARK  8 active torsions:
REMARK  status: ('A' for Active; 'I' for Inactive)
REMARK    1  A    between atoms: C_1  and  O_2
REMARK    2  A    between atoms: O_2  and  C_3
REMARK    3  A    between atoms: C_3  and  C_5
REMARK    4  A    between atoms: C_7  and  S_8
REMARK    5  A    between atoms: S_8  and  N_11
REMARK    6  A    between atoms: N_11  and  C_12
REMARK    7  A    between atoms: C_18  and  C_19
REMARK    8  A    between atoms: C_28  and  C_29
REMARK                            x       y       z     vdW  Elec       q    Type
REMARK                         _______ _______ _______ _____ _____    ______ ____
ROOT
ATOM      1  N   UNL     1       3.628   6.635  19.646  0.00  0.00    +0.000 N 
ATOM      2  H   UNL     1       3.251   7.141  20.448  0.00  0.00    +0.000 HD
ENDROOT
BRANCH   1   3
ATOM      3  C   UNL     1       3.725   5.218  19.843  0.00  0.00    +0.000 A 
ATOM      4  C   UNL     1       2.708   4.641  20.622  0.00  0.00    +0.000 A 
ATOM      5  C   UNL     1       2.632   3.259  20.773  0.00  0.00    +0.000 A 
ATOM      6 BR   UNL     1       1.244   2.503  21.808  0.00  0.00    +0.000 Br
ATOM      7  C   UNL     1       3.557   2.436  20.146  0.00  0.00    +0.000 A 
ATOM      8  C   UNL     1       4.592   3.006  19.402  0.00  0.00    +0.000 A 
ATOM      9  C   UNL     1       4.720   4.403  19.258  0.00  0.00    +0.000 A 
BRANCH   9  10
ATOM     10  C   UNL     1       5.884   4.848  18.408  0.00  0.00    +0.000 C 
ATOM     11  O   UNL     1       6.699   5.608  18.946  0.00  0.00    +0.000 OA
ATOM     12  N   UNL     1       6.059   4.459  17.080  0.00  0.00    +0.000 N 
ATOM     13  C   UNL     1       7.408   4.534  16.504  0.00  0.00    +0.000 C 
ATOM     14  C   UNL     1       7.419   5.107  15.093  0.00  0.00    +0.000 C 
ATOM     15  C   UNL     1       6.402   4.400  14.199  0.00  0.00    +0.000 C 
ATOM     16  C   UNL     1       5.023   4.472  14.831  0.00  0.00    +0.000 C 
ATOM     17  C   UNL     1       5.040   3.863  16.222  0.00  0.00    +0.000 C 
ENDBRANCH   9  10
ENDBRANCH   1   3
BRANCH   1  18
ATOM     18  S   UNL     1       2.806   7.195  18.271  0.00  0.00    +0.000 S 
ATOM     19  O   UNL     1       1.971   6.093  17.840  0.00  0.00    +0.000 OA
ATOM     20  O   UNL     1       3.774   7.790  17.377  0.00  0.00    +0.000 OA
BRANCH  18  23
ATOM     21  C   UNL     1       0.140  10.188  18.807  0.00  0.00    +0.000 A 
ATOM     22  C   UNL     1       0.949   9.391  17.942  0.00  0.00    +0.000 A 
ATOM     23  C   UNL     1       1.673   8.495  18.718  0.00  0.00    +0.000 A 
ATOM     24  O   UNL     1       1.353   8.742  20.035  0.00  0.00    +0.000 OA
ATOM     25  C   UNL     1       0.399   9.710  20.079  0.00  0.00    +0.000 A 
ATOM     26  C   UNL     1      -0.176   9.978  21.417  0.00  0.00    +0.000 C 
BRANCH  21  27
ATOM     27  C   UNL     1      -0.774  11.241  18.417  0.00  0.00    +0.000 C 
ATOM     28  O   UNL     1      -0.435  12.421  18.356  0.00  0.00    +0.000 OA
BRANCH  27  30
ATOM     29  C   UNL     1      -2.336  10.625  16.780  0.00  0.00    +0.000 C 
ATOM     30  O   UNL     1      -2.038  10.794  18.168  0.00  0.00    +0.000 OA
ENDBRANCH  27  30
ENDBRANCH  21  27
ENDBRANCH  18  23
ENDBRANCH   1  18
TORSDOF 6
ENDMDL
MODEL 3
REMARK VINA RESULT:      -8.2      2.882      7.654
REMARK  Name = 
REMARK  8 active torsions:
REMARK  status: ('A' for Active; 'I' for Inactive)
REMARK    1  A    between atoms: C_1  and  O_2
REMARK    2  A    between atoms: O_2  and  C_3
REMARK    3  A    between atoms: C_3  and  C_5
REMARK    4  A    between atoms: C_7  and  S_8
REMARK    5  A    between atoms: S_8  and  N_11
REMARK    6  A    between atoms: N_11  and  C_12
REMARK    7  A    between atoms: C_18  and  C_19
REMARK    8  A    between atoms: C_28  and  C_29
REMARK                            x       y       z     vdW  Elec       q    Type
REMARK                         _______ _______ _______ _____ _____    ______ ____
ROOT
ATOM      1  N   UNL     1       3.543   6.664  19.590  0.00  0.00    +0.000 N 
ATOM      2  H   UNL     1       3.061   7.168  20.334  0.00  0.00    +0.000 HD
ENDROOT
BRANCH   1   3
ATOM      3  C   UNL     1       3.667   5.254  19.825  0.00  0.00    +0.000 A 
ATOM      4  C   UNL     1       2.648   4.675  20.602  0.00  0.00    +0.000 A 
ATOM      5  C   UNL     1       2.599   3.297  20.787  0.00  0.00    +0.000 A 
ATOM      6 BR   UNL     1       1.210   2.538  21.819  0.00  0.00    +0.000 Br
ATOM      7  C   UNL     1       3.551   2.477  20.197  0.00  0.00    +0.000 A 
ATOM      8  C   UNL     1       4.587   3.050  19.456  0.00  0.00    +0.000 A 
ATOM      9  C   UNL     1       4.688   4.446  19.278  0.00  0.00    +0.000 A 
BRANCH   9  10
ATOM     10  C   UNL     1       5.856   4.894  18.436  0.00  0.00    +0.000 C 
ATOM     11  O   UNL     1       6.654   5.674  18.971  0.00  0.00    +0.000 OA
ATOM     12  N   UNL     1       6.055   4.485  17.117  0.00  0.00    +0.000 N 
ATOM     13  C   UNL     1       7.411   4.570  16.558  0.00  0.00    +0.000 C 
ATOM     14  C   UNL     1       7.432   5.120  15.137  0.00  0.00    +0.000 C 
ATOM     15  C   UNL     1       6.437   4.383  14.242  0.00  0.00    +0.000 C 
ATOM     16  C   UNL     1       5.049   4.445  14.855  0.00  0.00    +0.000 C 
ATOM     17  C   UNL     1       5.056   3.860  16.256  0.00  0.00    +0.000 C 
ENDBRANCH   9  10
ENDBRANCH   1   3
BRANCH   1  18
ATOM     18  S   UNL     1       2.864   7.171  18.120  0.00  0.00    +0.000 S 
ATOM     19  O   UNL     1       1.807   6.223  17.832  0.00  0.00    +0.000 OA
ATOM     20  O   UNL     1       3.938   7.397  17.180  0.00  0.00    +0.000 OA
BRANCH  18  23
ATOM     21  C   UNL     1       0.690  10.493  18.891  0.00  0.00    +0.000 A 
ATOM     22  C   UNL     1       0.854   9.076  18.961  0.00  0.00    +0.000 A 
ATOM     23  C   UNL     1       2.044   8.739  18.330  0.00  0.00    +0.000 A 
ATOM     24  O   UNL     1       2.597   9.904  17.848  0.00  0.00    +0.000 OA
ATOM     25  C   UNL     1       1.818  10.950  18.234  0.00  0.00    +0.000 A 
ATOM     26  C   UNL     1       2.363  12.294  17.936  0.00  0.00    +0.000 C 
BRANCH  21  27
ATOM     27  C   UNL     1      -0.408  11.269  19.428  0.00  0.00    +0.000 C 
ATOM     28  O   UNL     1      -0.767  11.181  20.600  0.00  0.00    +0.000 OA
BRANCH  27  30
ATOM     29  C   UNL     1      -1.919  11.363  17.637  0.00  0.00    +0.000 C 
ATOM     30  O   UNL     1      -1.015  12.061  18.499  0.00  0.00    +0.000 OA
ENDBRANCH  27  30
ENDBRANCH  21  27
ENDBRANCH  18  23
ENDBRANCH   1  18
TORSDOF 6
ENDMDL
MODEL 4
REMARK VINA RESULT:      -8.2      2.830      8.377
REMARK  Name = 
REMARK  8 active torsions:
REMARK  status: ('A' for Active; 'I' for Inactive)
REMARK    1  A    between atoms: C_1  and  O_2
REMARK    2  A    between atoms: O_2  and  C_3
REMARK    3  A    between atoms: C_3  and  C_5
REMARK    4  A    between atoms: C_7  and  S_8
REMARK    5  A    between atoms: S_8  and  N_11
REMARK    6  A    between atoms: N_11  and  C_12
REMARK    7  A    between atoms: C_18  and  C_19
REMARK    8  A    between atoms: C_28  and  C_29
REMARK                            x       y       z     vdW  Elec       q    Type
REMARK                         _______ _______ _______ _____ _____    ______ ____
ROOT
ATOM      1  N   UNL     1       3.843   6.612  19.574  0.00  0.00    +0.000 N 
ATOM      2  H   UNL     1       3.829   7.128  20.454  0.00  0.00    +0.000 HD
ENDROOT
BRANCH   1   3
ATOM      3  C   UNL     1       3.868   5.186  19.733  0.00  0.00    +0.000 A 
ATOM      4  C   UNL     1       2.842   4.645  20.528  0.00  0.00    +0.000 A 
ATOM      5  C   UNL     1       2.695   3.267  20.647  0.00  0.00    +0.000 A 
ATOM      6 BR   UNL     1       1.298   2.560  21.705  0.00  0.00    +0.000 Br
ATOM      7  C   UNL     1       3.555   2.410  19.974  0.00  0.00    +0.000 A 
ATOM      8  C   UNL     1       4.599   2.943  19.214  0.00  0.00    +0.000 A 
ATOM      9  C   UNL     1       4.800   4.335  19.100  0.00  0.00    +0.000 A 
BRANCH   9  10
ATOM     10  C   UNL     1       5.961   4.738  18.227  0.00  0.00    +0.000 C 
ATOM     11  O   UNL     1       6.832   5.438  18.758  0.00  0.00    +0.000 OA
ATOM     12  N   UNL     1       6.077   4.374  16.885  0.00  0.00    +0.000 N 
ATOM     13  C   UNL     1       7.412   4.391  16.272  0.00  0.00    +0.000 C 
ATOM     14  C   UNL     1       7.414   4.999  14.875  0.00  0.00    +0.000 C 
ATOM     15  C   UNL     1       6.335   4.371  13.995  0.00  0.00    +0.000 C 
ATOM     16  C   UNL     1       4.980   4.502  14.669  0.00  0.00    +0.000 C 
ATOM     17  C   UNL     1       5.003   3.857  16.044  0.00  0.00    +0.000 C 
ENDBRANCH   9  10
ENDBRANCH   1   3
BRANCH   1  18
ATOM     18  S   UNL     1       2.641   7.283  18.582  0.00  0.00    +0.000 S 
ATOM     19  O   UNL     1       1.731   6.196  18.283  0.00  0.00    +0.000 OA
ATOM     20  O   UNL     1       3.289   8.023  17.524  0.00  0.00    +0.000 OA
BRANCH  18  23
ATOM     21  C   UNL     1       0.541   9.691  21.061  0.00  0.00    +0.000 A 
ATOM     22  C   UNL     1       1.229   8.464  20.815  0.00  0.00    +0.000 A 
ATOM     23  C   UNL     1       1.674   8.465  19.500  0.00  0.00    +0.000 A 
ATOM     24  O   UNL     1       1.252   9.643  18.925  0.00  0.00    +0.000 OA
ATOM     25  C   UNL     1       0.629  10.394  19.873  0.00  0.00    +0.000 A 
ATOM     26  C   UNL     1       0.259  11.766  19.458  0.00  0.00    +0.000 C 
BRANCH  21  27
ATOM     27  C   UNL     1      -0.077  10.108  22.302  0.00  0.00    +0.000 C 
ATOM     28  O   UNL     1       0.413   9.856  23.401  0.00  0.00    +0.000 OA
BRANCH  27  30
ATOM     29  C   UNL     1      -1.496  11.812  23.064  0.00  0.00    +0.000 C 
ATOM     30  O   UNL     1      -1.261  10.759  22.124  0.00  0.00    +0.000 OA
ENDBRANCH  27  30
ENDBRANCH  21  27
ENDBRANCH  18  23
ENDBRANCH   1  18
TORSDOF 6
ENDMDL
MODEL 5
REMARK VINA RESULT:      -8.1      1.279      1.423
REMARK  Name = 
REMARK  8 active torsions:
REMARK  status: ('A' for Active; 'I' for Inactive)
REMARK    1  A    between atoms: C_1  and  O_2
REMARK    2  A    between atoms: O_2  and  C_3
REMARK    3  A    between atoms: C_3  and  C_5
REMARK    4  A    between atoms: C_7  and  S_8
REMARK    5  A    between atoms: S_8  and  N_11
REMARK    6  A    between atoms: N_11  and  C_12
REMARK    7  A    between atoms: C_18  and  C_19
REMARK    8  A    between atoms: C_28  and  C_29
REMARK                            x       y       z     vdW  Elec       q    Type
REMARK                         _______ _______ _______ _____ _____    ______ ____
ROOT
ATOM      1  N   UNL     1       3.765   5.543  17.189  0.00  0.00    +0.000 N 
ATOM      2  H   UNL     1       3.433   4.851  16.516  0.00  0.00    +0.000 HD
ENDROOT
BRANCH   1   3
ATOM      3  C   UNL     1       3.092   5.493  18.455  0.00  0.00    +0.000 A 
ATOM      4  C   UNL     1       3.123   4.251  19.112  0.00  0.00    +0.000 A 
ATOM      5  C   UNL     1       2.614   4.121  20.400  0.00  0.00    +0.000 A 
ATOM      6 BR   UNL     1       2.683   2.446  21.273  0.00  0.00    +0.000 Br
ATOM      7  C   UNL     1       2.077   5.221  21.055  0.00  0.00    +0.000 A 
ATOM      8  C   UNL     1       2.010   6.449  20.393  0.00  0.00    +0.000 A 
ATOM      9  C   UNL     1       2.484   6.608  19.073  0.00  0.00    +0.000 A 
BRANCH   9  10
ATOM     10  C   UNL     1       2.350   8.003  18.516  0.00  0.00    +0.000 C 
ATOM     11  O   UNL     1       3.060   8.276  17.540  0.00  0.00    +0.000 OA
ATOM     12  N   UNL     1       1.495   8.966  19.051  0.00  0.00    +0.000 N 
ATOM     13  C   UNL     1       1.080  10.083  18.193  0.00  0.00    +0.000 C 
ATOM     14  C   UNL     1       1.110  11.425  18.914  0.00  0.00    +0.000 C 
ATOM     15  C   UNL     1       0.365  11.357  20.245  0.00  0.00    +0.000 C 
ATOM     16  C   UNL     1       0.941  10.241  21.100  0.00  0.00    +0.000 C 
ATOM     17  C   UNL     1       0.865   8.913  20.367  0.00  0.00    +0.000 C 
ENDBRANCH   9  10
ENDBRANCH   1   3
BRANCH   1  18
ATOM     18  S   UNL     1       5.460   5.473  17.183  0.00  0.00    +0.000 S 
ATOM     19  O   UNL     1       5.810   4.398  18.088  0.00  0.00    +0.000 OA
ATOM     20  O   UNL     1       5.967   6.812  17.385  0.00  0.00    +0.000 OA
BRANCH  18  23
ATOM     21  C   UNL     1       6.386   4.022  13.524  0.00  0.00    +0.000 A 
ATOM     22  C   UNL     1       5.572   3.996  14.696  0.00  0.00    +0.000 A 
ATOM     23  C   UNL     1       6.048   4.951  15.584  0.00  0.00    +0.000 A 
ATOM     24  O   UNL     1       7.149   5.539  15.002  0.00  0.00    +0.000 OA
ATOM     25  C   UNL     1       7.311   5.024  13.754  0.00  0.00    +0.000 A 
ATOM     26  C   UNL     1       8.357   5.670  12.928  0.00  0.00    +0.000 C 
BRANCH  21  27
ATOM     27  C   UNL     1       6.238   3.195  12.345  0.00  0.00    +0.000 C 
ATOM     28  O   UNL     1       7.171   2.967  11.577  0.00  0.00    +0.000 OA
BRANCH  27  30
ATOM     29  C   UNL     1       4.220   3.472  11.184  0.00  0.00    +0.000 C 
ATOM     30  O   UNL     1       4.967   2.740  12.160  0.00  0.00    +0.000 OA
ENDBRANCH  27  30
ENDBRANCH  21  27
ENDBRANCH  18  23
ENDBRANCH   1  18
TORSDOF 6
ENDMDL
MODEL 6
REMARK VINA RESULT:      -8.0      4.693      7.732
REMARK  Name = 
REMARK  8 active torsions:
REMARK  status: ('A' for Active; 'I' for Inactive)
REMARK    1  A    between atoms: C_1  and  O_2
REMARK    2  A    between atoms: O_2  and  C_3
REMARK    3  A    between atoms: C_3  and  C_5
REMARK    4  A    between atoms: C_7  and  S_8
REMARK    5  A    between atoms: S_8  and  N_11
REMARK    6  A    between atoms: N_11  and  C_12
REMARK    7  A    between atoms: C_18  and  C_19
REMARK    8  A    between atoms: C_28  and  C_29
REMARK                            x       y       z     vdW  Elec       q    Type
REMARK                         _______ _______ _______ _____ _____    ______ ____
ROOT
ATOM      1  N   UNL     1       0.897  10.509  20.146  0.00  0.00    +0.000 N 
ATOM      2  H   UNL     1       1.594  10.275  19.438  0.00  0.00    +0.000 HD
ENDROOT
BRANCH   1   3
ATOM      3  C   UNL     1      -0.330  11.022  19.609  0.00  0.00    +0.000 A 
ATOM      4  C   UNL     1      -0.804  10.381  18.452  0.00  0.00    +0.000 A 
ATOM      5  C   UNL     1      -2.045  10.712  17.919  0.00  0.00    +0.000 A 
ATOM      6 BR   UNL     1      -2.672   9.824  16.373  0.00  0.00    +0.000 Br
ATOM      7  C   UNL     1      -2.835  11.675  18.532  0.00  0.00    +0.000 A 
ATOM      8  C   UNL     1      -2.353  12.343  19.660  0.00  0.00    +0.000 A 
ATOM      9  C   UNL     1      -1.083  12.058  20.206  0.00  0.00    +0.000 A 
BRANCH   9  10
ATOM     10  C   UNL     1      -0.727  12.857  21.433  0.00  0.00    +0.000 C 
ATOM     11  O   UNL     1       0.479  12.987  21.675  0.00  0.00    +0.000 OA
ATOM     12  N   UNL     1      -1.677  13.425  22.283  0.00  0.00    +0.000 N 
ATOM     13  C   UNL     1      -1.266  14.547  23.137  0.00  0.00    +0.000 C 
ATOM     14  C   UNL     1      -1.800  14.436  24.560  0.00  0.00    +0.000 C 
ATOM     15  C   UNL     1      -3.304  14.170  24.568  0.00  0.00    +0.000 C 
ATOM     16  C   UNL     1      -3.611  12.929  23.747  0.00  0.00    +0.000 C 
ATOM     17  C   UNL     1      -3.095  13.087  22.327  0.00  0.00    +0.000 C 
ENDBRANCH   9  10
ENDBRANCH   1   3
BRANCH   1  18
ATOM     18  S   UNL     1       0.811   9.195  21.217  0.00  0.00    +0.000 S 
ATOM     19  O   UNL     1      -0.599   8.896  21.355  0.00  0.00    +0.000 OA
ATOM     20  O   UNL     1       1.624   9.501  22.372  0.00  0.00    +0.000 OA
BRANCH  18  23
ATOM     21  C   UNL     1       2.661   6.210  19.213  0.00  0.00    +0.000 A 
ATOM     22  C   UNL     1       2.290   7.584  19.321  0.00  0.00    +0.000 A 
ATOM     23  C   UNL     1       1.528   7.745  20.470  0.00  0.00    +0.000 A 
ATOM     24  O   UNL     1       1.397   6.503  21.052  0.00  0.00    +0.000 OA
ATOM     25  C   UNL     1       2.120   5.605  20.332  0.00  0.00    +0.000 A 
ATOM     26  C   UNL     1       2.219   4.249  20.920  0.00  0.00    +0.000 C 
BRANCH  21  27
ATOM     27  C   UNL     1       3.463   5.605  18.169  0.00  0.00    +0.000 C 
ATOM     28  O   UNL     1       4.572   6.033  17.857  0.00  0.00    +0.000 OA
BRANCH  27  30
ATOM     29  C   UNL     1       3.694   3.427  17.333  0.00  0.00    +0.000 C 
ATOM     30  O   UNL     1       2.846   4.557  17.553  0.00  0.00    +0.000 OA
ENDBRANCH  27  30
ENDBRANCH  21  27
ENDBRANCH  18  23
ENDBRANCH   1  18
TORSDOF 6
ENDMDL
MODEL 7
REMARK VINA RESULT:      -8.0      6.418     10.606
REMARK  Name = 
REMARK  8 active torsions:
REMARK  status: ('A' for Active; 'I' for Inactive)
REMARK    1  A    between atoms: C_1  and  O_2
REMARK    2  A    between atoms: O_2  and  C_3
REMARK    3  A    between atoms: C_3  and  C_5
REMARK    4  A    between atoms: C_7  and  S_8
REMARK    5  A    between atoms: S_8  and  N_11
REMARK    6  A    between atoms: N_11  and  C_12
REMARK    7  A    between atoms: C_18  and  C_19
REMARK    8  A    between atoms: C_28  and  C_29
REMARK                            x       y       z     vdW  Elec       q    Type
REMARK                         _______ _______ _______ _____ _____    ______ ____
ROOT
ATOM      1  N   UNL     1      -0.198   9.065  21.250  0.00  0.00    +0.000 N 
ATOM      2  H   UNL     1      -1.118   9.405  20.968  0.00  0.00    +0.000 HD
ENDROOT
BRANCH   1   3
ATOM      3  C   UNL     1       0.709   8.861  20.157  0.00  0.00    +0.000 A 
ATOM      4  C   UNL     1       1.541   7.733  20.260  0.00  0.00    +0.000 A 
ATOM      5  C   UNL     1       2.369   7.368  19.203  0.00  0.00    +0.000 A 
ATOM      6 BR   UNL     1       3.466   5.837  19.355  0.00  0.00    +0.000 Br
ATOM      7  C   UNL     1       2.375   8.111  18.030  0.00  0.00    +0.000 A 
ATOM      8  C   UNL     1       1.578   9.254  17.937  0.00  0.00    +0.000 A 
ATOM      9  C   UNL     1       0.754   9.674  19.003  0.00  0.00    +0.000 A 
BRANCH   9  10
ATOM     10  C   UNL     1      -0.053  10.918  18.728  0.00  0.00    +0.000 C 
ATOM     11  O   UNL     1      -1.121  10.759  18.125  0.00  0.00    +0.000 OA
ATOM     12  N   UNL     1       0.356  12.197  19.104  0.00  0.00    +0.000 N 
ATOM     13  C   UNL     1      -0.665  13.246  19.232  0.00  0.00    +0.000 C 
ATOM     14  C   UNL     1      -0.228  14.575  18.629  0.00  0.00    +0.000 C 
ATOM     15  C   UNL     1       1.151  14.988  19.139  0.00  0.00    +0.000 C 
ATOM     16  C   UNL     1       2.155  13.882  18.863  0.00  0.00    +0.000 C 
ATOM     17  C   UNL     1       1.706  12.581  19.504  0.00  0.00    +0.000 C 
ENDBRANCH   9  10
ENDBRANCH   1   3
BRANCH   1  18
ATOM     18  S   UNL     1       0.317  10.034  22.544  0.00  0.00    +0.000 S 
ATOM     19  O   UNL     1       1.576  10.613  22.121  0.00  0.00    +0.000 OA
ATOM     20  O   UNL     1       0.228   9.252  23.757  0.00  0.00    +0.000 OA
BRANCH  18  23
ATOM     21  C   UNL     1      -2.503  12.850  23.226  0.00  0.00    +0.000 A 
ATOM     22  C   UNL     1      -2.110  11.479  23.173  0.00  0.00    +0.000 A 
ATOM     23  C   UNL     1      -0.787  11.416  22.757  0.00  0.00    +0.000 A 
ATOM     24  O   UNL     1      -0.369  12.707  22.524  0.00  0.00    +0.000 OA
ATOM     25  C   UNL     1      -1.374  13.560  22.859  0.00  0.00    +0.000 A 
ATOM     26  C   UNL     1      -1.028  14.999  22.824  0.00  0.00    +0.000 C 
BRANCH  21  27
ATOM     27  C   UNL     1      -3.798  13.369  23.616  0.00  0.00    +0.000 C 
ATOM     28  O   UNL     1      -3.923  14.367  24.324  0.00  0.00    +0.000 OA
BRANCH  27  30
ATOM     29  C   UNL     1      -6.077  12.866  23.832  0.00  0.00    +0.000 C 
ATOM     30  O   UNL     1      -4.841  12.622  23.157  0.00  0.00    +0.000 OA
ENDBRANCH  27  30
ENDBRANCH  21  27
ENDBRANCH  18  23
ENDBRANCH   1  18
TORSDOF 6
ENDMDL
MODEL 8
REMARK VINA RESULT:      -7.9      5.520      8.228
REMARK  Name = 
REMARK  8 active torsions:
REMARK  status: ('A' for Active; 'I' for Inactive)
REMARK    1  A    between atoms: C_1  and  O_2
REMARK    2  A    between atoms: O_2  and  C_3
REMARK    3  A    between atoms: C_3  and  C_5
REMARK    4  A    between atoms: C_7  and  S_8
REMARK    5  A    between atoms: S_8  and  N_11
REMARK    6  A    between atoms: N_11  and  C_12
REMARK    7  A    between atoms: C_18  and  C_19
REMARK    8  A    between atoms: C_28  and  C_29
REMARK                            x       y       z     vdW  Elec       q    Type
REMARK                         _______ _______ _______ _____ _____    ______ ____
ROOT
ATOM      1  N   UNL     1       0.686  10.918  21.247  0.00  0.00    +0.000 N 
ATOM      2  H   UNL     1       1.124  10.846  20.328  0.00  0.00    +0.000 HD
ENDROOT
BRANCH   1   3
ATOM      3  C   UNL     1      -0.523  11.690  21.258  0.00  0.00    +0.000 A 
ATOM      4  C   UNL     1      -0.828  12.325  22.474  0.00  0.00    +0.000 A 
ATOM      5  C   UNL     1      -1.906  13.200  22.562  0.00  0.00    +0.000 A 
ATOM      6 BR   UNL     1      -2.287  14.058  24.203  0.00  0.00    +0.000 Br
ATOM      7  C   UNL     1      -2.687  13.463  21.445  0.00  0.00    +0.000 A 
ATOM      8  C   UNL     1      -2.412  12.806  20.244  0.00  0.00    +0.000 A 
ATOM      9  C   UNL     1      -1.348  11.885  20.128  0.00  0.00    +0.000 A 
BRANCH   9  10
ATOM     10  C   UNL     1      -1.181  11.281  18.757  0.00  0.00    +0.000 C 
ATOM     11  O   UNL     1      -0.020  11.164  18.345  0.00  0.00    +0.000 OA
ATOM     12  N   UNL     1      -2.251  10.876  17.960  0.00  0.00    +0.000 N 
ATOM     13  C   UNL     1      -1.996   9.893  16.898  0.00  0.00    +0.000 C 
ATOM     14  C   UNL     1      -2.696  10.239  15.590  0.00  0.00    +0.000 C 
ATOM     15  C   UNL     1      -4.177  10.537  15.816  0.00  0.00    +0.000 C 
ATOM     16  C   UNL     1      -4.329  11.639  16.850  0.00  0.00    +0.000 C 
ATOM     17  C   UNL     1      -3.649  11.248  18.150  0.00  0.00    +0.000 C 
ENDBRANCH   9  10
ENDBRANCH   1   3
BRANCH   1  18
ATOM     18  S   UNL     1       0.638   9.353  21.901  0.00  0.00    +0.000 S 
ATOM     19  O   UNL     1      -0.757   8.963  21.878  0.00  0.00    +0.000 OA
ATOM     20  O   UNL     1       1.389   9.357  23.136  0.00  0.00    +0.000 OA
BRANCH  18  23
ATOM     21  C   UNL     1       2.353   6.398  19.738  0.00  0.00    +0.000 A 
ATOM     22  C   UNL     1       1.693   6.841  20.924  0.00  0.00    +0.000 A 
ATOM     23  C   UNL     1       1.464   8.206  20.816  0.00  0.00    +0.000 A 
ATOM     24  O   UNL     1       1.992   8.617  19.612  0.00  0.00    +0.000 OA
ATOM     25  C   UNL     1       2.468   7.528  18.950  0.00  0.00    +0.000 A 
ATOM     26  C   UNL     1       2.923   7.774  17.562  0.00  0.00    +0.000 C 
BRANCH  21  27
ATOM     27  C   UNL     1       2.771   5.046  19.430  0.00  0.00    +0.000 C 
ATOM     28  O   UNL     1       3.955   4.723  19.353  0.00  0.00    +0.000 OA
BRANCH  27  30
ATOM     29  C   UNL     1       1.377   4.071  17.816  0.00  0.00    +0.000 C 
ATOM     30  O   UNL     1       1.730   4.198  19.196  0.00  0.00    +0.000 OA
ENDBRANCH  27  30
ENDBRANCH  21  27
ENDBRANCH  18  23
ENDBRANCH   1  18
TORSDOF 6
ENDMDL
MODEL 9
REMARK VINA RESULT:      -7.9      1.159      1.360
REMARK  Name = 
REMARK  8 active torsions:
REMARK  status: ('A' for Active; 'I' for Inactive)
REMARK    1  A    between atoms: C_1  and  O_2
REMARK    2  A    between atoms: O_2  and  C_3
REMARK    3  A    between atoms: C_3  and  C_5
REMARK    4  A    between atoms: C_7  and  S_8
REMARK    5  A    between atoms: S_8  and  N_11
REMARK    6  A    between atoms: N_11  and  C_12
REMARK    7  A    between atoms: C_18  and  C_19
REMARK    8  A    between atoms: C_28  and  C_29
REMARK                            x       y       z     vdW  Elec       q    Type
REMARK                         _______ _______ _______ _____ _____    ______ ____
ROOT
ATOM      1  N   UNL     1       4.329   6.197  17.331  0.00  0.00    +0.000 N 
ATOM      2  H   UNL     1       3.894   6.056  16.418  0.00  0.00    +0.000 HD
ENDROOT
BRANCH   1   3
ATOM      3  C   UNL     1       3.523   5.760  18.435  0.00  0.00    +0.000 A 
ATOM      4  C   UNL     1       3.757   4.446  18.875  0.00  0.00    +0.000 A 
ATOM      5  C   UNL     1       3.124   3.961  20.016  0.00  0.00    +0.000 A 
ATOM      6 BR   UNL     1       3.467   2.198  20.603  0.00  0.00    +0.000 Br
ATOM      7  C   UNL     1       2.262   4.776  20.737  0.00  0.00    +0.000 A 
ATOM      8  C   UNL     1       1.997   6.070  20.282  0.00  0.00    +0.000 A 
ATOM      9  C   UNL     1       2.593   6.581  19.110  0.00  0.00    +0.000 A 
BRANCH   9  10
ATOM     10  C   UNL     1       2.212   8.000  18.773  0.00  0.00    +0.000 C 
ATOM     11  O   UNL     1       2.694   8.468  17.734  0.00  0.00    +0.000 OA
ATOM     12  N   UNL     1       1.375   8.781  19.569  0.00  0.00    +0.000 N 
ATOM     13  C   UNL     1       0.691   9.925  18.951  0.00  0.00    +0.000 C 
ATOM     14  C   UNL     1       0.714  11.172  19.825  0.00  0.00    +0.000 C 
ATOM     15  C   UNL     1       0.242  10.863  21.245  0.00  0.00    +0.000 C 
ATOM     16  C   UNL     1       1.081   9.741  21.833  0.00  0.00    +0.000 C 
ATOM     17  C   UNL     1       1.011   8.504  20.955  0.00  0.00    +0.000 C 
ENDBRANCH   9  10
ENDBRANCH   1   3
BRANCH   1  18
ATOM     18  S   UNL     1       5.918   5.613  17.222  0.00  0.00    +0.000 S 
ATOM     19  O   UNL     1       5.951   4.418  18.041  0.00  0.00    +0.000 OA
ATOM     20  O   UNL     1       6.821   6.713  17.474  0.00  0.00    +0.000 OA
BRANCH  18  23
ATOM     21  C   UNL     1       6.250   4.130  13.475  0.00  0.00    +0.000 A 
ATOM     22  C   UNL     1       5.575   4.177  14.733  0.00  0.00    +0.000 A 
ATOM     23  C   UNL     1       6.257   5.055  15.564  0.00  0.00    +0.000 A 
ATOM     24  O   UNL     1       7.346   5.523  14.863  0.00  0.00    +0.000 OA
ATOM     25  C   UNL     1       7.305   5.015  13.602  0.00  0.00    +0.000 A 
ATOM     26  C   UNL     1       8.318   5.551  12.665  0.00  0.00    +0.000 C 
BRANCH  21  27
ATOM     27  C   UNL     1       5.874   3.347  12.316  0.00  0.00    +0.000 C 
ATOM     28  O   UNL     1       4.717   3.292  11.903  0.00  0.00    +0.000 OA
BRANCH  27  30
ATOM     29  C   UNL     1       6.540   1.416  11.164  0.00  0.00    +0.000 C 
ATOM     30  O   UNL     1       6.915   2.656  11.770  0.00  0.00    +0.000 OA
ENDBRANCH  27  30
ENDBRANCH  21  27
ENDBRANCH  18  23
ENDBRANCH   1  18
TORSDOF 6
ENDMDL
