MODEL 1
REMARK VINA RESULT:      -9.1      0.000      0.000
REMARK  Name = 
REMARK  6 active torsions:
REMARK  status: ('A' for Active; 'I' for Inactive)
REMARK    1  A    between atoms: C_2  and  C_23
REMARK    2  A    between atoms: N_3  and  C_4
REMARK    3  A    between atoms: C_8  and  C_9
REMARK    4  A    between atoms: C_9  and  C_11
REMARK    5  A    between atoms: C_17  and  O_18
REMARK    6  A    between atoms: N_19  and  O_20
REMARK                            x       y       z     vdW  Elec       q    Type
REMARK                         _______ _______ _______ _____ _____    ______ ____
ROOT
ATOM      1  C   UNL     1      -0.258  10.170  20.882  0.00  0.00    +0.000 A 
ATOM      2  C   UNL     1      -0.053   9.037  21.666  0.00  0.00    +0.000 A 
ATOM      3  C   UNL     1       0.809   7.987  21.268  0.00  0.00    +0.000 A 
ATOM      4  C   UNL     1       1.492   8.077  20.033  0.00  0.00    +0.000 A 
ATOM      5  C   UNL     1       2.423   7.252  19.297  0.00  0.00    +0.000 A 
ATOM      6  C   UNL     1       2.775   7.974  18.164  0.00  0.00    +0.000 A 
ATOM      7  N   UNL     1       2.062   9.133  18.165  0.00  0.00    +0.000 N 
ATOM      8  C   UNL     1       1.280   9.237  19.280  0.00  0.00    +0.000 A 
ATOM      9  C   UNL     1       0.421  10.274  19.670  0.00  0.00    +0.000 A 
ENDROOT
BRANCH   1  12
ATOM     10  O   UNL     1      -1.044  11.251  23.513  0.00  0.00    +0.000 OA
ATOM     11  C   UNL     1      -1.485  11.684  22.454  0.00  0.00    +0.000 C 
ATOM     12  N   UNL     1      -1.119  11.244  21.197  0.00  0.00    +0.000 N 
ATOM     13  H   UNL     1      -1.548  11.748  20.423  0.00  0.00    +0.000 HD
BRANCH  11  14
ATOM     14  C   UNL     1      -2.551  12.735  22.491  0.00  0.00    +0.000 A 
ATOM     15  C   UNL     1      -2.130  14.053  22.526  0.00  0.00    +0.000 A 
ATOM     16  N   UNL     1      -2.966  15.077  22.792  0.00  0.00    +0.000 NA
ATOM     17  C   UNL     1      -4.233  14.749  23.071  0.00  0.00    +0.000 A 
ATOM     18  C   UNL     1      -5.048  15.758  23.555  0.00  0.00    +0.000 A 
ATOM     19  C   UNL     1      -6.351  15.499  23.962  0.00  0.00    +0.000 A 
ATOM     20  C   UNL     1      -6.872  14.224  23.787  0.00  0.00    +0.000 A 
ATOM     21  C   UNL     1      -6.065  13.203  23.264  0.00  0.00    +0.000 A 
ATOM     22  C   UNL     1      -4.714  13.414  22.962  0.00  0.00    +0.000 A 
ATOM     23  N   UNL     1      -3.866  12.387  22.649  0.00  0.00    +0.000 NA
ENDBRANCH  11  14
ENDBRANCH   1  12
BRANCH   5  24
ATOM     24  C   UNL     1       3.014   5.944  19.556  0.00  0.00    +0.000 C 
ATOM     25  O   UNL     1       4.242   5.826  19.637  0.00  0.00    +0.000 OA
BRANCH  24  26
ATOM     26  C   UNL     1       2.195   4.710  19.621  0.00  0.00    +0.000 A 
ATOM     27  C   UNL     1       1.944   4.139  20.879  0.00  0.00    +0.000 A 
ATOM     28  C   UNL     1       1.261   2.925  20.977  0.00  0.00    +0.000 A 
ATOM     29  C   UNL     1       0.836   2.273  19.821  0.00  0.00    +0.000 A 
ATOM     30  C   UNL     1       1.095   2.828  18.568  0.00  0.00    +0.000 A 
ATOM     31  C   UNL     1       1.783   4.040  18.465  0.00  0.00    +0.000 A 
ENDBRANCH  24  26
ENDBRANCH   5  24
BRANCH   6  32
ATOM     32  O   UNL     1       3.628   7.711  17.175  0.00  0.00    +0.000 OA
ATOM     33  H   UNL     1       3.595   8.481  16.563  0.00  0.00    +0.000 HD
ENDBRANCH   6  32
BRANCH   7  34
ATOM     34  O   UNL     1       2.155  10.106  17.175  0.00  0.00    +0.000 OA
ATOM     35  H   UNL     1       3.113  10.048  17.009  0.00  0.00    +0.000 HD
ENDBRANCH   7  34
TORSDOF 6
ENDMDL
MODEL 2
REMARK VINA RESULT:      -9.1      1.172      1.916
REMARK  Name = 
REMARK  6 active torsions:
REMARK  status: ('A' for Active; 'I' for Inactive)
REMARK    1  A    between atoms: C_2  and  C_23
REMARK    2  A    between atoms: N_3  and  C_4
REMARK    3  A    between atoms: C_8  and  C_9
REMARK    4  A    between atoms: C_9  and  C_11
REMARK    5  A    between atoms: C_17  and  O_18
REMARK    6  A    between atoms: N_19  and  O_20
REMARK                            x       y       z     vdW  Elec       q    Type
REMARK                         _______ _______ _______ _____ _____    ______ ____
ROOT
ATOM      1  C   UNL     1      -0.198  10.057  21.475  0.00  0.00    +0.000 A 
ATOM      2  C   UNL     1       0.185   8.873  22.105  0.00  0.00    +0.000 A 
ATOM      3  C   UNL     1       1.024   7.921  21.480  0.00  0.00    +0.000 A 
ATOM      4  C   UNL     1       1.498   8.164  20.170  0.00  0.00    +0.000 A 
ATOM      5  C   UNL     1       2.341   7.468  19.223  0.00  0.00    +0.000 A 
ATOM      6  C   UNL     1       2.473   8.309  18.126  0.00  0.00    +0.000 A 
ATOM      7  N   UNL     1       1.712   9.415  18.349  0.00  0.00    +0.000 N 
ATOM      8  C   UNL     1       1.112   9.369  19.574  0.00  0.00    +0.000 A 
ATOM      9  C   UNL     1       0.275  10.310  20.190  0.00  0.00    +0.000 A 
ENDROOT
BRANCH   1  12
ATOM     10  O   UNL     1       0.346  12.887  22.113  0.00  0.00    +0.000 OA
ATOM     11  C   UNL     1      -0.731  12.346  22.338  0.00  0.00    +0.000 C 
ATOM     12  N   UNL     1      -1.051  11.041  22.022  0.00  0.00    +0.000 N 
ATOM     13  H   UNL     1      -2.009  10.768  22.236  0.00  0.00    +0.000 HD
BRANCH  11  14
ATOM     14  C   UNL     1      -1.788  13.116  23.068  0.00  0.00    +0.000 A 
ATOM     15  C   UNL     1      -3.104  12.810  22.770  0.00  0.00    +0.000 A 
ATOM     16  N   UNL     1      -4.139  13.574  23.174  0.00  0.00    +0.000 NA
ATOM     17  C   UNL     1      -3.824  14.686  23.850  0.00  0.00    +0.000 A 
ATOM     18  C   UNL     1      -4.849  15.587  24.082  0.00  0.00    +0.000 A 
ATOM     19  C   UNL     1      -4.607  16.812  24.692  0.00  0.00    +0.000 A 
ATOM     20  C   UNL     1      -3.330  17.092  25.162  0.00  0.00    +0.000 A 
ATOM     21  C   UNL     1      -2.292  16.169  24.962  0.00  0.00    +0.000 A 
ATOM     22  C   UNL     1      -2.490  14.984  24.242  0.00  0.00    +0.000 A 
ATOM     23  N   UNL     1      -1.451  14.179  23.863  0.00  0.00    +0.000 NA
ENDBRANCH  11  14
ENDBRANCH   1  12
BRANCH   5  24
ATOM     24  C   UNL     1       3.030   6.183  19.260  0.00  0.00    +0.000 C 
ATOM     25  O   UNL     1       4.241   6.126  19.023  0.00  0.00    +0.000 OA
BRANCH  24  26
ATOM     26  C   UNL     1       2.304   4.908  19.469  0.00  0.00    +0.000 A 
ATOM     27  C   UNL     1       1.846   4.207  18.342  0.00  0.00    +0.000 A 
ATOM     28  C   UNL     1       1.073   3.053  18.496  0.00  0.00    +0.000 A 
ATOM     29  C   UNL     1       0.747   2.604  19.775  0.00  0.00    +0.000 A 
ATOM     30  C   UNL     1       1.187   3.305  20.897  0.00  0.00    +0.000 A 
ATOM     31  C   UNL     1       1.955   4.461  20.747  0.00  0.00    +0.000 A 
ENDBRANCH  24  26
ENDBRANCH   5  24
BRANCH   6  32
ATOM     32  O   UNL     1       3.172   8.191  16.998  0.00  0.00    +0.000 OA
ATOM     33  H   UNL     1       3.269   9.099  16.630  0.00  0.00    +0.000 HD
ENDBRANCH   6  32
BRANCH   7  34
ATOM     34  O   UNL     1       1.599  10.477  17.456  0.00  0.00    +0.000 OA
ATOM     35  H   UNL     1       2.424  10.331  16.959  0.00  0.00    +0.000 HD
ENDBRANCH   7  34
TORSDOF 6
ENDMDL
MODEL 3
REMARK VINA RESULT:      -9.0      3.341      5.390
REMARK  Name = 
REMARK  6 active torsions:
REMARK  status: ('A' for Active; 'I' for Inactive)
REMARK    1  A    between atoms: C_2  and  C_23
REMARK    2  A    between atoms: N_3  and  C_4
REMARK    3  A    between atoms: C_8  and  C_9
REMARK    4  A    between atoms: C_9  and  C_11
REMARK    5  A    between atoms: C_17  and  O_18
REMARK    6  A    between atoms: N_19  and  O_20
REMARK                            x       y       z     vdW  Elec       q    Type
REMARK                         _______ _______ _______ _____ _____    ______ ____
ROOT
ATOM      1  C   UNL     1       2.270   7.783  18.714  0.00  0.00    +0.000 A 
ATOM      2  C   UNL     1       3.189   8.039  17.697  0.00  0.00    +0.000 A 
ATOM      3  C   UNL     1       4.252   7.154  17.398  0.00  0.00    +0.000 A 
ATOM      4  C   UNL     1       4.401   5.966  18.149  0.00  0.00    +0.000 A 
ATOM      5  C   UNL     1       5.318   4.847  18.156  0.00  0.00    +0.000 A 
ATOM      6  C   UNL     1       4.846   3.961  19.115  0.00  0.00    +0.000 A 
ATOM      7  N   UNL     1       3.757   4.521  19.707  0.00  0.00    +0.000 N 
ATOM      8  C   UNL     1       3.451   5.729  19.148  0.00  0.00    +0.000 A 
ATOM      9  C   UNL     1       2.401   6.608  19.450  0.00  0.00    +0.000 A 
ENDROOT
BRANCH   1  12
ATOM     10  O   UNL     1       1.901  10.677  18.265  0.00  0.00    +0.000 OA
ATOM     11  C   UNL     1       1.098   9.989  18.886  0.00  0.00    +0.000 C 
ATOM     12  N   UNL     1       1.201   8.627  19.088  0.00  0.00    +0.000 N 
ATOM     13  H   UNL     1       0.420   8.205  19.585  0.00  0.00    +0.000 HD
BRANCH  11  14
ATOM     14  C   UNL     1      -0.070  10.658  19.543  0.00  0.00    +0.000 A 
ATOM     15  C   UNL     1      -0.936  11.355  18.718  0.00  0.00    +0.000 A 
ATOM     16  N   UNL     1      -1.884  12.187  19.196  0.00  0.00    +0.000 NA
ATOM     17  C   UNL     1      -1.918  12.343  20.525  0.00  0.00    +0.000 A 
ATOM     18  C   UNL     1      -2.734  13.348  21.016  0.00  0.00    +0.000 A 
ATOM     19  C   UNL     1      -2.768  13.652  22.371  0.00  0.00    +0.000 A 
ATOM     20  C   UNL     1      -2.043  12.867  23.257  0.00  0.00    +0.000 A 
ATOM     21  C   UNL     1      -1.240  11.822  22.773  0.00  0.00    +0.000 A 
ATOM     22  C   UNL     1      -1.098  11.579  21.401  0.00  0.00    +0.000 A 
ATOM     23  N   UNL     1      -0.168  10.705  20.907  0.00  0.00    +0.000 NA
ENDBRANCH  11  14
ENDBRANCH   1  12
BRANCH   5  24
ATOM     24  C   UNL     1       6.502   4.526  17.367  0.00  0.00    +0.000 C 
ATOM     25  O   UNL     1       7.586   4.342  17.929  0.00  0.00    +0.000 OA
BRANCH  24  26
ATOM     26  C   UNL     1       6.479   4.515  15.885  0.00  0.00    +0.000 A 
ATOM     27  C   UNL     1       5.449   3.816  15.236  0.00  0.00    +0.000 A 
ATOM     28  C   UNL     1       5.446   3.699  13.844  0.00  0.00    +0.000 A 
ATOM     29  C   UNL     1       6.476   4.270  13.098  0.00  0.00    +0.000 A 
ATOM     30  C   UNL     1       7.509   4.953  13.738  0.00  0.00    +0.000 A 
ATOM     31  C   UNL     1       7.519   5.068  15.130  0.00  0.00    +0.000 A 
ENDBRANCH  24  26
ENDBRANCH   5  24
BRANCH   6  32
ATOM     32  O   UNL     1       5.275   2.759  19.498  0.00  0.00    +0.000 OA
ATOM     33  H   UNL     1       4.477   2.249  19.768  0.00  0.00    +0.000 HD
ENDBRANCH   6  32
BRANCH   7  34
ATOM     34  O   UNL     1       3.023   3.915  20.723  0.00  0.00    +0.000 OA
ATOM     35  H   UNL     1       2.310   3.540  20.177  0.00  0.00    +0.000 HD
ENDBRANCH   7  34
TORSDOF 6
ENDMDL
MODEL 4
REMARK VINA RESULT:      -8.9      3.076      5.145
REMARK  Name = 
REMARK  6 active torsions:
REMARK  status: ('A' for Active; 'I' for Inactive)
REMARK    1  A    between atoms: C_2  and  C_23
REMARK    2  A    between atoms: N_3  and  C_4
REMARK    3  A    between atoms: C_8  and  C_9
REMARK    4  A    between atoms: C_9  and  C_11
REMARK    5  A    between atoms: C_17  and  O_18
REMARK    6  A    between atoms: N_19  and  O_20
REMARK                            x       y       z     vdW  Elec       q    Type
REMARK                         _______ _______ _______ _____ _____    ______ ____
ROOT
ATOM      1  C   UNL     1       1.770   7.446  20.100  0.00  0.00    +0.000 A 
ATOM      2  C   UNL     1       2.669   7.522  19.038  0.00  0.00    +0.000 A 
ATOM      3  C   UNL     1       3.193   6.370  18.405  0.00  0.00    +0.000 A 
ATOM      4  C   UNL     1       2.800   5.089  18.856  0.00  0.00    +0.000 A 
ATOM      5  C   UNL     1       3.096   3.721  18.490  0.00  0.00    +0.000 A 
ATOM      6  C   UNL     1       2.300   2.920  19.297  0.00  0.00    +0.000 A 
ATOM      7  N   UNL     1       1.612   3.729  20.148  0.00  0.00    +0.000 N 
ATOM      8  C   UNL     1       1.881   5.046  19.910  0.00  0.00    +0.000 A 
ATOM      9  C   UNL     1       1.367   6.187  20.542  0.00  0.00    +0.000 A 
ENDROOT
BRANCH   1  12
ATOM     10  O   UNL     1       0.282   9.781  19.079  0.00  0.00    +0.000 OA
ATOM     11  C   UNL     1       0.569   9.636  20.262  0.00  0.00    +0.000 C 
ATOM     12  N   UNL     1       1.225   8.546  20.797  0.00  0.00    +0.000 N 
ATOM     13  H   UNL     1       1.340   8.566  21.809  0.00  0.00    +0.000 HD
BRANCH  11  14
ATOM     14  C   UNL     1       0.251  10.741  21.223  0.00  0.00    +0.000 A 
ATOM     15  C   UNL     1      -0.479  10.399  22.348  0.00  0.00    +0.000 A 
ATOM     16  N   UNL     1      -1.028  11.320  23.167  0.00  0.00    +0.000 NA
ATOM     17  C   UNL     1      -0.868  12.600  22.808  0.00  0.00    +0.000 A 
ATOM     18  C   UNL     1      -1.601  13.541  23.509  0.00  0.00    +0.000 A 
ATOM     19  C   UNL     1      -1.578  14.884  23.154  0.00  0.00    +0.000 A 
ATOM     20  C   UNL     1      -0.728  15.298  22.137  0.00  0.00    +0.000 A 
ATOM     21  C   UNL     1       0.046  14.356  21.443  0.00  0.00    +0.000 A 
ATOM     22  C   UNL     1      -0.056  12.984  21.706  0.00  0.00    +0.000 A 
ATOM     23  N   UNL     1       0.532  12.042  20.906  0.00  0.00    +0.000 NA
ENDBRANCH  11  14
ENDBRANCH   1  12
BRANCH   5  24
ATOM     24  C   UNL     1       3.971   3.126  17.486  0.00  0.00    +0.000 C 
ATOM     25  O   UNL     1       3.863   1.927  17.207  0.00  0.00    +0.000 OA
BRANCH  24  26
ATOM     26  C   UNL     1       5.073   3.889  16.854  0.00  0.00    +0.000 A 
ATOM     27  C   UNL     1       5.044   4.079  15.463  0.00  0.00    +0.000 A 
ATOM     28  C   UNL     1       6.110   4.705  14.815  0.00  0.00    +0.000 A 
ATOM     29  C   UNL     1       7.214   5.134  15.551  0.00  0.00    +0.000 A 
ATOM     30  C   UNL     1       7.255   4.934  16.931  0.00  0.00    +0.000 A 
ATOM     31  C   UNL     1       6.192   4.304  17.582  0.00  0.00    +0.000 A 
ENDBRANCH  24  26
ENDBRANCH   5  24
BRANCH   6  32
ATOM     32  O   UNL     1       2.137   1.598  19.349  0.00  0.00    +0.000 OA
ATOM     33  H   UNL     1       3.038   1.204  19.368  0.00  0.00    +0.000 HD
ENDBRANCH   6  32
BRANCH   7  34
ATOM     34  O   UNL     1       0.715   3.270  21.108  0.00  0.00    +0.000 OA
ATOM     35  H   UNL     1       0.541   2.390  20.728  0.00  0.00    +0.000 HD
ENDBRANCH   7  34
TORSDOF 6
ENDMDL
MODEL 5
REMARK VINA RESULT:      -8.8      0.885      1.252
REMARK  Name = 
REMARK  6 active torsions:
REMARK  status: ('A' for Active; 'I' for Inactive)
REMARK    1  A    between atoms: C_2  and  C_23
REMARK    2  A    between atoms: N_3  and  C_4
REMARK    3  A    between atoms: C_8  and  C_9
REMARK    4  A    between atoms: C_9  and  C_11
REMARK    5  A    between atoms: C_17  and  O_18
REMARK    6  A    between atoms: N_19  and  O_20
REMARK                            x       y       z     vdW  Elec       q    Type
REMARK                         _______ _______ _______ _____ _____    ______ ____
ROOT
ATOM      1  C   UNL     1      -0.123  10.068  20.950  0.00  0.00    +0.000 A 
ATOM      2  C   UNL     1       0.139   8.954  21.746  0.00  0.00    +0.000 A 
ATOM      3  C   UNL     1       0.999   7.911  21.329  0.00  0.00    +0.000 A 
ATOM      4  C   UNL     1       1.621   7.987  20.061  0.00  0.00    +0.000 A 
ATOM      5  C   UNL     1       2.532   7.162  19.298  0.00  0.00    +0.000 A 
ATOM      6  C   UNL     1       2.817   7.867  18.136  0.00  0.00    +0.000 A 
ATOM      7  N   UNL     1       2.084   9.013  18.148  0.00  0.00    +0.000 N 
ATOM      8  C   UNL     1       1.354   9.127  19.296  0.00  0.00    +0.000 A 
ATOM      9  C   UNL     1       0.496  10.158  19.705  0.00  0.00    +0.000 A 
ENDROOT
BRANCH   1  12
ATOM     10  O   UNL     1       0.512  12.798  21.875  0.00  0.00    +0.000 OA
ATOM     11  C   UNL     1      -0.635  12.384  21.752  0.00  0.00    +0.000 C 
ATOM     12  N   UNL     1      -0.988  11.134  21.285  0.00  0.00    +0.000 N 
ATOM     13  H   UNL     1      -1.989  10.972  21.201  0.00  0.00    +0.000 HD
BRANCH  11  14
ATOM     14  C   UNL     1      -1.769  13.258  22.192  0.00  0.00    +0.000 A 
ATOM     15  C   UNL     1      -1.639  13.879  23.423  0.00  0.00    +0.000 A 
ATOM     16  N   UNL     1      -2.667  14.498  24.038  0.00  0.00    +0.000 NA
ATOM     17  C   UNL     1      -3.849  14.442  23.413  0.00  0.00    +0.000 A 
ATOM     18  C   UNL     1      -4.953  14.879  24.125  0.00  0.00    +0.000 A 
ATOM     19  C   UNL     1      -6.236  14.776  23.601  0.00  0.00    +0.000 A 
ATOM     20  C   UNL     1      -6.399  14.315  22.302  0.00  0.00    +0.000 A 
ATOM     21  C   UNL     1      -5.282  13.903  21.559  0.00  0.00    +0.000 A 
ATOM     22  C   UNL     1      -3.996  13.885  22.113  0.00  0.00    +0.000 A 
ATOM     23  N   UNL     1      -2.936  13.297  21.478  0.00  0.00    +0.000 NA
ENDBRANCH  11  14
ENDBRANCH   1  12
BRANCH   5  24
ATOM     24  C   UNL     1       3.157   5.870  19.555  0.00  0.00    +0.000 C 
ATOM     25  O   UNL     1       4.389   5.780  19.603  0.00  0.00    +0.000 OA
BRANCH  24  26
ATOM     26  C   UNL     1       2.366   4.620  19.655  0.00  0.00    +0.000 A 
ATOM     27  C   UNL     1       1.861   4.052  18.475  0.00  0.00    +0.000 A 
ATOM     28  C   UNL     1       1.030   2.931  18.533  0.00  0.00    +0.000 A 
ATOM     29  C   UNL     1       0.693   2.381  19.769  0.00  0.00    +0.000 A 
ATOM     30  C   UNL     1       1.181   2.950  20.945  0.00  0.00    +0.000 A 
ATOM     31  C   UNL     1       2.008   4.074  20.891  0.00  0.00    +0.000 A 
ENDBRANCH  24  26
ENDBRANCH   5  24
BRANCH   6  32
ATOM     32  O   UNL     1       3.627   7.598  17.113  0.00  0.00    +0.000 OA
ATOM     33  H   UNL     1       4.482   8.047  17.306  0.00  0.00    +0.000 HD
ENDBRANCH   6  32
BRANCH   7  34
ATOM     34  O   UNL     1       2.113   9.968  17.135  0.00  0.00    +0.000 OA
ATOM     35  H   UNL     1       2.610  10.660  17.608  0.00  0.00    +0.000 HD
ENDBRANCH   7  34
TORSDOF 6
ENDMDL
MODEL 6
REMARK VINA RESULT:      -8.8      3.084     10.524
REMARK  Name = 
REMARK  6 active torsions:
REMARK  status: ('A' for Active; 'I' for Inactive)
REMARK    1  A    between atoms: C_2  and  C_23
REMARK    2  A    between atoms: N_3  and  C_4
REMARK    3  A    between atoms: C_8  and  C_9
REMARK    4  A    between atoms: C_9  and  C_11
REMARK    5  A    between atoms: C_17  and  O_18
REMARK    6  A    between atoms: N_19  and  O_20
REMARK                            x       y       z     vdW  Elec       q    Type
REMARK                         _______ _______ _______ _____ _____    ______ ____
ROOT
ATOM      1  C   UNL     1       1.381   8.925  19.072  0.00  0.00    +0.000 A 
ATOM      2  C   UNL     1       0.663   9.774  18.232  0.00  0.00    +0.000 A 
ATOM      3  C   UNL     1      -0.227  10.756  18.729  0.00  0.00    +0.000 A 
ATOM      4  C   UNL     1      -0.405  10.890  20.126  0.00  0.00    +0.000 A 
ATOM      5  C   UNL     1      -1.190  11.736  20.998  0.00  0.00    +0.000 A 
ATOM      6  C   UNL     1      -0.834  11.396  22.296  0.00  0.00    +0.000 A 
ATOM      7  N   UNL     1       0.055  10.368  22.233  0.00  0.00    +0.000 N 
ATOM      8  C   UNL     1       0.346  10.037  20.941  0.00  0.00    +0.000 A 
ATOM      9  C   UNL     1       1.222   9.060  20.449  0.00  0.00    +0.000 A 
ENDROOT
BRANCH   1  12
ATOM     10  O   UNL     1       1.874   6.254  20.227  0.00  0.00    +0.000 OA
ATOM     11  C   UNL     1       2.485   6.685  19.255  0.00  0.00    +0.000 C 
ATOM     12  N   UNL     1       2.265   7.907  18.651  0.00  0.00    +0.000 N 
ATOM     13  H   UNL     1       2.830   8.086  17.823  0.00  0.00    +0.000 HD
BRANCH  11  14
ATOM     14  C   UNL     1       3.609   5.873  18.690  0.00  0.00    +0.000 A 
ATOM     15  C   UNL     1       4.552   5.400  19.586  0.00  0.00    +0.000 A 
ATOM     16  N   UNL     1       5.724   4.861  19.193  0.00  0.00    +0.000 NA
ATOM     17  C   UNL     1       5.955   4.846  17.875  0.00  0.00    +0.000 A 
ATOM     18  C   UNL     1       7.231   4.499  17.468  0.00  0.00    +0.000 A 
ATOM     19  C   UNL     1       7.599   4.543  16.129  0.00  0.00    +0.000 A 
ATOM     20  C   UNL     1       6.637   4.849  15.175  0.00  0.00    +0.000 A 
ATOM     21  C   UNL     1       5.330   5.168  15.575  0.00  0.00    +0.000 A 
ATOM     22  C   UNL     1       4.973   5.247  16.927  0.00  0.00    +0.000 A 
ATOM     23  N   UNL     1       3.769   5.753  17.335  0.00  0.00    +0.000 NA
ENDBRANCH  11  14
ENDBRANCH   1  12
BRANCH   5  24
ATOM     24  C   UNL     1      -2.155  12.800  20.748  0.00  0.00    +0.000 C 
ATOM     25  O   UNL     1      -1.886  13.964  21.066  0.00  0.00    +0.000 OA
BRANCH  24  26
ATOM     26  C   UNL     1      -3.511  12.523  20.217  0.00  0.00    +0.000 A 
ATOM     27  C   UNL     1      -4.613  12.711  21.065  0.00  0.00    +0.000 A 
ATOM     28  C   UNL     1      -5.898  12.368  20.638  0.00  0.00    +0.000 A 
ATOM     29  C   UNL     1      -6.084  11.827  19.366  0.00  0.00    +0.000 A 
ATOM     30  C   UNL     1      -4.990  11.625  18.525  0.00  0.00    +0.000 A 
ATOM     31  C   UNL     1      -3.704  11.962  18.950  0.00  0.00    +0.000 A 
ENDBRANCH  24  26
ENDBRANCH   5  24
BRANCH   6  32
ATOM     32  O   UNL     1      -1.210  11.888  23.476  0.00  0.00    +0.000 OA
ATOM     33  H   UNL     1      -0.496  12.501  23.765  0.00  0.00    +0.000 HD
ENDBRANCH   6  32
BRANCH   7  34
ATOM     34  O   UNL     1       0.627   9.763  23.349  0.00  0.00    +0.000 OA
ATOM     35  H   UNL     1       0.713   8.861  22.992  0.00  0.00    +0.000 HD
ENDBRANCH   7  34
TORSDOF 6
ENDMDL
MODEL 7
REMARK VINA RESULT:      -8.7      3.020      4.890
REMARK  Name = 
REMARK  6 active torsions:
REMARK  status: ('A' for Active; 'I' for Inactive)
REMARK    1  A    between atoms: C_2  and  C_23
REMARK    2  A    between atoms: N_3  and  C_4
REMARK    3  A    between atoms: C_8  and  C_9
REMARK    4  A    between atoms: C_9  and  C_11
REMARK    5  A    between atoms: C_17  and  O_18
REMARK    6  A    between atoms: N_19  and  O_20
REMARK                            x       y       z     vdW  Elec       q    Type
REMARK                         _______ _______ _______ _____ _____    ______ ____
ROOT
ATOM      1  C   UNL     1       1.800   7.775  20.033  0.00  0.00    +0.000 A 
ATOM      2  C   UNL     1       2.273   7.742  18.723  0.00  0.00    +0.000 A 
ATOM      3  C   UNL     1       2.832   6.576  18.149  0.00  0.00    +0.000 A 
ATOM      4  C   UNL     1       2.921   5.394  18.921  0.00  0.00    +0.000 A 
ATOM      5  C   UNL     1       3.406   4.048  18.710  0.00  0.00    +0.000 A 
ATOM      6  C   UNL     1       3.122   3.344  19.873  0.00  0.00    +0.000 A 
ATOM      7  N   UNL     1       2.563   4.208  20.762  0.00  0.00    +0.000 N 
ATOM      8  C   UNL     1       2.418   5.454  20.225  0.00  0.00    +0.000 A 
ATOM      9  C   UNL     1       1.871   6.611  20.796  0.00  0.00    +0.000 A 
ENDROOT
BRANCH   1  12
ATOM     10  O   UNL     1      -0.692   8.037  21.594  0.00  0.00    +0.000 OA
ATOM     11  C   UNL     1       0.058   8.980  21.369  0.00  0.00    +0.000 C 
ATOM     12  N   UNL     1       1.254   8.904  20.683  0.00  0.00    +0.000 N 
ATOM     13  H   UNL     1       1.776   9.776  20.629  0.00  0.00    +0.000 HD
BRANCH  11  14
ATOM     14  C   UNL     1      -0.354  10.351  21.809  0.00  0.00    +0.000 A 
ATOM     15  C   UNL     1      -0.910  10.462  23.071  0.00  0.00    +0.000 A 
ATOM     16  N   UNL     1      -1.530  11.582  23.498  0.00  0.00    +0.000 NA
ATOM     17  C   UNL     1      -1.623  12.580  22.611  0.00  0.00    +0.000 A 
ATOM     18  C   UNL     1      -2.438  13.645  22.953  0.00  0.00    +0.000 A 
ATOM     19  C   UNL     1      -2.675  14.686  22.063  0.00  0.00    +0.000 A 
ATOM     20  C   UNL     1      -2.004  14.701  20.848  0.00  0.00    +0.000 A 
ATOM     21  C   UNL     1      -1.148  13.643  20.507  0.00  0.00    +0.000 A 
ATOM     22  C   UNL     1      -0.991  12.526  21.338  0.00  0.00    +0.000 A 
ATOM     23  N   UNL     1      -0.327  11.401  20.931  0.00  0.00    +0.000 NA
ENDBRANCH  11  14
ENDBRANCH   1  12
BRANCH   5  24
ATOM     24  C   UNL     1       4.038   3.384  17.576  0.00  0.00    +0.000 C 
ATOM     25  O   UNL     1       3.725   2.223  17.288  0.00  0.00    +0.000 OA
BRANCH  24  26
ATOM     26  C   UNL     1       5.135   4.016  16.806  0.00  0.00    +0.000 A 
ATOM     27  C   UNL     1       5.131   3.889  15.408  0.00  0.00    +0.000 A 
ATOM     28  C   UNL     1       6.196   4.385  14.652  0.00  0.00    +0.000 A 
ATOM     29  C   UNL     1       7.273   4.998  15.291  0.00  0.00    +0.000 A 
ATOM     30  C   UNL     1       7.289   5.114  16.681  0.00  0.00    +0.000 A 
ATOM     31  C   UNL     1       6.228   4.615  17.440  0.00  0.00    +0.000 A 
ENDBRANCH  24  26
ENDBRANCH   5  24
BRANCH   6  32
ATOM     32  O   UNL     1       3.306   2.066  20.202  0.00  0.00    +0.000 OA
ATOM     33  H   UNL     1       4.251   1.976  20.462  0.00  0.00    +0.000 HD
ENDBRANCH   6  32
BRANCH   7  34
ATOM     34  O   UNL     1       2.151   3.850  22.044  0.00  0.00    +0.000 OA
ATOM     35  H   UNL     1       1.351   4.404  22.094  0.00  0.00    +0.000 HD
ENDBRANCH   7  34
TORSDOF 6
ENDMDL
MODEL 8
REMARK VINA RESULT:      -8.7      3.859      5.916
REMARK  Name = 
REMARK  6 active torsions:
REMARK  status: ('A' for Active; 'I' for Inactive)
REMARK    1  A    between atoms: C_2  and  C_23
REMARK    2  A    between atoms: N_3  and  C_4
REMARK    3  A    between atoms: C_8  and  C_9
REMARK    4  A    between atoms: C_9  and  C_11
REMARK    5  A    between atoms: C_17  and  O_18
REMARK    6  A    between atoms: N_19  and  O_20
REMARK                            x       y       z     vdW  Elec       q    Type
REMARK                         _______ _______ _______ _____ _____    ______ ____
ROOT
ATOM      1  C   UNL     1       2.397   7.665  18.066  0.00  0.00    +0.000 A 
ATOM      2  C   UNL     1       3.552   8.119  17.431  0.00  0.00    +0.000 A 
ATOM      3  C   UNL     1       4.560   7.238  16.972  0.00  0.00    +0.000 A 
ATOM      4  C   UNL     1       4.404   5.845  17.159  0.00  0.00    +0.000 A 
ATOM      5  C   UNL     1       5.173   4.661  16.847  0.00  0.00    +0.000 A 
ATOM      6  C   UNL     1       4.400   3.577  17.241  0.00  0.00    +0.000 A 
ATOM      7  N   UNL     1       3.264   4.057  17.816  0.00  0.00    +0.000 N 
ATOM      8  C   UNL     1       3.225   5.421  17.781  0.00  0.00    +0.000 A 
ATOM      9  C   UNL     1       2.229   6.294  18.242  0.00  0.00    +0.000 A 
ENDROOT
BRANCH   1  12
ATOM     10  O   UNL     1       2.074  10.597  17.951  0.00  0.00    +0.000 OA
ATOM     11  C   UNL     1       1.281   9.859  18.525  0.00  0.00    +0.000 C 
ATOM     12  N   UNL     1       1.362   8.482  18.573  0.00  0.00    +0.000 N 
ATOM     13  H   UNL     1       0.591   8.022  19.053  0.00  0.00    +0.000 HD
BRANCH  11  14
ATOM     14  C   UNL     1       0.154  10.472  19.298  0.00  0.00    +0.000 A 
ATOM     15  C   UNL     1      -0.671  11.347  18.613  0.00  0.00    +0.000 A 
ATOM     16  N   UNL     1      -1.570  12.137  19.234  0.00  0.00    +0.000 NA
ATOM     17  C   UNL     1      -1.593  12.068  20.571  0.00  0.00    +0.000 A 
ATOM     18  C   UNL     1      -2.349  13.021  21.232  0.00  0.00    +0.000 A 
ATOM     19  C   UNL     1      -2.364  13.093  22.620  0.00  0.00    +0.000 A 
ATOM     20  C   UNL     1      -1.684  12.129  23.353  0.00  0.00    +0.000 A 
ATOM     21  C   UNL     1      -0.944  11.138  22.691  0.00  0.00    +0.000 A 
ATOM     22  C   UNL     1      -0.817  11.122  21.296  0.00  0.00    +0.000 A 
ATOM     23  N   UNL     1       0.060  10.294  20.652  0.00  0.00    +0.000 NA
ENDBRANCH  11  14
ENDBRANCH   1  12
BRANCH   5  24
ATOM     24  C   UNL     1       6.471   4.456  16.214  0.00  0.00    +0.000 C 
ATOM     25  O   UNL     1       7.488   4.361  16.909  0.00  0.00    +0.000 OA
BRANCH  24  26
ATOM     26  C   UNL     1       6.637   4.462  14.741  0.00  0.00    +0.000 A 
ATOM     27  C   UNL     1       5.866   3.573  13.977  0.00  0.00    +0.000 A 
ATOM     28  C   UNL     1       6.060   3.477  12.597  0.00  0.00    +0.000 A 
ATOM     29  C   UNL     1       7.033   4.262  11.979  0.00  0.00    +0.000 A 
ATOM     30  C   UNL     1       7.812   5.137  12.735  0.00  0.00    +0.000 A 
ATOM     31  C   UNL     1       7.623   5.231  14.116  0.00  0.00    +0.000 A 
ENDBRANCH  24  26
ENDBRANCH   5  24
BRANCH   6  32
ATOM     32  O   UNL     1       4.600   2.263  17.143  0.00  0.00    +0.000 OA
ATOM     33  H   UNL     1       4.689   2.063  16.184  0.00  0.00    +0.000 HD
ENDBRANCH   6  32
BRANCH   7  34
ATOM     34  O   UNL     1       2.253   3.252  18.335  0.00  0.00    +0.000 OA
ATOM     35  H   UNL     1       1.499   3.659  17.872  0.00  0.00    +0.000 HD
ENDBRANCH   7  34
TORSDOF 6
ENDMDL
MODEL 9
REMARK VINA RESULT:      -8.7      2.982      4.757
REMARK  Name = 
REMARK  6 active torsions:
REMARK  status: ('A' for Active; 'I' for Inactive)
REMARK    1  A    between atoms: C_2  and  C_23
REMARK    2  A    between atoms: N_3  and  C_4
REMARK    3  A    between atoms: C_8  and  C_9
REMARK    4  A    between atoms: C_9  and  C_11
REMARK    5  A    between atoms: C_17  and  O_18
REMARK    6  A    between atoms: N_19  and  O_20
REMARK                            x       y       z     vdW  Elec       q    Type
REMARK                         _______ _______ _______ _____ _____    ______ ____
ROOT
ATOM      1  C   UNL     1       1.868   8.039  19.681  0.00  0.00    +0.000 A 
ATOM      2  C   UNL     1       2.341   7.915  18.376  0.00  0.00    +0.000 A 
ATOM      3  C   UNL     1       2.888   6.707  17.881  0.00  0.00    +0.000 A 
ATOM      4  C   UNL     1       2.964   5.578  18.730  0.00  0.00    +0.000 A 
ATOM      5  C   UNL     1       3.435   4.216  18.609  0.00  0.00    +0.000 A 
ATOM      6  C   UNL     1       3.144   3.594  19.816  0.00  0.00    +0.000 A 
ATOM      7  N   UNL     1       2.595   4.521  20.646  0.00  0.00    +0.000 N 
ATOM      8  C   UNL     1       2.463   5.730  20.027  0.00  0.00    +0.000 A 
ATOM      9  C   UNL     1       1.928   6.928  20.520  0.00  0.00    +0.000 A 
ENDROOT
BRANCH   1  12
ATOM     10  O   UNL     1      -0.422   8.378  21.512  0.00  0.00    +0.000 OA
ATOM     11  C   UNL     1       0.231   9.320  21.077  0.00  0.00    +0.000 C 
ATOM     12  N   UNL     1       1.335   9.215  20.254  0.00  0.00    +0.000 N 
ATOM     13  H   UNL     1       1.788  10.097  20.027  0.00  0.00    +0.000 HD
BRANCH  11  14
ATOM     14  C   UNL     1      -0.212  10.714  21.397  0.00  0.00    +0.000 A 
ATOM     15  C   UNL     1       0.696  11.730  21.153  0.00  0.00    +0.000 A 
ATOM     16  N   UNL     1       0.519  12.989  21.605  0.00  0.00    +0.000 NA
ATOM     17  C   UNL     1      -0.572  13.201  22.351  0.00  0.00    +0.000 A 
ATOM     18  C   UNL     1      -0.659  14.421  22.998  0.00  0.00    +0.000 A 
ATOM     19  C   UNL     1      -1.704  14.702  23.869  0.00  0.00    +0.000 A 
ATOM     20  C   UNL     1      -2.729  13.777  24.014  0.00  0.00    +0.000 A 
ATOM     21  C   UNL     1      -2.668  12.551  23.334  0.00  0.00    +0.000 A 
ATOM     22  C   UNL     1      -1.563  12.200  22.548  0.00  0.00    +0.000 A 
ATOM     23  N   UNL     1      -1.394  10.937  22.049  0.00  0.00    +0.000 NA
ENDBRANCH  11  14
ENDBRANCH   1  12
BRANCH   5  24
ATOM     24  C   UNL     1       4.059   3.471  17.521  0.00  0.00    +0.000 C 
ATOM     25  O   UNL     1       3.760   2.287  17.333  0.00  0.00    +0.000 OA
BRANCH  24  26
ATOM     26  C   UNL     1       5.135   4.055  16.685  0.00  0.00    +0.000 A 
ATOM     27  C   UNL     1       4.954   4.092  15.293  0.00  0.00    +0.000 A 
ATOM     28  C   UNL     1       5.981   4.543  14.461  0.00  0.00    +0.000 A 
ATOM     29  C   UNL     1       7.194   4.947  15.015  0.00  0.00    +0.000 A 
ATOM     30  C   UNL     1       7.384   4.899  16.396  0.00  0.00    +0.000 A 
ATOM     31  C   UNL     1       6.362   4.444  17.230  0.00  0.00    +0.000 A 
ENDBRANCH  24  26
ENDBRANCH   5  24
BRANCH   6  32
ATOM     32  O   UNL     1       3.315   2.339  20.229  0.00  0.00    +0.000 OA
ATOM     33  H   UNL     1       4.279   2.152  20.170  0.00  0.00    +0.000 HD
ENDBRANCH   6  32
BRANCH   7  34
ATOM     34  O   UNL     1       2.180   4.253  21.948  0.00  0.00    +0.000 OA
ATOM     35  H   UNL     1       2.832   3.563  22.164  0.00  0.00    +0.000 HD
ENDBRANCH   7  34
TORSDOF 6
ENDMDL
