MODEL 1
REMARK VINA RESULT:      -9.1      0.000      0.000
REMARK  Name = 
REMARK  6 active torsions:
REMARK  status: ('A' for Active; 'I' for Inactive)
REMARK    1  A    between atoms: C_1  and  C_2
REMARK    2  A    between atoms: C_5  and  C_6
REMARK    3  A    between atoms: N_7  and  N_8
REMARK    4  A    between atoms: C_9  and  C_11
REMARK    5  A    between atoms: C_21  and  C_22
REMARK    6  A    between atoms: C_25  and  N_26
REMARK                            x       y       z     vdW  Elec       q    Type
REMARK                         _______ _______ _______ _____ _____    ______ ____
ROOT
ATOM      1  C   UNL     1       5.948   5.921  17.564  0.00  0.00    +0.000 A 
ATOM      2  N   UNL     1       6.563   4.706  17.403  0.00  0.00    +0.000 NA
ATOM      3  N   UNL     1       5.697   3.759  17.722  0.00  0.00    +0.000 NA
ATOM      4  N   UNL     1       4.470   4.326  17.888  0.00  0.00    +0.000 N 
ATOM      5  C   UNL     1       3.282   3.549  17.950  0.00  0.00    +0.000 A 
ATOM      6  N   UNL     1       2.112   4.078  17.583  0.00  0.00    +0.000 NA
ATOM      7  O   UNL     1       1.194   3.052  17.773  0.00  0.00    +0.000 OA
ATOM      8  N   UNL     1       1.815   1.906  18.249  0.00  0.00    +0.000 NA
ATOM      9  C   UNL     1       3.109   2.210  18.347  0.00  0.00    +0.000 A 
ATOM     10  N   UNL     1       4.034   1.364  18.833  0.00  0.00    +0.000 N 
ATOM     11  C   UNL     1       4.624   5.727  17.954  0.00  0.00    +0.000 A 
ATOM     12  H   UNL     1       3.723   0.491  19.249  0.00  0.00    +0.000 HD
ATOM     13  H   UNL     1       4.966   1.659  19.109  0.00  0.00    +0.000 HD
ENDROOT
BRANCH  11  14
ATOM     14  C   UNL     1       3.551   6.674  18.310  0.00  0.00    +0.000 A 
ATOM     15  C   UNL     1       3.116   7.656  17.400  0.00  0.00    +0.000 A 
ATOM     16  C   UNL     1       2.250   8.681  17.794  0.00  0.00    +0.000 A 
ATOM     17  C   UNL     1       1.728   8.676  19.089  0.00  0.00    +0.000 A 
ATOM     18  C   UNL     1       2.047   7.641  19.973  0.00  0.00    +0.000 A 
ATOM     19  C   UNL     1       2.966   6.658  19.585  0.00  0.00    +0.000 A 
BRANCH  17  20
ATOM     20  N   UNL     1       0.865   9.775  19.532  0.00  0.00    +0.000 N 
ATOM     21  O   UNL     1       0.876  10.066  20.737  0.00  0.00    +0.000 OA
ATOM     22  O   UNL     1       0.163  10.338  18.681  0.00  0.00    +0.000 OA
ENDBRANCH  17  20
ENDBRANCH  11  14
BRANCH   1  24
ATOM     23  N   UNL     1       7.792   7.308  18.232  0.00  0.00    +0.000 N 
ATOM     24  C   UNL     1       6.678   7.183  17.404  0.00  0.00    +0.000 C 
ATOM     25  O   UNL     1       6.337   8.027  16.578  0.00  0.00    +0.000 OA
ATOM     26  H   UNL     1       8.033   6.567  18.879  0.00  0.00    +0.000 HD
BRANCH  23  28
ATOM     27  C   UNL     1       8.636   9.217  19.146  0.00  0.00    +0.000 C 
ATOM     28  N   UNL     1       8.587   8.421  18.125  0.00  0.00    +0.000 NA
BRANCH  27  33
ATOM     29  C   UNL     1      11.876  14.026  18.987  0.00  0.00    +0.000 C 
ATOM     30  C   UNL     1      11.019  12.794  19.040  0.00  0.00    +0.000 A 
ATOM     31  C   UNL     1      10.689  12.199  20.266  0.00  0.00    +0.000 A 
ATOM     32  C   UNL     1       9.906  11.043  20.307  0.00  0.00    +0.000 A 
ATOM     33  C   UNL     1       9.443  10.463  19.122  0.00  0.00    +0.000 A 
ATOM     34  C   UNL     1       9.758  11.054  17.895  0.00  0.00    +0.000 A 
ATOM     35  C   UNL     1      10.544  12.213  17.857  0.00  0.00    +0.000 A 
ENDBRANCH  27  33
ENDBRANCH  23  28
ENDBRANCH   1  24
TORSDOF 5
ENDMDL
MODEL 2
REMARK VINA RESULT:      -9.1      0.532      1.004
REMARK  Name = 
REMARK  6 active torsions:
REMARK  status: ('A' for Active; 'I' for Inactive)
REMARK    1  A    between atoms: C_1  and  C_2
REMARK    2  A    between atoms: C_5  and  C_6
REMARK    3  A    between atoms: N_7  and  N_8
REMARK    4  A    between atoms: C_9  and  C_11
REMARK    5  A    between atoms: C_21  and  C_22
REMARK    6  A    between atoms: C_25  and  N_26
REMARK                            x       y       z     vdW  Elec       q    Type
REMARK                         _______ _______ _______ _____ _____    ______ ____
ROOT
ATOM      1  C   UNL     1       5.509   5.851  17.361  0.00  0.00    +0.000 A 
ATOM      2  N   UNL     1       6.038   4.617  17.085  0.00  0.00    +0.000 NA
ATOM      3  N   UNL     1       5.147   3.700  17.424  0.00  0.00    +0.000 NA
ATOM      4  N   UNL     1       3.972   4.321  17.722  0.00  0.00    +0.000 N 
ATOM      5  C   UNL     1       2.751   3.605  17.840  0.00  0.00    +0.000 A 
ATOM      6  N   UNL     1       1.587   4.215  17.601  0.00  0.00    +0.000 NA
ATOM      7  O   UNL     1       0.630   3.230  17.811  0.00  0.00    +0.000 OA
ATOM      8  N   UNL     1       1.220   2.027  18.172  0.00  0.00    +0.000 NA
ATOM      9  C   UNL     1       2.533   2.257  18.179  0.00  0.00    +0.000 A 
ATOM     10  N   UNL     1       3.444   1.336  18.540  0.00  0.00    +0.000 N 
ATOM     11  C   UNL     1       4.211   5.705  17.849  0.00  0.00    +0.000 A 
ATOM     12  H   UNL     1       3.118   0.458  18.933  0.00  0.00    +0.000 HD
ATOM     13  H   UNL     1       4.411   1.564  18.752  0.00  0.00    +0.000 HD
ENDROOT
BRANCH  11  14
ATOM     14  C   UNL     1       3.226   6.685  18.343  0.00  0.00    +0.000 A 
ATOM     15  C   UNL     1       2.767   7.732  17.522  0.00  0.00    +0.000 A 
ATOM     16  C   UNL     1       1.995   8.778  18.039  0.00  0.00    +0.000 A 
ATOM     17  C   UNL     1       1.589   8.734  19.374  0.00  0.00    +0.000 A 
ATOM     18  C   UNL     1       1.928   7.641  20.177  0.00  0.00    +0.000 A 
ATOM     19  C   UNL     1       2.755   6.634  19.663  0.00  0.00    +0.000 A 
BRANCH  17  20
ATOM     20  N   UNL     1       0.829   9.851  19.942  0.00  0.00    +0.000 N 
ATOM     21  O   UNL     1       0.003   9.592  20.831  0.00  0.00    +0.000 OA
ATOM     22  O   UNL     1       1.043  10.984  19.491  0.00  0.00    +0.000 OA
ENDBRANCH  17  20
ENDBRANCH  11  14
BRANCH   1  24
ATOM     23  N   UNL     1       7.392   7.167  18.064  0.00  0.00    +0.000 N 
ATOM     24  C   UNL     1       6.295   7.080  17.208  0.00  0.00    +0.000 C 
ATOM     25  O   UNL     1       6.010   7.930  16.368  0.00  0.00    +0.000 OA
ATOM     26  H   UNL     1       7.586   6.422  18.723  0.00  0.00    +0.000 HD
BRANCH  23  28
ATOM     27  C   UNL     1       8.450   8.929  19.045  0.00  0.00    +0.000 C 
ATOM     28  N   UNL     1       8.236   8.244  17.966  0.00  0.00    +0.000 NA
BRANCH  27  33
ATOM     29  C   UNL     1      11.772  13.685  19.085  0.00  0.00    +0.000 C 
ATOM     30  C   UNL     1      10.931  12.441  19.065  0.00  0.00    +0.000 A 
ATOM     31  C   UNL     1      10.556  11.845  17.852  0.00  0.00    +0.000 A 
ATOM     32  C   UNL     1       9.759  10.698  17.840  0.00  0.00    +0.000 A 
ATOM     33  C   UNL     1       9.323  10.130  19.041  0.00  0.00    +0.000 A 
ATOM     34  C   UNL     1       9.700  10.711  20.256  0.00  0.00    +0.000 A 
ATOM     35  C   UNL     1      10.499  11.862  20.264  0.00  0.00    +0.000 A 
ENDBRANCH  27  33
ENDBRANCH  23  28
ENDBRANCH   1  24
TORSDOF 5
ENDMDL
MODEL 3
REMARK VINA RESULT:      -9.1      0.713      1.192
REMARK  Name = 
REMARK  6 active torsions:
REMARK  status: ('A' for Active; 'I' for Inactive)
REMARK    1  A    between atoms: C_1  and  C_2
REMARK    2  A    between atoms: C_5  and  C_6
REMARK    3  A    between atoms: N_7  and  N_8
REMARK    4  A    between atoms: C_9  and  C_11
REMARK    5  A    between atoms: C_21  and  C_22
REMARK    6  A    between atoms: C_25  and  N_26
REMARK                            x       y       z     vdW  Elec       q    Type
REMARK                         _______ _______ _______ _____ _____    ______ ____
ROOT
ATOM      1  C   UNL     1       6.352   6.058  17.886  0.00  0.00    +0.000 A 
ATOM      2  N   UNL     1       7.110   4.916  17.918  0.00  0.00    +0.000 NA
ATOM      3  N   UNL     1       6.343   3.923  18.337  0.00  0.00    +0.000 NA
ATOM      4  N   UNL     1       5.052   4.355  18.380  0.00  0.00    +0.000 N 
ATOM      5  C   UNL     1       3.960   3.456  18.509  0.00  0.00    +0.000 A 
ATOM      6  N   UNL     1       2.757   3.785  18.032  0.00  0.00    +0.000 NA
ATOM      7  O   UNL     1       1.954   2.691  18.332  0.00  0.00    +0.000 OA
ATOM      8  N   UNL     1       2.678   1.704  18.986  0.00  0.00    +0.000 NA
ATOM      9  C   UNL     1       3.921   2.172  19.084  0.00  0.00    +0.000 A 
ATOM     10  N   UNL     1       4.912   1.518  19.715  0.00  0.00    +0.000 N 
ATOM     11  C   UNL     1       5.041   5.760  18.254  0.00  0.00    +0.000 A 
ATOM     12  H   UNL     1       4.682   0.678  20.239  0.00  0.00    +0.000 HD
ATOM     13  H   UNL     1       5.788   1.957  19.979  0.00  0.00    +0.000 HD
ENDROOT
BRANCH  11  14
ATOM     14  C   UNL     1       3.850   6.610  18.436  0.00  0.00    +0.000 A 
ATOM     15  C   UNL     1       3.420   7.488  17.423  0.00  0.00    +0.000 A 
ATOM     16  C   UNL     1       2.422   8.439  17.658  0.00  0.00    +0.000 A 
ATOM     17  C   UNL     1       1.769   8.455  18.893  0.00  0.00    +0.000 A 
ATOM     18  C   UNL     1       2.091   7.511  19.872  0.00  0.00    +0.000 A 
ATOM     19  C   UNL     1       3.137   6.607  19.644  0.00  0.00    +0.000 A 
BRANCH  17  20
ATOM     20  N   UNL     1       0.762   9.483  19.172  0.00  0.00    +0.000 N 
ATOM     21  O   UNL     1       0.503  10.294  18.271  0.00  0.00    +0.000 OA
ATOM     22  O   UNL     1       0.240   9.491  20.295  0.00  0.00    +0.000 OA
ENDBRANCH  17  20
ENDBRANCH  11  14
BRANCH   1  24
ATOM     23  N   UNL     1       8.024   7.711  18.380  0.00  0.00    +0.000 N 
ATOM     24  C   UNL     1       6.940   7.365  17.575  0.00  0.00    +0.000 C 
ATOM     25  O   UNL     1       6.516   8.063  16.657  0.00  0.00    +0.000 OA
ATOM     26  H   UNL     1       8.339   7.082  19.110  0.00  0.00    +0.000 HD
BRANCH  23  28
ATOM     27  C   UNL     1       8.952   9.640  19.160  0.00  0.00    +0.000 C 
ATOM     28  N   UNL     1       8.693   8.884  18.139  0.00  0.00    +0.000 NA
BRANCH  27  33
ATOM     29  C   UNL     1      11.605  14.773  18.655  0.00  0.00    +0.000 C 
ATOM     30  C   UNL     1      10.931  13.437  18.765  0.00  0.00    +0.000 A 
ATOM     31  C   UNL     1      10.032  13.000  17.781  0.00  0.00    +0.000 A 
ATOM     32  C   UNL     1       9.395  11.763  17.899  0.00  0.00    +0.000 A 
ATOM     33  C   UNL     1       9.645  10.943  19.004  0.00  0.00    +0.000 A 
ATOM     34  C   UNL     1      10.546  11.365  19.986  0.00  0.00    +0.000 A 
ATOM     35  C   UNL     1      11.184  12.607  19.865  0.00  0.00    +0.000 A 
ENDBRANCH  27  33
ENDBRANCH  23  28
ENDBRANCH   1  24
TORSDOF 5
ENDMDL
MODEL 4
REMARK VINA RESULT:      -8.8      0.367      1.077
REMARK  Name = 
REMARK  6 active torsions:
REMARK  status: ('A' for Active; 'I' for Inactive)
REMARK    1  A    between atoms: C_1  and  C_2
REMARK    2  A    between atoms: C_5  and  C_6
REMARK    3  A    between atoms: N_7  and  N_8
REMARK    4  A    between atoms: C_9  and  C_11
REMARK    5  A    between atoms: C_21  and  C_22
REMARK    6  A    between atoms: C_25  and  N_26
REMARK                            x       y       z     vdW  Elec       q    Type
REMARK                         _______ _______ _______ _____ _____    ______ ____
ROOT
ATOM      1  C   UNL     1       5.874   5.910  17.537  0.00  0.00    +0.000 A 
ATOM      2  N   UNL     1       6.351   4.645  17.312  0.00  0.00    +0.000 NA
ATOM      3  N   UNL     1       5.394   3.783  17.613  0.00  0.00    +0.000 NA
ATOM      4  N   UNL     1       4.239   4.471  17.833  0.00  0.00    +0.000 N 
ATOM      5  C   UNL     1       2.976   3.823  17.893  0.00  0.00    +0.000 A 
ATOM      6  N   UNL     1       1.863   4.489  17.577  0.00  0.00    +0.000 NA
ATOM      7  O   UNL     1       0.843   3.560  17.747  0.00  0.00    +0.000 OA
ATOM      8  N   UNL     1       1.346   2.335  18.161  0.00  0.00    +0.000 NA
ATOM      9  C   UNL     1       2.667   2.495  18.239  0.00  0.00    +0.000 A 
ATOM     10  N   UNL     1       3.505   1.534  18.667  0.00  0.00    +0.000 N 
ATOM     11  C   UNL     1       4.545   5.843  17.952  0.00  0.00    +0.000 A 
ATOM     12  H   UNL     1       3.110   0.683  19.054  0.00  0.00    +0.000 HD
ATOM     13  H   UNL     1       4.469   1.715  18.931  0.00  0.00    +0.000 HD
ENDROOT
BRANCH  11  14
ATOM     14  C   UNL     1       3.588   6.883  18.373  0.00  0.00    +0.000 A 
ATOM     15  C   UNL     1       2.976   6.840  19.640  0.00  0.00    +0.000 A 
ATOM     16  C   UNL     1       1.923   7.699  19.969  0.00  0.00    +0.000 A 
ATOM     17  C   UNL     1       1.533   8.684  19.060  0.00  0.00    +0.000 A 
ATOM     18  C   UNL     1       2.209   8.828  17.845  0.00  0.00    +0.000 A 
ATOM     19  C   UNL     1       3.218   7.919  17.503  0.00  0.00    +0.000 A 
BRANCH  17  20
ATOM     20  N   UNL     1       0.393   9.553  19.370  0.00  0.00    +0.000 N 
ATOM     21  O   UNL     1      -0.259  10.007  18.419  0.00  0.00    +0.000 OA
ATOM     22  O   UNL     1       0.159   9.796  20.562  0.00  0.00    +0.000 OA
ENDBRANCH  17  20
ENDBRANCH  11  14
BRANCH   1  24
ATOM     23  N   UNL     1       7.759   7.157  18.351  0.00  0.00    +0.000 N 
ATOM     24  C   UNL     1       6.732   7.092  17.411  0.00  0.00    +0.000 C 
ATOM     25  O   UNL     1       6.562   7.924  16.522  0.00  0.00    +0.000 OA
ATOM     26  H   UNL     1       7.860   6.429  19.048  0.00  0.00    +0.000 HD
BRANCH  23  28
ATOM     27  C   UNL     1       8.510   9.162  19.130  0.00  0.00    +0.000 C 
ATOM     28  N   UNL     1       8.663   8.187  18.290  0.00  0.00    +0.000 NA
BRANCH  27  33
ATOM     29  C   UNL     1      12.132  13.693  19.057  0.00  0.00    +0.000 C 
ATOM     30  C   UNL     1      11.178  12.535  19.087  0.00  0.00    +0.000 A 
ATOM     31  C   UNL     1      10.773  11.967  20.304  0.00  0.00    +0.000 A 
ATOM     32  C   UNL     1       9.898  10.877  20.323  0.00  0.00    +0.000 A 
ATOM     33  C   UNL     1       9.416  10.338  19.127  0.00  0.00    +0.000 A 
ATOM     34  C   UNL     1       9.805  10.904  17.909  0.00  0.00    +0.000 A 
ATOM     35  C   UNL     1      10.684  11.996  17.892  0.00  0.00    +0.000 A 
ENDBRANCH  27  33
ENDBRANCH  23  28
ENDBRANCH   1  24
TORSDOF 5
ENDMDL
MODEL 5
REMARK VINA RESULT:      -8.5      0.838      1.420
REMARK  Name = 
REMARK  6 active torsions:
REMARK  status: ('A' for Active; 'I' for Inactive)
REMARK    1  A    between atoms: C_1  and  C_2
REMARK    2  A    between atoms: C_5  and  C_6
REMARK    3  A    between atoms: N_7  and  N_8
REMARK    4  A    between atoms: C_9  and  C_11
REMARK    5  A    between atoms: C_21  and  C_22
REMARK    6  A    between atoms: C_25  and  N_26
REMARK                            x       y       z     vdW  Elec       q    Type
REMARK                         _______ _______ _______ _____ _____    ______ ____
ROOT
ATOM      1  C   UNL     1       5.969   5.347  16.884  0.00  0.00    +0.000 A 
ATOM      2  N   UNL     1       6.348   4.057  16.612  0.00  0.00    +0.000 NA
ATOM      3  N   UNL     1       5.397   3.247  17.047  0.00  0.00    +0.000 NA
ATOM      4  N   UNL     1       4.317   3.995  17.409  0.00  0.00    +0.000 N 
ATOM      5  C   UNL     1       3.042   3.413  17.642  0.00  0.00    +0.000 A 
ATOM      6  N   UNL     1       1.932   4.134  17.468  0.00  0.00    +0.000 NA
ATOM      7  O   UNL     1       0.898   3.260  17.782  0.00  0.00    +0.000 OA
ATOM      8  N   UNL     1       1.389   2.012  18.140  0.00  0.00    +0.000 NA
ATOM      9  C   UNL     1       2.715   2.104  18.042  0.00  0.00    +0.000 A 
ATOM     10  N   UNL     1       3.553   1.104  18.366  0.00  0.00    +0.000 N 
ATOM     11  C   UNL     1       4.705   5.349  17.471  0.00  0.00    +0.000 A 
ATOM     12  H   UNL     1       3.171   0.275  18.812  0.00  0.00    +0.000 HD
ATOM     13  H   UNL     1       4.551   1.236  18.499  0.00  0.00    +0.000 HD
ENDROOT
BRANCH  11  14
ATOM     14  C   UNL     1       3.865   6.439  18.002  0.00  0.00    +0.000 A 
ATOM     15  C   UNL     1       3.376   6.405  19.321  0.00  0.00    +0.000 A 
ATOM     16  C   UNL     1       2.420   7.322  19.768  0.00  0.00    +0.000 A 
ATOM     17  C   UNL     1       2.013   8.354  18.920  0.00  0.00    +0.000 A 
ATOM     18  C   UNL     1       2.578   8.484  17.647  0.00  0.00    +0.000 A 
ATOM     19  C   UNL     1       3.486   7.520  17.192  0.00  0.00    +0.000 A 
BRANCH  17  20
ATOM     20  N   UNL     1       0.970   9.288  19.355  0.00  0.00    +0.000 N 
ATOM     21  O   UNL     1       0.757   9.385  20.573  0.00  0.00    +0.000 OA
ATOM     22  O   UNL     1       0.352   9.912  18.482  0.00  0.00    +0.000 OA
ENDBRANCH  17  20
ENDBRANCH  11  14
BRANCH   1  24
ATOM     23  N   UNL     1       6.735   7.524  17.549  0.00  0.00    +0.000 N 
ATOM     24  C   UNL     1       6.862   6.482  16.631  0.00  0.00    +0.000 C 
ATOM     25  O   UNL     1       7.668   6.478  15.703  0.00  0.00    +0.000 OA
ATOM     26  H   UNL     1       6.065   7.459  18.306  0.00  0.00    +0.000 HD
BRANCH  23  28
ATOM     27  C   UNL     1       8.072   9.076  18.547  0.00  0.00    +0.000 C 
ATOM     28  N   UNL     1       7.565   8.612  17.448  0.00  0.00    +0.000 NA
BRANCH  27  33
ATOM     29  C   UNL     1      11.496  13.757  18.677  0.00  0.00    +0.000 C 
ATOM     30  C   UNL     1      10.619  12.540  18.620  0.00  0.00    +0.000 A 
ATOM     31  C   UNL     1       9.574  12.448  17.690  0.00  0.00    +0.000 A 
ATOM     32  C   UNL     1       8.750  11.320  17.655  0.00  0.00    +0.000 A 
ATOM     33  C   UNL     1       8.957  10.267  18.551  0.00  0.00    +0.000 A 
ATOM     34  C   UNL     1      10.003  10.344  19.476  0.00  0.00    +0.000 A 
ATOM     35  C   UNL     1      10.827  11.477  19.509  0.00  0.00    +0.000 A 
ENDBRANCH  27  33
ENDBRANCH  23  28
ENDBRANCH   1  24
TORSDOF 5
ENDMDL
MODEL 6
REMARK VINA RESULT:      -8.4      1.123      1.604
REMARK  Name = 
REMARK  6 active torsions:
REMARK  status: ('A' for Active; 'I' for Inactive)
REMARK    1  A    between atoms: C_1  and  C_2
REMARK    2  A    between atoms: C_5  and  C_6
REMARK    3  A    between atoms: N_7  and  N_8
REMARK    4  A    between atoms: C_9  and  C_11
REMARK    5  A    between atoms: C_21  and  C_22
REMARK    6  A    between atoms: C_25  and  N_26
REMARK                            x       y       z     vdW  Elec       q    Type
REMARK                         _______ _______ _______ _____ _____    ______ ____
ROOT
ATOM      1  C   UNL     1       5.890   5.264  18.243  0.00  0.00    +0.000 A 
ATOM      2  N   UNL     1       6.199   3.933  18.133  0.00  0.00    +0.000 NA
ATOM      3  N   UNL     1       5.082   3.237  18.267  0.00  0.00    +0.000 NA
ATOM      4  N   UNL     1       4.027   4.099  18.257  0.00  0.00    +0.000 N 
ATOM      5  C   UNL     1       2.689   3.649  18.094  0.00  0.00    +0.000 A 
ATOM      6  N   UNL     1       1.767   4.458  17.566  0.00  0.00    +0.000 NA
ATOM      7  O   UNL     1       0.602   3.700  17.561  0.00  0.00    +0.000 OA
ATOM      8  N   UNL     1       0.828   2.433  18.083  0.00  0.00    +0.000 NA
ATOM      9  C   UNL     1       2.121   2.399  18.401  0.00  0.00    +0.000 A 
ATOM     10  N   UNL     1       2.710   1.345  18.993  0.00  0.00    +0.000 N 
ATOM     11  C   UNL     1       4.514   5.414  18.406  0.00  0.00    +0.000 A 
ATOM     12  H   UNL     1       2.125   0.580  19.316  0.00  0.00    +0.000 HD
ATOM     13  H   UNL     1       3.627   1.393  19.428  0.00  0.00    +0.000 HD
ENDROOT
BRANCH  11  14
ATOM     14  C   UNL     1       3.669   6.603  18.624  0.00  0.00    +0.000 A 
ATOM     15  C   UNL     1       2.952   6.777  19.822  0.00  0.00    +0.000 A 
ATOM     16  C   UNL     1       1.996   7.788  19.959  0.00  0.00    +0.000 A 
ATOM     17  C   UNL     1       1.817   8.705  18.921  0.00  0.00    +0.000 A 
ATOM     18  C   UNL     1       2.607   8.629  17.770  0.00  0.00    +0.000 A 
ATOM     19  C   UNL     1       3.514   7.572  17.622  0.00  0.00    +0.000 A 
BRANCH  17  20
ATOM     20  N   UNL     1       0.779   9.735  19.029  0.00  0.00    +0.000 N 
ATOM     21  O   UNL     1       0.730  10.395  20.077  0.00  0.00    +0.000 OA
ATOM     22  O   UNL     1       0.002   9.874  18.075  0.00  0.00    +0.000 OA
ENDBRANCH  17  20
ENDBRANCH  11  14
BRANCH   1  24
ATOM     23  N   UNL     1       6.841   7.212  17.207  0.00  0.00    +0.000 N 
ATOM     24  C   UNL     1       6.930   6.298  18.256  0.00  0.00    +0.000 C 
ATOM     25  O   UNL     1       7.776   6.355  19.146  0.00  0.00    +0.000 OA
ATOM     26  H   UNL     1       6.107   7.123  16.514  0.00  0.00    +0.000 HD
BRANCH  23  28
ATOM     27  C   UNL     1       7.640   9.156  18.085  0.00  0.00    +0.000 C 
ATOM     28  N   UNL     1       7.724   8.261  17.152  0.00  0.00    +0.000 NA
BRANCH  27  33
ATOM     29  C   UNL     1      11.103  13.806  18.271  0.00  0.00    +0.000 C 
ATOM     30  C   UNL     1      10.210  12.602  18.198  0.00  0.00    +0.000 A 
ATOM     31  C   UNL     1       8.970  12.663  17.545  0.00  0.00    +0.000 A 
ATOM     32  C   UNL     1       8.136  11.544  17.497  0.00  0.00    +0.000 A 
ATOM     33  C   UNL     1       8.528  10.346  18.101  0.00  0.00    +0.000 A 
ATOM     34  C   UNL     1       9.766  10.271  18.746  0.00  0.00    +0.000 A 
ATOM     35  C   UNL     1      10.601  11.395  18.793  0.00  0.00    +0.000 A 
ENDBRANCH  27  33
ENDBRANCH  23  28
ENDBRANCH   1  24
TORSDOF 5
ENDMDL
MODEL 7
REMARK VINA RESULT:      -8.4      4.375      6.835
REMARK  Name = 
REMARK  6 active torsions:
REMARK  status: ('A' for Active; 'I' for Inactive)
REMARK    1  A    between atoms: C_1  and  C_2
REMARK    2  A    between atoms: C_5  and  C_6
REMARK    3  A    between atoms: N_7  and  N_8
REMARK    4  A    between atoms: C_9  and  C_11
REMARK    5  A    between atoms: C_21  and  C_22
REMARK    6  A    between atoms: C_25  and  N_26
REMARK                            x       y       z     vdW  Elec       q    Type
REMARK                         _______ _______ _______ _____ _____    ______ ____
ROOT
ATOM      1  C   UNL     1       2.287   7.093  19.261  0.00  0.00    +0.000 A 
ATOM      2  N   UNL     1       1.597   6.764  20.399  0.00  0.00    +0.000 NA
ATOM      3  N   UNL     1       1.860   5.502  20.692  0.00  0.00    +0.000 NA
ATOM      4  N   UNL     1       2.866   5.066  19.884  0.00  0.00    +0.000 N 
ATOM      5  C   UNL     1       3.570   3.858  20.141  0.00  0.00    +0.000 A 
ATOM      6  N   UNL     1       4.826   3.708  19.714  0.00  0.00    +0.000 NA
ATOM      7  O   UNL     1       5.184   2.432  20.135  0.00  0.00    +0.000 OA
ATOM      8  N   UNL     1       4.143   1.820  20.819  0.00  0.00    +0.000 NA
ATOM      9  C   UNL     1       3.148   2.707  20.832  0.00  0.00    +0.000 A 
ATOM     10  N   UNL     1       1.938   2.455  21.360  0.00  0.00    +0.000 N 
ATOM     11  C   UNL     1       3.054   6.004  18.848  0.00  0.00    +0.000 A 
ATOM     12  H   UNL     1       1.729   1.509  21.665  0.00  0.00    +0.000 HD
ATOM     13  H   UNL     1       1.123   3.035  21.183  0.00  0.00    +0.000 HD
ENDROOT
BRANCH  11  14
ATOM     14  C   UNL     1       3.926   5.799  17.676  0.00  0.00    +0.000 A 
ATOM     15  C   UNL     1       3.738   4.703  16.813  0.00  0.00    +0.000 A 
ATOM     16  C   UNL     1       4.675   4.386  15.824  0.00  0.00    +0.000 A 
ATOM     17  C   UNL     1       5.771   5.228  15.625  0.00  0.00    +0.000 A 
ATOM     18  C   UNL     1       5.914   6.391  16.387  0.00  0.00    +0.000 A 
ATOM     19  C   UNL     1       5.001   6.660  17.416  0.00  0.00    +0.000 A 
BRANCH  17  20
ATOM     20  N   UNL     1       6.790   4.875  14.631  0.00  0.00    +0.000 N 
ATOM     21  O   UNL     1       7.855   5.510  14.650  0.00  0.00    +0.000 OA
ATOM     22  O   UNL     1       6.522   3.977  13.822  0.00  0.00    +0.000 OA
ENDBRANCH  17  20
ENDBRANCH  11  14
BRANCH   1  24
ATOM     23  N   UNL     1       1.509   9.361  19.401  0.00  0.00    +0.000 N 
ATOM     24  C   UNL     1       2.118   8.393  18.604  0.00  0.00    +0.000 C 
ATOM     25  O   UNL     1       2.518   8.598  17.460  0.00  0.00    +0.000 OA
ATOM     26  H   UNL     1       1.218   9.136  20.345  0.00  0.00    +0.000 HD
BRANCH  23  28
ATOM     27  C   UNL     1       1.260  11.594  19.778  0.00  0.00    +0.000 C 
ATOM     28  N   UNL     1       1.355  10.634  18.912  0.00  0.00    +0.000 NA
BRANCH  27  33
ATOM     29  C   UNL     1       0.559  17.137  18.218  0.00  0.00    +0.000 C 
ATOM     30  C   UNL     1       0.727  15.696  18.601  0.00  0.00    +0.000 A 
ATOM     31  C   UNL     1      -0.377  14.918  18.981  0.00  0.00    +0.000 A 
ATOM     32  C   UNL     1      -0.210  13.582  19.354  0.00  0.00    +0.000 A 
ATOM     33  C   UNL     1       1.063  13.003  19.354  0.00  0.00    +0.000 A 
ATOM     34  C   UNL     1       2.168  13.767  18.967  0.00  0.00    +0.000 A 
ATOM     35  C   UNL     1       1.998  15.107  18.595  0.00  0.00    +0.000 A 
ENDBRANCH  27  33
ENDBRANCH  23  28
ENDBRANCH   1  24
TORSDOF 5
ENDMDL
MODEL 8
REMARK VINA RESULT:      -8.3      1.052      1.498
REMARK  Name = 
REMARK  6 active torsions:
REMARK  status: ('A' for Active; 'I' for Inactive)
REMARK    1  A    between atoms: C_1  and  C_2
REMARK    2  A    between atoms: C_5  and  C_6
REMARK    3  A    between atoms: N_7  and  N_8
REMARK    4  A    between atoms: C_9  and  C_11
REMARK    5  A    between atoms: C_21  and  C_22
REMARK    6  A    between atoms: C_25  and  N_26
REMARK                            x       y       z     vdW  Elec       q    Type
REMARK                         _______ _______ _______ _____ _____    ______ ____
ROOT
ATOM      1  C   UNL     1       5.969   5.343  18.187  0.00  0.00    +0.000 A 
ATOM      2  N   UNL     1       6.318   4.024  18.047  0.00  0.00    +0.000 NA
ATOM      3  N   UNL     1       5.226   3.291  18.187  0.00  0.00    +0.000 NA
ATOM      4  N   UNL     1       4.144   4.118  18.210  0.00  0.00    +0.000 N 
ATOM      5  C   UNL     1       2.819   3.628  18.061  0.00  0.00    +0.000 A 
ATOM      6  N   UNL     1       1.863   4.416  17.563  0.00  0.00    +0.000 NA
ATOM      7  O   UNL     1       0.723   3.621  17.564  0.00  0.00    +0.000 OA
ATOM      8  N   UNL     1       0.997   2.353  18.058  0.00  0.00    +0.000 NA
ATOM      9  C   UNL     1       2.297   2.355  18.354  0.00  0.00    +0.000 A 
ATOM     10  N   UNL     1       2.929   1.310  18.917  0.00  0.00    +0.000 N 
ATOM     11  C   UNL     1       4.592   5.445  18.376  0.00  0.00    +0.000 A 
ATOM     12  H   UNL     1       2.375   0.521  19.235  0.00  0.00    +0.000 HD
ATOM     13  H   UNL     1       3.851   1.380  19.337  0.00  0.00    +0.000 HD
ENDROOT
BRANCH  11  14
ATOM     14  C   UNL     1       3.713   6.602  18.629  0.00  0.00    +0.000 A 
ATOM     15  C   UNL     1       3.021   6.737  19.847  0.00  0.00    +0.000 A 
ATOM     16  C   UNL     1       2.035   7.714  20.020  0.00  0.00    +0.000 A 
ATOM     17  C   UNL     1       1.800   8.637  18.999  0.00  0.00    +0.000 A 
ATOM     18  C   UNL     1       2.562   8.601  17.828  0.00  0.00    +0.000 A 
ATOM     19  C   UNL     1       3.500   7.577  17.644  0.00  0.00    +0.000 A 
BRANCH  17  20
ATOM     20  N   UNL     1       0.730   9.629  19.146  0.00  0.00    +0.000 N 
ATOM     21  O   UNL     1       0.191  10.050  18.112  0.00  0.00    +0.000 OA
ATOM     22  O   UNL     1       0.440  10.002  20.290  0.00  0.00    +0.000 OA
ENDBRANCH  17  20
ENDBRANCH  11  14
BRANCH   1  24
ATOM     23  N   UNL     1       6.842   7.336  17.169  0.00  0.00    +0.000 N 
ATOM     24  C   UNL     1       6.975   6.410  18.202  0.00  0.00    +0.000 C 
ATOM     25  O   UNL     1       7.832   6.479  19.081  0.00  0.00    +0.000 OA
ATOM     26  H   UNL     1       6.101   7.235  16.485  0.00  0.00    +0.000 HD
BRANCH  23  28
ATOM     27  C   UNL     1       7.782   9.146  18.184  0.00  0.00    +0.000 C 
ATOM     28  N   UNL     1       7.690   8.414  17.119  0.00  0.00    +0.000 NA
BRANCH  27  33
ATOM     29  C   UNL     1      11.180  13.847  18.220  0.00  0.00    +0.000 C 
ATOM     30  C   UNL     1      10.297  12.634  18.235  0.00  0.00    +0.000 A 
ATOM     31  C   UNL     1      10.679  11.474  18.926  0.00  0.00    +0.000 A 
ATOM     32  C   UNL     1       9.860  10.342  18.921  0.00  0.00    +0.000 A 
ATOM     33  C   UNL     1       8.648  10.351  18.224  0.00  0.00    +0.000 A 
ATOM     34  C   UNL     1       8.254  11.505  17.541  0.00  0.00    +0.000 A 
ATOM     35  C   UNL     1       9.077  12.639  17.547  0.00  0.00    +0.000 A 
ENDBRANCH  27  33
ENDBRANCH  23  28
ENDBRANCH   1  24
TORSDOF 5
ENDMDL
MODEL 9
REMARK VINA RESULT:      -8.3      4.362      6.851
REMARK  Name = 
REMARK  6 active torsions:
REMARK  status: ('A' for Active; 'I' for Inactive)
REMARK    1  A    between atoms: C_1  and  C_2
REMARK    2  A    between atoms: C_5  and  C_6
REMARK    3  A    between atoms: N_7  and  N_8
REMARK    4  A    between atoms: C_9  and  C_11
REMARK    5  A    between atoms: C_21  and  C_22
REMARK    6  A    between atoms: C_25  and  N_26
REMARK                            x       y       z     vdW  Elec       q    Type
REMARK                         _______ _______ _______ _____ _____    ______ ____
ROOT
ATOM      1  C   UNL     1       2.285   7.092  19.310  0.00  0.00    +0.000 A 
ATOM      2  N   UNL     1       1.598   6.753  20.446  0.00  0.00    +0.000 NA
ATOM      3  N   UNL     1       1.861   5.488  20.727  0.00  0.00    +0.000 NA
ATOM      4  N   UNL     1       2.866   5.060  19.913  0.00  0.00    +0.000 N 
ATOM      5  C   UNL     1       3.570   3.850  20.157  0.00  0.00    +0.000 A 
ATOM      6  N   UNL     1       4.825   3.704  19.726  0.00  0.00    +0.000 NA
ATOM      7  O   UNL     1       5.185   2.424  20.134  0.00  0.00    +0.000 OA
ATOM      8  N   UNL     1       4.145   1.806  20.814  0.00  0.00    +0.000 NA
ATOM      9  C   UNL     1       3.151   2.693  20.838  0.00  0.00    +0.000 A 
ATOM     10  N   UNL     1       1.941   2.435  21.366  0.00  0.00    +0.000 N 
ATOM     11  C   UNL     1       3.051   6.008  18.885  0.00  0.00    +0.000 A 
ATOM     12  H   UNL     1       1.733   1.486  21.663  0.00  0.00    +0.000 HD
ATOM     13  H   UNL     1       1.126   3.017  21.197  0.00  0.00    +0.000 HD
ENDROOT
BRANCH  11  14
ATOM     14  C   UNL     1       3.920   5.813  17.709  0.00  0.00    +0.000 A 
ATOM     15  C   UNL     1       3.726   4.730  16.832  0.00  0.00    +0.000 A 
ATOM     16  C   UNL     1       4.660   4.421  15.838  0.00  0.00    +0.000 A 
ATOM     17  C   UNL     1       5.759   5.261  15.648  0.00  0.00    +0.000 A 
ATOM     18  C   UNL     1       5.908   6.414  16.424  0.00  0.00    +0.000 A 
ATOM     19  C   UNL     1       4.998   6.674  17.458  0.00  0.00    +0.000 A 
BRANCH  17  20
ATOM     20  N   UNL     1       6.775   4.916  14.648  0.00  0.00    +0.000 N 
ATOM     21  O   UNL     1       6.500   4.025  13.832  0.00  0.00    +0.000 OA
ATOM     22  O   UNL     1       7.854   5.524  14.688  0.00  0.00    +0.000 OA
ENDBRANCH  17  20
ENDBRANCH  11  14
BRANCH   1  24
ATOM     23  N   UNL     1       1.441   9.338  19.446  0.00  0.00    +0.000 N 
ATOM     24  C   UNL     1       2.114   8.399  18.666  0.00  0.00    +0.000 C 
ATOM     25  O   UNL     1       2.564   8.632  17.546  0.00  0.00    +0.000 OA
ATOM     26  H   UNL     1       1.111   9.090  20.371  0.00  0.00    +0.000 HD
BRANCH  23  28
ATOM     27  C   UNL     1       1.296  11.577  19.837  0.00  0.00    +0.000 C 
ATOM     28  N   UNL     1       1.279  10.614  18.970  0.00  0.00    +0.000 NA
BRANCH  27  33
ATOM     29  C   UNL     1       0.457  17.065  18.155  0.00  0.00    +0.000 C 
ATOM     30  C   UNL     1       0.687  15.653  18.610  0.00  0.00    +0.000 A 
ATOM     31  C   UNL     1       1.974  15.097  18.606  0.00  0.00    +0.000 A 
ATOM     32  C   UNL     1       2.179  13.776  19.013  0.00  0.00    +0.000 A 
ATOM     33  C   UNL     1       1.100  12.991  19.430  0.00  0.00    +0.000 A 
ATOM     34  C   UNL     1      -0.186  13.540  19.448  0.00  0.00    +0.000 A 
ATOM     35  C   UNL     1      -0.388  14.864  19.037  0.00  0.00    +0.000 A 
ENDBRANCH  27  33
ENDBRANCH  23  28
ENDBRANCH   1  24
TORSDOF 5
ENDMDL
