MODEL 1
REMARK VINA RESULT:      -8.1      0.000      0.000
REMARK  Name = 
REMARK  7 active torsions:
REMARK  status: ('A' for Active; 'I' for Inactive)
REMARK    1  A    between atoms: C_1  and  C_2
REMARK    2  A    between atoms: C_2  and  N_3
REMARK    3  A    between atoms: C_10  and  C_11
REMARK    4  A    between atoms: C_15  and  C_16
REMARK    5  A    between atoms: C_20  and  N_21
REMARK    6  A    between atoms: N_21  and  C_22
REMARK    7  A    between atoms: C_25  and  C_26
REMARK                            x       y       z     vdW  Elec       q    Type
REMARK                         _______ _______ _______ _____ _____    ______ ____
ROOT
ATOM      1  N   UNL     1      -2.968  10.998  14.993  0.00  0.00    +0.000 N 
ATOM      2  C   UNL     1      -2.737  10.694  16.317  0.00  0.00    +0.000 C 
ATOM      3  O   UNL     1      -2.919   9.582  16.787  0.00  0.00    +0.000 OA
ATOM      4  N   UNL     1      -2.340  11.801  17.034  0.00  0.00    +0.000 N 
ATOM      5  C   UNL     1      -2.049  11.747  18.404  0.00  0.00    +0.000 A 
ATOM      6  C   UNL     1      -1.281  10.725  18.948  0.00  0.00    +0.000 A 
ATOM      7  C   UNL     1      -0.862  10.762  20.300  0.00  0.00    +0.000 A 
ATOM      8  C   UNL     1       0.095   9.855  20.871  0.00  0.00    +0.000 A 
ATOM      9  C   UNL     1       0.322   9.934  22.260  0.00  0.00    +0.000 A 
ATOM     10  C   UNL     1      -0.330  10.864  23.063  0.00  0.00    +0.000 A 
ATOM     11  C   UNL     1      -1.169  11.827  22.502  0.00  0.00    +0.000 A 
ATOM     12  C   UNL     1      -1.435  11.777  21.109  0.00  0.00    +0.000 A 
ATOM     13  C   UNL     1      -2.224  12.740  20.459  0.00  0.00    +0.000 A 
ATOM     14  N   UNL     1      -2.486  12.785  19.129  0.00  0.00    +0.000 NA
ATOM     15  H   UNL     1      -2.266  11.599  14.585  0.00  0.00    +0.000 HD
ATOM     16  H   UNL     1      -2.772  12.669  16.757  0.00  0.00    +0.000 HD
ENDROOT
BRANCH   8  17
ATOM     17  C   UNL     1       0.912   8.883  20.078  0.00  0.00    +0.000 A 
ATOM     18  C   UNL     1       1.437   9.198  18.817  0.00  0.00    +0.000 A 
ATOM     19  C   UNL     1       2.171   8.252  18.117  0.00  0.00    +0.000 A 
ATOM     20  N   UNL     1       2.500   7.045  18.609  0.00  0.00    +0.000 NA
ATOM     21  C   UNL     1       2.063   6.754  19.852  0.00  0.00    +0.000 A 
ATOM     22  C   UNL     1       2.527   5.462  20.454  0.00  0.00    +0.000 C 
ATOM     23  C   UNL     1       1.259   7.622  20.592  0.00  0.00    +0.000 A 
ENDBRANCH   8  17
BRANCH   1  25
ATOM     24  C   UNL     1      -2.610   9.547  13.033  0.00  0.00    +0.000 C 
ATOM     25  C   UNL     1      -3.538   9.962  14.155  0.00  0.00    +0.000 C 
ENDBRANCH   1  25
BRANCH  11  26
ATOM     26  N   UNL     1      -1.822  12.777  23.340  0.00  0.00    +0.000 N 
ATOM     27  H   UNL     1      -1.362  13.682  23.256  0.00  0.00    +0.000 HD
BRANCH  26  28
ATOM     28  C   UNL     1      -3.221  12.913  23.499  0.00  0.00    +0.000 A 
ATOM     29  C   UNL     1      -3.899  14.017  22.980  0.00  0.00    +0.000 A 
ATOM     30  C   UNL     1      -5.271  14.167  23.201  0.00  0.00    +0.000 A 
ATOM     31  C   UNL     1      -5.943  13.215  23.962  0.00  0.00    +0.000 A 
ATOM     32  C   UNL     1      -7.407  13.342  24.257  0.00  0.00    +0.000 C 
ATOM     33  N   UNL     1      -5.315  12.146  24.496  0.00  0.00    +0.000 NA
ATOM     34  C   UNL     1      -3.983  12.032  24.269  0.00  0.00    +0.000 A 
ENDBRANCH  26  28
ENDBRANCH  11  26
TORSDOF 4
ENDMDL
MODEL 2
REMARK VINA RESULT:      -7.9      1.855      2.666
REMARK  Name = 
REMARK  7 active torsions:
REMARK  status: ('A' for Active; 'I' for Inactive)
REMARK    1  A    between atoms: C_1  and  C_2
REMARK    2  A    between atoms: C_2  and  N_3
REMARK    3  A    between atoms: C_10  and  C_11
REMARK    4  A    between atoms: C_15  and  C_16
REMARK    5  A    between atoms: C_20  and  N_21
REMARK    6  A    between atoms: N_21  and  C_22
REMARK    7  A    between atoms: C_25  and  C_26
REMARK                            x       y       z     vdW  Elec       q    Type
REMARK                         _______ _______ _______ _____ _____    ______ ____
ROOT
ATOM      1  N   UNL     1      -2.960  10.610  14.626  0.00  0.00    +0.000 N 
ATOM      2  C   UNL     1      -2.667  10.324  15.941  0.00  0.00    +0.000 C 
ATOM      3  O   UNL     1      -2.742   9.200  16.413  0.00  0.00    +0.000 OA
ATOM      4  N   UNL     1      -2.345  11.460  16.651  0.00  0.00    +0.000 N 
ATOM      5  C   UNL     1      -2.012  11.429  18.012  0.00  0.00    +0.000 A 
ATOM      6  C   UNL     1      -1.146  10.475  18.530  0.00  0.00    +0.000 A 
ATOM      7  C   UNL     1      -0.693  10.545  19.870  0.00  0.00    +0.000 A 
ATOM      8  C   UNL     1       0.352   9.722  20.411  0.00  0.00    +0.000 A 
ATOM      9  C   UNL     1       0.611   9.818  21.793  0.00  0.00    +0.000 A 
ATOM     10  C   UNL     1      -0.094  10.688  22.617  0.00  0.00    +0.000 A 
ATOM     11  C   UNL     1      -1.027  11.578  22.084  0.00  0.00    +0.000 A 
ATOM     12  C   UNL     1      -1.327  11.507  20.699  0.00  0.00    +0.000 A 
ATOM     13  C   UNL     1      -2.213  12.401  20.075  0.00  0.00    +0.000 A 
ATOM     14  N   UNL     1      -2.514  12.426  18.753  0.00  0.00    +0.000 NA
ATOM     15  H   UNL     1      -2.323  11.268  14.200  0.00  0.00    +0.000 HD
ATOM     16  H   UNL     1      -2.856  12.289  16.389  0.00  0.00    +0.000 HD
ENDROOT
BRANCH   8  17
ATOM     17  C   UNL     1       1.225   8.823  19.592  0.00  0.00    +0.000 A 
ATOM     18  C   UNL     1       1.691   9.184  18.320  0.00  0.00    +0.000 A 
ATOM     19  C   UNL     1       2.481   8.305  17.596  0.00  0.00    +0.000 A 
ATOM     20  N   UNL     1       2.921   7.127  18.073  0.00  0.00    +0.000 NA
ATOM     21  C   UNL     1       2.542   6.796  19.325  0.00  0.00    +0.000 A 
ATOM     22  C   UNL     1       3.126   5.545  19.908  0.00  0.00    +0.000 C 
ATOM     23  C   UNL     1       1.688   7.593  20.090  0.00  0.00    +0.000 A 
ENDBRANCH   8  17
BRANCH   1  25
ATOM     24  C   UNL     1      -4.106  10.028  12.522  0.00  0.00    +0.000 C 
ATOM     25  C   UNL     1      -3.465   9.530  13.800  0.00  0.00    +0.000 C 
ENDBRANCH   1  25
BRANCH  11  26
ATOM     26  N   UNL     1      -1.734  12.468  22.943  0.00  0.00    +0.000 N 
ATOM     27  H   UNL     1      -2.160  11.942  23.705  0.00  0.00    +0.000 HD
BRANCH  26  28
ATOM     28  C   UNL     1      -1.280  13.737  23.372  0.00  0.00    +0.000 A 
ATOM     29  C   UNL     1      -1.919  14.416  24.410  0.00  0.00    +0.000 A 
ATOM     30  C   UNL     1      -1.495  15.697  24.778  0.00  0.00    +0.000 A 
ATOM     31  C   UNL     1      -0.446  16.290  24.082  0.00  0.00    +0.000 A 
ATOM     32  C   UNL     1       0.028  17.672  24.413  0.00  0.00    +0.000 C 
ATOM     33  N   UNL     1       0.182  15.669  23.060  0.00  0.00    +0.000 NA
ATOM     34  C   UNL     1      -0.257  14.431  22.723  0.00  0.00    +0.000 A 
ENDBRANCH  26  28
ENDBRANCH  11  26
TORSDOF 4
ENDMDL
MODEL 3
REMARK VINA RESULT:      -7.9      3.206      8.812
REMARK  Name = 
REMARK  7 active torsions:
REMARK  status: ('A' for Active; 'I' for Inactive)
REMARK    1  A    between atoms: C_1  and  C_2
REMARK    2  A    between atoms: C_2  and  N_3
REMARK    3  A    between atoms: C_10  and  C_11
REMARK    4  A    between atoms: C_15  and  C_16
REMARK    5  A    between atoms: C_20  and  N_21
REMARK    6  A    between atoms: N_21  and  C_22
REMARK    7  A    between atoms: C_25  and  C_26
REMARK                            x       y       z     vdW  Elec       q    Type
REMARK                         _______ _______ _______ _____ _____    ______ ____
ROOT
ATOM      1  N   UNL     1      -2.892  12.504  24.107  0.00  0.00    +0.000 N 
ATOM      2  C   UNL     1      -2.354  12.018  22.936  0.00  0.00    +0.000 C 
ATOM      3  O   UNL     1      -2.822  12.262  21.835  0.00  0.00    +0.000 OA
ATOM      4  N   UNL     1      -1.279  11.189  23.173  0.00  0.00    +0.000 N 
ATOM      5  C   UNL     1      -0.565  10.566  22.140  0.00  0.00    +0.000 A 
ATOM      6  C   UNL     1      -0.187  11.256  20.995  0.00  0.00    +0.000 A 
ATOM      7  C   UNL     1       0.666  10.667  20.031  0.00  0.00    +0.000 A 
ATOM      8  C   UNL     1       1.260  11.383  18.936  0.00  0.00    +0.000 A 
ATOM      9  C   UNL     1       1.987  10.638  17.986  0.00  0.00    +0.000 A 
ATOM     10  C   UNL     1       2.154   9.262  18.097  0.00  0.00    +0.000 A 
ATOM     11  C   UNL     1       1.685   8.574  19.217  0.00  0.00    +0.000 A 
ATOM     12  C   UNL     1       0.937   9.283  20.192  0.00  0.00    +0.000 A 
ATOM     13  C   UNL     1       0.477   8.678  21.373  0.00  0.00    +0.000 A 
ATOM     14  N   UNL     1      -0.203   9.297  22.370  0.00  0.00    +0.000 NA
ATOM     15  H   UNL     1      -2.200  12.807  24.778  0.00  0.00    +0.000 HD
ATOM     16  H   UNL     1      -1.353  10.617  24.001  0.00  0.00    +0.000 HD
ENDROOT
BRANCH   8  17
ATOM     17  C   UNL     1       1.213  12.871  18.778  0.00  0.00    +0.000 A 
ATOM     18  C   UNL     1       0.017  13.597  18.865  0.00  0.00    +0.000 A 
ATOM     19  C   UNL     1       0.028  14.973  18.691  0.00  0.00    +0.000 A 
ATOM     20  N   UNL     1       1.148  15.697  18.526  0.00  0.00    +0.000 NA
ATOM     21  C   UNL     1       2.316  15.021  18.513  0.00  0.00    +0.000 A 
ATOM     22  C   UNL     1       3.575  15.832  18.451  0.00  0.00    +0.000 C 
ATOM     23  C   UNL     1       2.383  13.630  18.608  0.00  0.00    +0.000 A 
ENDBRANCH   8  17
BRANCH   1  25
ATOM     24  C   UNL     1      -3.881  14.761  24.041  0.00  0.00    +0.000 C 
ATOM     25  C   UNL     1      -4.122  13.266  24.016  0.00  0.00    +0.000 C 
ENDBRANCH   1  25
BRANCH  11  26
ATOM     26  N   UNL     1       1.872   7.165  19.318  0.00  0.00    +0.000 N 
ATOM     27  H   UNL     1       0.980   6.714  19.511  0.00  0.00    +0.000 HD
BRANCH  26  28
ATOM     28  C   UNL     1       2.685   6.378  18.469  0.00  0.00    +0.000 A 
ATOM     29  C   UNL     1       2.339   5.062  18.160  0.00  0.00    +0.000 A 
ATOM     30  C   UNL     1       3.186   4.279  17.371  0.00  0.00    +0.000 A 
ATOM     31  C   UNL     1       4.385   4.822  16.919  0.00  0.00    +0.000 A 
ATOM     32  C   UNL     1       5.346   4.018  16.096  0.00  0.00    +0.000 C 
ATOM     33  N   UNL     1       4.760   6.085  17.215  0.00  0.00    +0.000 NA
ATOM     34  C   UNL     1       3.920   6.816  17.987  0.00  0.00    +0.000 A 
ENDBRANCH  26  28
ENDBRANCH  11  26
TORSDOF 4
ENDMDL
MODEL 4
REMARK VINA RESULT:      -7.8      3.195      8.779
REMARK  Name = 
REMARK  7 active torsions:
REMARK  status: ('A' for Active; 'I' for Inactive)
REMARK    1  A    between atoms: C_1  and  C_2
REMARK    2  A    between atoms: C_2  and  N_3
REMARK    3  A    between atoms: C_10  and  C_11
REMARK    4  A    between atoms: C_15  and  C_16
REMARK    5  A    between atoms: C_20  and  N_21
REMARK    6  A    between atoms: N_21  and  C_22
REMARK    7  A    between atoms: C_25  and  C_26
REMARK                            x       y       z     vdW  Elec       q    Type
REMARK                         _______ _______ _______ _____ _____    ______ ____
ROOT
ATOM      1  N   UNL     1      -3.065  12.331  24.120  0.00  0.00    +0.000 N 
ATOM      2  C   UNL     1      -2.500  11.946  22.924  0.00  0.00    +0.000 C 
ATOM      3  O   UNL     1      -2.950  12.274  21.837  0.00  0.00    +0.000 OA
ATOM      4  N   UNL     1      -1.420  11.111  23.114  0.00  0.00    +0.000 N 
ATOM      5  C   UNL     1      -0.680  10.582  22.048  0.00  0.00    +0.000 A 
ATOM      6  C   UNL     1      -0.289  11.367  20.970  0.00  0.00    +0.000 A 
ATOM      7  C   UNL     1       0.589  10.866  19.978  0.00  0.00    +0.000 A 
ATOM      8  C   UNL     1       1.194  11.674  18.957  0.00  0.00    +0.000 A 
ATOM      9  C   UNL     1       1.948  11.016  17.964  0.00  0.00    +0.000 A 
ATOM     10  C   UNL     1       2.129   9.637  17.967  0.00  0.00    +0.000 A 
ATOM     11  C   UNL     1       1.647   8.857  19.018  0.00  0.00    +0.000 A 
ATOM     12  C   UNL     1       0.873   9.476  20.033  0.00  0.00    +0.000 A 
ATOM     13  C   UNL     1       0.398   8.772  21.152  0.00  0.00    +0.000 A 
ATOM     14  N   UNL     1      -0.307   9.303  22.182  0.00  0.00    +0.000 NA
ATOM     15  H   UNL     1      -2.390  12.585  24.826  0.00  0.00    +0.000 HD
ATOM     16  H   UNL     1      -1.503  10.474  23.891  0.00  0.00    +0.000 HD
ENDROOT
BRANCH   8  17
ATOM     17  C   UNL     1       1.133  13.169  18.919  0.00  0.00    +0.000 A 
ATOM     18  C   UNL     1      -0.046  13.864  18.616  0.00  0.00    +0.000 A 
ATOM     19  C   UNL     1      -0.042  15.250  18.575  0.00  0.00    +0.000 A 
ATOM     20  N   UNL     1       1.022  16.006  18.900  0.00  0.00    +0.000 NA
ATOM     21  C   UNL     1       2.146  15.352  19.264  0.00  0.00    +0.000 A 
ATOM     22  C   UNL     1       3.296  16.186  19.743  0.00  0.00    +0.000 C 
ATOM     23  C   UNL     1       2.244  13.961  19.260  0.00  0.00    +0.000 A 
ENDBRANCH   8  17
BRANCH   1  25
ATOM     24  C   UNL     1      -4.077  14.578  24.194  0.00  0.00    +0.000 C 
ATOM     25  C   UNL     1      -4.302  13.085  24.066  0.00  0.00    +0.000 C 
ENDBRANCH   1  25
BRANCH  11  26
ATOM     26  N   UNL     1       1.849   7.446  19.008  0.00  0.00    +0.000 N 
ATOM     27  H   UNL     1       1.053   6.989  18.565  0.00  0.00    +0.000 HD
BRANCH  26  28
ATOM     28  C   UNL     1       3.065   6.788  18.707  0.00  0.00    +0.000 A 
ATOM     29  C   UNL     1       3.714   6.999  17.490  0.00  0.00    +0.000 A 
ATOM     30  C   UNL     1       4.881   6.292  17.184  0.00  0.00    +0.000 A 
ATOM     31  C   UNL     1       5.370   5.364  18.099  0.00  0.00    +0.000 A 
ATOM     32  C   UNL     1       6.599   4.557  17.810  0.00  0.00    +0.000 C 
ATOM     33  N   UNL     1       4.757   5.122  19.277  0.00  0.00    +0.000 NA
ATOM     34  C   UNL     1       3.624   5.818  19.541  0.00  0.00    +0.000 A 
ENDBRANCH  26  28
ENDBRANCH  11  26
TORSDOF 4
ENDMDL
MODEL 5
REMARK VINA RESULT:      -7.8      2.798      8.479
REMARK  Name = 
REMARK  7 active torsions:
REMARK  status: ('A' for Active; 'I' for Inactive)
REMARK    1  A    between atoms: C_1  and  C_2
REMARK    2  A    between atoms: C_2  and  N_3
REMARK    3  A    between atoms: C_10  and  C_11
REMARK    4  A    between atoms: C_15  and  C_16
REMARK    5  A    between atoms: C_20  and  N_21
REMARK    6  A    between atoms: N_21  and  C_22
REMARK    7  A    between atoms: C_25  and  C_26
REMARK                            x       y       z     vdW  Elec       q    Type
REMARK                         _______ _______ _______ _____ _____    ______ ____
ROOT
ATOM      1  N   UNL     1      -1.983  14.711  24.165  0.00  0.00    +0.000 N 
ATOM      2  C   UNL     1      -1.918  13.644  23.297  0.00  0.00    +0.000 C 
ATOM      3  O   UNL     1      -2.727  12.728  23.303  0.00  0.00    +0.000 OA
ATOM      4  N   UNL     1      -0.810  13.714  22.482  0.00  0.00    +0.000 N 
ATOM      5  C   UNL     1      -0.520  12.740  21.517  0.00  0.00    +0.000 A 
ATOM      6  C   UNL     1      -1.502  12.233  20.674  0.00  0.00    +0.000 A 
ATOM      7  C   UNL     1      -1.174  11.369  19.601  0.00  0.00    +0.000 A 
ATOM      8  C   UNL     1      -2.097  10.974  18.575  0.00  0.00    +0.000 A 
ATOM      9  C   UNL     1      -1.664  10.011  17.640  0.00  0.00    +0.000 A 
ATOM     10  C   UNL     1      -0.384   9.467  17.682  0.00  0.00    +0.000 A 
ATOM     11  C   UNL     1       0.560   9.931  18.599  0.00  0.00    +0.000 A 
ATOM     12  C   UNL     1       0.162  10.891  19.565  0.00  0.00    +0.000 A 
ATOM     13  C   UNL     1       1.063  11.447  20.487  0.00  0.00    +0.000 A 
ATOM     14  N   UNL     1       0.770  12.399  21.407  0.00  0.00    +0.000 NA
ATOM     15  H   UNL     1      -1.769  15.599  23.734  0.00  0.00    +0.000 HD
ATOM     16  H   UNL     1       0.017  14.097  22.915  0.00  0.00    +0.000 HD
ENDROOT
BRANCH   8  17
ATOM     17  C   UNL     1      -3.460  11.566  18.393  0.00  0.00    +0.000 A 
ATOM     18  C   UNL     1      -4.118  11.570  17.156  0.00  0.00    +0.000 A 
ATOM     19  C   UNL     1      -5.372  12.150  17.039  0.00  0.00    +0.000 A 
ATOM     20  N   UNL     1      -6.065  12.649  18.077  0.00  0.00    +0.000 NA
ATOM     21  C   UNL     1      -5.475  12.588  19.290  0.00  0.00    +0.000 A 
ATOM     22  C   UNL     1      -6.290  13.031  20.468  0.00  0.00    +0.000 C 
ATOM     23  C   UNL     1      -4.187  12.087  19.478  0.00  0.00    +0.000 A 
ENDBRANCH   8  17
BRANCH   1  25
ATOM     24  C   UNL     1      -3.837  15.958  25.207  0.00  0.00    +0.000 C 
ATOM     25  C   UNL     1      -3.015  14.687  25.184  0.00  0.00    +0.000 C 
ENDBRANCH   1  25
BRANCH  11  26
ATOM     26  N   UNL     1       1.868   9.367  18.620  0.00  0.00    +0.000 N 
ATOM     27  H   UNL     1       2.509  10.005  19.091  0.00  0.00    +0.000 HD
BRANCH  26  28
ATOM     28  C   UNL     1       2.180   8.015  18.893  0.00  0.00    +0.000 A 
ATOM     29  C   UNL     1       1.844   7.432  20.115  0.00  0.00    +0.000 A 
ATOM     30  C   UNL     1       2.217   6.113  20.392  0.00  0.00    +0.000 A 
ATOM     31  C   UNL     1       2.943   5.401  19.442  0.00  0.00    +0.000 A 
ATOM     32  C   UNL     1       3.395   3.995  19.697  0.00  0.00    +0.000 C 
ATOM     33  N   UNL     1       3.301   5.940  18.257  0.00  0.00    +0.000 NA
ATOM     34  C   UNL     1       2.931   7.222  18.022  0.00  0.00    +0.000 A 
ENDBRANCH  26  28
ENDBRANCH  11  26
TORSDOF 4
ENDMDL
MODEL 6
REMARK VINA RESULT:      -7.7      2.747      8.543
REMARK  Name = 
REMARK  7 active torsions:
REMARK  status: ('A' for Active; 'I' for Inactive)
REMARK    1  A    between atoms: C_1  and  C_2
REMARK    2  A    between atoms: C_2  and  N_3
REMARK    3  A    between atoms: C_10  and  C_11
REMARK    4  A    between atoms: C_15  and  C_16
REMARK    5  A    between atoms: C_20  and  N_21
REMARK    6  A    between atoms: N_21  and  C_22
REMARK    7  A    between atoms: C_25  and  C_26
REMARK                            x       y       z     vdW  Elec       q    Type
REMARK                         _______ _______ _______ _____ _____    ______ ____
ROOT
ATOM      1  N   UNL     1      -2.825  14.934  23.393  0.00  0.00    +0.000 N 
ATOM      2  C   UNL     1      -2.696  13.829  22.581  0.00  0.00    +0.000 C 
ATOM      3  O   UNL     1      -3.326  12.797  22.753  0.00  0.00    +0.000 OA
ATOM      4  N   UNL     1      -1.738  14.018  21.609  0.00  0.00    +0.000 N 
ATOM      5  C   UNL     1      -1.420  13.034  20.663  0.00  0.00    +0.000 A 
ATOM      6  C   UNL     1      -2.405  12.312  20.001  0.00  0.00    +0.000 A 
ATOM      7  C   UNL     1      -2.082  11.434  18.938  0.00  0.00    +0.000 A 
ATOM      8  C   UNL     1      -3.055  10.818  18.080  0.00  0.00    +0.000 A 
ATOM      9  C   UNL     1      -2.594   9.871  17.143  0.00  0.00    +0.000 A 
ATOM     10  C   UNL     1      -1.246   9.548  17.023  0.00  0.00    +0.000 A 
ATOM     11  C   UNL     1      -0.280  10.227  17.766  0.00  0.00    +0.000 A 
ATOM     12  C   UNL     1      -0.702  11.179  18.729  0.00  0.00    +0.000 A 
ATOM     13  C   UNL     1       0.208  11.944  19.479  0.00  0.00    +0.000 A 
ATOM     14  N   UNL     1      -0.117  12.902  20.382  0.00  0.00    +0.000 NA
ATOM     15  H   UNL     1      -2.828  15.810  22.891  0.00  0.00    +0.000 HD
ATOM     16  H   UNL     1      -0.939  14.563  21.895  0.00  0.00    +0.000 HD
ENDROOT
BRANCH   8  17
ATOM     17  C   UNL     1      -4.512  11.164  18.072  0.00  0.00    +0.000 A 
ATOM     18  C   UNL     1      -5.459  10.444  18.813  0.00  0.00    +0.000 A 
ATOM     19  C   UNL     1      -6.798  10.796  18.753  0.00  0.00    +0.000 A 
ATOM     20  N   UNL     1      -7.262  11.865  18.083  0.00  0.00    +0.000 NA
ATOM     21  C   UNL     1      -6.353  12.612  17.423  0.00  0.00    +0.000 A 
ATOM     22  C   UNL     1      -6.845  13.872  16.775  0.00  0.00    +0.000 C 
ATOM     23  C   UNL     1      -4.998  12.283  17.374  0.00  0.00    +0.000 A 
ENDBRANCH   8  17
BRANCH   1  25
ATOM     24  C   UNL     1      -2.964  15.130  25.847  0.00  0.00    +0.000 C 
ATOM     25  C   UNL     1      -3.688  14.819  24.553  0.00  0.00    +0.000 C 
ENDBRANCH   1  25
BRANCH  11  26
ATOM     26  N   UNL     1       1.096   9.887  17.623  0.00  0.00    +0.000 N 
ATOM     27  H   UNL     1       1.671  10.717  17.768  0.00  0.00    +0.000 HD
BRANCH  26  28
ATOM     28  C   UNL     1       1.717   8.724  18.134  0.00  0.00    +0.000 A 
ATOM     29  C   UNL     1       1.536   8.337  19.462  0.00  0.00    +0.000 A 
ATOM     30  C   UNL     1       2.207   7.219  19.966  0.00  0.00    +0.000 A 
ATOM     31  C   UNL     1       3.072   6.515  19.134  0.00  0.00    +0.000 A 
ATOM     32  C   UNL     1       3.841   5.329  19.630  0.00  0.00    +0.000 C 
ATOM     33  N   UNL     1       3.285   6.873  17.849  0.00  0.00    +0.000 NA
ATOM     34  C   UNL     1       2.624   7.965  17.392  0.00  0.00    +0.000 A 
ENDBRANCH  26  28
ENDBRANCH  11  26
TORSDOF 4
ENDMDL
MODEL 7
REMARK VINA RESULT:      -7.7      3.077      8.425
REMARK  Name = 
REMARK  7 active torsions:
REMARK  status: ('A' for Active; 'I' for Inactive)
REMARK    1  A    between atoms: C_1  and  C_2
REMARK    2  A    between atoms: C_2  and  N_3
REMARK    3  A    between atoms: C_10  and  C_11
REMARK    4  A    between atoms: C_15  and  C_16
REMARK    5  A    between atoms: C_20  and  N_21
REMARK    6  A    between atoms: N_21  and  C_22
REMARK    7  A    between atoms: C_25  and  C_26
REMARK                            x       y       z     vdW  Elec       q    Type
REMARK                         _______ _______ _______ _____ _____    ______ ____
ROOT
ATOM      1  N   UNL     1      -3.481  16.573  23.557  0.00  0.00    +0.000 N 
ATOM      2  C   UNL     1      -3.295  15.374  22.907  0.00  0.00    +0.000 C 
ATOM      3  O   UNL     1      -3.898  14.354  23.202  0.00  0.00    +0.000 OA
ATOM      4  N   UNL     1      -2.316  15.462  21.941  0.00  0.00    +0.000 N 
ATOM      5  C   UNL     1      -1.941  14.371  21.146  0.00  0.00    +0.000 A 
ATOM      6  C   UNL     1      -2.885  13.532  20.565  0.00  0.00    +0.000 A 
ATOM      7  C   UNL     1      -2.505  12.531  19.639  0.00  0.00    +0.000 A 
ATOM      8  C   UNL     1      -3.435  11.771  18.850  0.00  0.00    +0.000 A 
ATOM      9  C   UNL     1      -2.918  10.722  18.061  0.00  0.00    +0.000 A 
ATOM     10  C   UNL     1      -1.558  10.432  18.019  0.00  0.00    +0.000 A 
ATOM     11  C   UNL     1      -0.635  11.238  18.685  0.00  0.00    +0.000 A 
ATOM     12  C   UNL     1      -1.112  12.297  19.500  0.00  0.00    +0.000 A 
ATOM     13  C   UNL     1      -0.249  13.186  20.160  0.00  0.00    +0.000 A 
ATOM     14  N   UNL     1      -0.628  14.246  20.916  0.00  0.00    +0.000 NA
ATOM     15  H   UNL     1      -3.496  17.373  22.941  0.00  0.00    +0.000 HD
ATOM     16  H   UNL     1      -1.542  16.067  22.169  0.00  0.00    +0.000 HD
ENDROOT
BRANCH   8  17
ATOM     17  C   UNL     1      -4.900  12.063  18.760  0.00  0.00    +0.000 A 
ATOM     18  C   UNL     1      -5.584  12.096  17.537  0.00  0.00    +0.000 A 
ATOM     19  C   UNL     1      -6.938  12.391  17.508  0.00  0.00    +0.000 A 
ATOM     20  N   UNL     1      -7.689  12.569  18.609  0.00  0.00    +0.000 NA
ATOM     21  C   UNL     1      -7.059  12.469  19.799  0.00  0.00    +0.000 A 
ATOM     22  C   UNL     1      -7.911  12.546  21.031  0.00  0.00    +0.000 C 
ATOM     23  C   UNL     1      -5.686  12.247  19.910  0.00  0.00    +0.000 A 
ENDBRANCH   8  17
BRANCH   1  25
ATOM     24  C   UNL     1      -5.707  17.229  24.389  0.00  0.00    +0.000 C 
ATOM     25  C   UNL     1      -4.372  16.586  24.701  0.00  0.00    +0.000 C 
ENDBRANCH   1  25
BRANCH  11  26
ATOM     26  N   UNL     1       0.755  10.930  18.622  0.00  0.00    +0.000 N 
ATOM     27  H   UNL     1       1.292  11.679  19.058  0.00  0.00    +0.000 HD
BRANCH  26  28
ATOM     28  C   UNL     1       1.331   9.661  18.867  0.00  0.00    +0.000 A 
ATOM     29  C   UNL     1       1.817   8.879  17.818  0.00  0.00    +0.000 A 
ATOM     30  C   UNL     1       2.326   7.602  18.072  0.00  0.00    +0.000 A 
ATOM     31  C   UNL     1       2.319   7.116  19.375  0.00  0.00    +0.000 A 
ATOM     32  C   UNL     1       2.823   5.743  19.700  0.00  0.00    +0.000 C 
ATOM     33  N   UNL     1       1.839   7.838  20.410  0.00  0.00    +0.000 NA
ATOM     34  C   UNL     1       1.347   9.070  20.131  0.00  0.00    +0.000 A 
ENDBRANCH  26  28
ENDBRANCH  11  26
TORSDOF 4
ENDMDL
MODEL 8
REMARK VINA RESULT:      -7.7      1.573      2.279
REMARK  Name = 
REMARK  7 active torsions:
REMARK  status: ('A' for Active; 'I' for Inactive)
REMARK    1  A    between atoms: C_1  and  C_2
REMARK    2  A    between atoms: C_2  and  N_3
REMARK    3  A    between atoms: C_10  and  C_11
REMARK    4  A    between atoms: C_15  and  C_16
REMARK    5  A    between atoms: C_20  and  N_21
REMARK    6  A    between atoms: N_21  and  C_22
REMARK    7  A    between atoms: C_25  and  C_26
REMARK                            x       y       z     vdW  Elec       q    Type
REMARK                         _______ _______ _______ _____ _____    ______ ____
ROOT
ATOM      1  N   UNL     1      -3.028  10.880  14.871  0.00  0.00    +0.000 N 
ATOM      2  C   UNL     1      -2.723  10.516  16.164  0.00  0.00    +0.000 C 
ATOM      3  O   UNL     1      -2.786   9.364  16.565  0.00  0.00    +0.000 OA
ATOM      4  N   UNL     1      -2.402  11.607  16.941  0.00  0.00    +0.000 N 
ATOM      5  C   UNL     1      -2.059  11.494  18.295  0.00  0.00    +0.000 A 
ATOM      6  C   UNL     1      -1.181  10.516  18.746  0.00  0.00    +0.000 A 
ATOM      7  C   UNL     1      -0.718  10.506  20.084  0.00  0.00    +0.000 A 
ATOM      8  C   UNL     1       0.337   9.658  20.564  0.00  0.00    +0.000 A 
ATOM      9  C   UNL     1       0.607   9.670  21.948  0.00  0.00    +0.000 A 
ATOM     10  C   UNL     1      -0.098  10.482  22.830  0.00  0.00    +0.000 A 
ATOM     11  C   UNL     1      -1.041  11.396  22.360  0.00  0.00    +0.000 A 
ATOM     12  C   UNL     1      -1.352  11.410  20.976  0.00  0.00    +0.000 A 
ATOM     13  C   UNL     1      -2.249  12.334  20.416  0.00  0.00    +0.000 A 
ATOM     14  N   UNL     1      -2.561  12.439  19.100  0.00  0.00    +0.000 NA
ATOM     15  H   UNL     1      -2.400  11.568  14.483  0.00  0.00    +0.000 HD
ATOM     16  H   UNL     1      -2.922  12.447  16.735  0.00  0.00    +0.000 HD
ENDROOT
BRANCH   8  17
ATOM     17  C   UNL     1       1.210   8.818  19.684  0.00  0.00    +0.000 A 
ATOM     18  C   UNL     1       1.651   9.256  18.428  0.00  0.00    +0.000 A 
ATOM     19  C   UNL     1       2.442   8.429  17.645  0.00  0.00    +0.000 A 
ATOM     20  N   UNL     1       2.904   7.233  18.049  0.00  0.00    +0.000 NA
ATOM     21  C   UNL     1       2.548   6.828  19.286  0.00  0.00    +0.000 A 
ATOM     22  C   UNL     1       3.157   5.554  19.790  0.00  0.00    +0.000 C 
ATOM     23  C   UNL     1       1.696   7.569  20.106  0.00  0.00    +0.000 A 
ENDBRANCH   8  17
BRANCH   1  25
ATOM     24  C   UNL     1      -2.556   9.508  12.879  0.00  0.00    +0.000 C 
ATOM     25  C   UNL     1      -3.532   9.850  13.984  0.00  0.00    +0.000 C 
ENDBRANCH   1  25
BRANCH  11  26
ATOM     26  N   UNL     1      -1.747  12.226  23.279  0.00  0.00    +0.000 N 
ATOM     27  H   UNL     1      -1.739  11.797  24.203  0.00  0.00    +0.000 HD
BRANCH  26  28
ATOM     28  C   UNL     1      -1.659  13.636  23.354  0.00  0.00    +0.000 A 
ATOM     29  C   UNL     1      -0.509  14.307  22.939  0.00  0.00    +0.000 A 
ATOM     30  C   UNL     1      -0.416  15.695  23.079  0.00  0.00    +0.000 A 
ATOM     31  C   UNL     1      -1.474  16.390  23.657  0.00  0.00    +0.000 A 
ATOM     32  C   UNL     1      -1.415  17.874  23.860  0.00  0.00    +0.000 C 
ATOM     33  N   UNL     1      -2.593  15.770  24.086  0.00  0.00    +0.000 NA
ATOM     34  C   UNL     1      -2.650  14.424  23.943  0.00  0.00    +0.000 A 
ENDBRANCH  26  28
ENDBRANCH  11  26
TORSDOF 4
ENDMDL
MODEL 9
REMARK VINA RESULT:      -7.7      3.013      8.311
REMARK  Name = 
REMARK  7 active torsions:
REMARK  status: ('A' for Active; 'I' for Inactive)
REMARK    1  A    between atoms: C_1  and  C_2
REMARK    2  A    between atoms: C_2  and  N_3
REMARK    3  A    between atoms: C_10  and  C_11
REMARK    4  A    between atoms: C_15  and  C_16
REMARK    5  A    between atoms: C_20  and  N_21
REMARK    6  A    between atoms: N_21  and  C_22
REMARK    7  A    between atoms: C_25  and  C_26
REMARK                            x       y       z     vdW  Elec       q    Type
REMARK                         _______ _______ _______ _____ _____    ______ ____
ROOT
ATOM      1  N   UNL     1      -3.302  13.115  23.998  0.00  0.00    +0.000 N 
ATOM      2  C   UNL     1      -2.715  12.340  23.024  0.00  0.00    +0.000 C 
ATOM      3  O   UNL     1      -3.117  12.297  21.871  0.00  0.00    +0.000 OA
ATOM      4  N   UNL     1      -1.674  11.590  23.525  0.00  0.00    +0.000 N 
ATOM      5  C   UNL     1      -0.920  10.717  22.729  0.00  0.00    +0.000 A 
ATOM      6  C   UNL     1      -0.466  11.087  21.469  0.00  0.00    +0.000 A 
ATOM      7  C   UNL     1       0.423  10.262  20.738  0.00  0.00    +0.000 A 
ATOM      8  C   UNL     1       1.090  10.668  19.532  0.00  0.00    +0.000 A 
ATOM      9  C   UNL     1       1.850   9.698  18.847  0.00  0.00    +0.000 A 
ATOM     10  C   UNL     1       1.978   8.394  19.317  0.00  0.00    +0.000 A 
ATOM     11  C   UNL     1       1.435   8.022  20.546  0.00  0.00    +0.000 A 
ATOM     12  C   UNL     1       0.653   8.964  21.263  0.00  0.00    +0.000 A 
ATOM     13  C   UNL     1       0.117   8.686  22.532  0.00  0.00    +0.000 A 
ATOM     14  N   UNL     1      -0.600   9.547  23.296  0.00  0.00    +0.000 NA
ATOM     15  H   UNL     1      -2.640  13.574  24.608  0.00  0.00    +0.000 HD
ATOM     16  H   UNL     1      -1.804  11.251  24.466  0.00  0.00    +0.000 HD
ENDROOT
BRANCH   8  17
ATOM     17  C   UNL     1       1.086  12.066  18.997  0.00  0.00    +0.000 A 
ATOM     18  C   UNL     1      -0.098  12.785  18.787  0.00  0.00    +0.000 A 
ATOM     19  C   UNL     1      -0.046  14.071  18.270  0.00  0.00    +0.000 A 
ATOM     20  N   UNL     1       1.098  14.733  18.027  0.00  0.00    +0.000 NA
ATOM     21  C   UNL     1       2.250  14.080  18.292  0.00  0.00    +0.000 A 
ATOM     22  C   UNL     1       3.525  14.854  18.139  0.00  0.00    +0.000 C 
ATOM     23  C   UNL     1       2.281  12.761  18.744  0.00  0.00    +0.000 A 
ENDBRANCH   8  17
BRANCH   1  25
ATOM     24  C   UNL     1      -4.249  15.311  23.398  0.00  0.00    +0.000 C 
ATOM     25  C   UNL     1      -4.508  13.839  23.645  0.00  0.00    +0.000 C 
ENDBRANCH   1  25
BRANCH  11  26
ATOM     26  N   UNL     1       1.584   6.684  21.014  0.00  0.00    +0.000 N 
ATOM     27  H   UNL     1       0.850   6.473  21.689  0.00  0.00    +0.000 HD
BRANCH  26  28
ATOM     28  C   UNL     1       1.902   5.561  20.216  0.00  0.00    +0.000 A 
ATOM     29  C   UNL     1       1.022   4.483  20.111  0.00  0.00    +0.000 A 
ATOM     30  C   UNL     1       1.380   3.353  19.367  0.00  0.00    +0.000 A 
ATOM     31  C   UNL     1       2.629   3.313  18.756  0.00  0.00    +0.000 A 
ATOM     32  C   UNL     1       3.077   2.116  17.974  0.00  0.00    +0.000 C 
ATOM     33  N   UNL     1       3.512   4.330  18.853  0.00  0.00    +0.000 NA
ATOM     34  C   UNL     1       3.138   5.407  19.586  0.00  0.00    +0.000 A 
ENDBRANCH  26  28
ENDBRANCH  11  26
TORSDOF 4
ENDMDL
