MODEL 1
REMARK VINA RESULT:      -7.7      0.000      0.000
REMARK  Name = 
REMARK  12 active torsions:
REMARK  status: ('A' for Active; 'I' for Inactive)
REMARK    1  A    between atoms: C_1  and  O_2
REMARK    2  A    between atoms: O_2  and  C_3
REMARK    3  A    between atoms: C_5  and  O_6
REMARK    4  A    between atoms: C_10  and  C_11
REMARK    5  A    between atoms: C_12  and  C_13
REMARK    6  A    between atoms: C_13  and  C_15
REMARK    7  A    between atoms: C_18  and  O_19
REMARK    8  A    between atoms: O_19  and  C_20
REMARK    9  A    between atoms: C_21  and  C_22
REMARK   10  A    between atoms: C_22  and  C_23
REMARK   11  A    between atoms: C_24  and  C_25
REMARK   12  A    between atoms: C_24  and  C_26
REMARK                            x       y       z     vdW  Elec       q    Type
REMARK                         _______ _______ _______ _____ _____    ______ ____
ROOT
ATOM      1  C   UNL     1       2.360   8.302  18.158  0.00  0.00    +0.000 C 
ATOM      2  O   UNL     1       2.971   8.598  17.136  0.00  0.00    +0.000 OA
ENDROOT
BRANCH   1   3
ATOM      3  C   UNL     1       2.513   6.957  18.790  0.00  0.00    +0.000 A 
ATOM      4  C   UNL     1       1.879   6.654  19.996  0.00  0.00    +0.000 A 
ATOM      5  C   UNL     1       2.048   5.395  20.575  0.00  0.00    +0.000 A 
ATOM      6  C   UNL     1       2.863   4.419  19.980  0.00  0.00    +0.000 A 
ATOM      7  C   UNL     1       3.548   4.721  18.790  0.00  0.00    +0.000 A 
ATOM      8  C   UNL     1       3.348   5.997  18.201  0.00  0.00    +0.000 A 
BRANCH   6   9
ATOM      9  O   UNL     1       3.006   3.303  20.758  0.00  0.00    +0.000 OA
ATOM     10  C   UNL     1       1.905   2.915  21.570  0.00  0.00    +0.000 C 
ENDBRANCH   6   9
BRANCH   7  11
ATOM     11  C   UNL     1       4.573   3.814  18.143  0.00  0.00    +0.000 C 
BRANCH  11  12
ATOM     12  C   UNL     1       4.643   3.907  16.638  0.00  0.00    +0.000 C 
ATOM     13  C   UNL     1       5.756   4.204  15.935  0.00  0.00    +0.000 C 
ATOM     14  C   UNL     1       7.091   4.510  16.560  0.00  0.00    +0.000 C 
ATOM     15  C   UNL     1       5.754   4.262  14.429  0.00  0.00    +0.000 C 
ENDBRANCH  11  12
ENDBRANCH   7  11
ENDBRANCH   1   3
BRANCH   1  17
ATOM     16  C   UNL     1       0.282   9.661  18.210  0.00  0.00    +0.000 C 
ATOM     17  C   UNL     1       1.401   9.236  18.818  0.00  0.00    +0.000 C 
BRANCH  16  24
ATOM     18  C   UNL     1      -1.813  11.156  18.126  0.00  0.00    +0.000 A 
ATOM     19  C   UNL     1      -2.715  11.984  18.815  0.00  0.00    +0.000 A 
ATOM     20  C   UNL     1      -2.505  12.297  20.157  0.00  0.00    +0.000 A 
ATOM     21  C   UNL     1      -1.403  11.773  20.828  0.00  0.00    +0.000 A 
ATOM     22 BR   UNL     1      -1.078  12.177  22.652  0.00  0.00    +0.000 Br
ATOM     23  C   UNL     1      -0.516  10.923  20.160  0.00  0.00    +0.000 A 
ATOM     24  C   UNL     1      -0.700  10.603  18.802  0.00  0.00    +0.000 A 
BRANCH  18  26
ATOM     25  C   UNL     1      -3.107   9.945  16.544  0.00  0.00    +0.000 C 
ATOM     26  O   UNL     1      -2.008  10.815  16.808  0.00  0.00    +0.000 OA
ENDBRANCH  18  26
BRANCH  20  27
ATOM     27  O   UNL     1      -3.388  13.111  20.809  0.00  0.00    +0.000 OA
ATOM     28  H   UNL     1      -4.074  12.577  21.245  0.00  0.00    +0.000 HD
ENDBRANCH  20  27
ENDBRANCH  16  24
ENDBRANCH   1  17
TORSDOF 8
ENDMDL
MODEL 2
REMARK VINA RESULT:      -7.6      2.615      8.832
REMARK  Name = 
REMARK  12 active torsions:
REMARK  status: ('A' for Active; 'I' for Inactive)
REMARK    1  A    between atoms: C_1  and  O_2
REMARK    2  A    between atoms: O_2  and  C_3
REMARK    3  A    between atoms: C_5  and  O_6
REMARK    4  A    between atoms: C_10  and  C_11
REMARK    5  A    between atoms: C_12  and  C_13
REMARK    6  A    between atoms: C_13  and  C_15
REMARK    7  A    between atoms: C_18  and  O_19
REMARK    8  A    between atoms: O_19  and  C_20
REMARK    9  A    between atoms: C_21  and  C_22
REMARK   10  A    between atoms: C_22  and  C_23
REMARK   11  A    between atoms: C_24  and  C_25
REMARK   12  A    between atoms: C_24  and  C_26
REMARK                            x       y       z     vdW  Elec       q    Type
REMARK                         _______ _______ _______ _____ _____    ______ ____
ROOT
ATOM      1  C   UNL     1       1.775   9.049  18.347  0.00  0.00    +0.000 C 
ATOM      2  O   UNL     1       1.903   9.506  17.215  0.00  0.00    +0.000 OA
ENDROOT
BRANCH   1   3
ATOM      3  C   UNL     1       0.905   9.721  19.359  0.00  0.00    +0.000 A 
ATOM      4  C   UNL     1       0.867   9.276  20.681  0.00  0.00    +0.000 A 
ATOM      5  C   UNL     1       0.036   9.912  21.606  0.00  0.00    +0.000 A 
ATOM      6  C   UNL     1      -0.785  10.988  21.235  0.00  0.00    +0.000 A 
ATOM      7  C   UNL     1      -0.796  11.420  19.897  0.00  0.00    +0.000 A 
ATOM      8  C   UNL     1       0.071  10.779  18.973  0.00  0.00    +0.000 A 
BRANCH   6   9
ATOM      9  O   UNL     1      -1.617  11.391  22.243  0.00  0.00    +0.000 OA
ATOM     10  C   UNL     1      -1.214  12.505  23.029  0.00  0.00    +0.000 C 
ENDBRANCH   6   9
BRANCH   7  11
ATOM     11  C   UNL     1      -1.750  12.459  19.345  0.00  0.00    +0.000 C 
BRANCH  11  12
ATOM     12  C   UNL     1      -3.168  11.979  19.151  0.00  0.00    +0.000 C 
ATOM     13  C   UNL     1      -3.642  11.412  18.022  0.00  0.00    +0.000 C 
ATOM     14  C   UNL     1      -2.822  11.198  16.778  0.00  0.00    +0.000 C 
ATOM     15  C   UNL     1      -5.069  10.941  17.907  0.00  0.00    +0.000 C 
ENDBRANCH  11  12
ENDBRANCH   7  11
ENDBRANCH   1   3
BRANCH   1  17
ATOM     16  C   UNL     1       2.427   6.663  18.137  0.00  0.00    +0.000 C 
ATOM     17  C   UNL     1       2.496   7.825  18.805  0.00  0.00    +0.000 C 
BRANCH  16  24
ATOM     18  C   UNL     1       4.287   4.888  17.976  0.00  0.00    +0.000 A 
ATOM     19  C   UNL     1       4.872   3.723  18.499  0.00  0.00    +0.000 A 
ATOM     20  C   UNL     1       4.274   3.048  19.562  0.00  0.00    +0.000 A 
ATOM     21  C   UNL     1       3.097   3.538  20.123  0.00  0.00    +0.000 A 
ATOM     22 BR   UNL     1       2.249   2.647  21.566  0.00  0.00    +0.000 Br
ATOM     23  C   UNL     1       2.524   4.714  19.630  0.00  0.00    +0.000 A 
ATOM     24  C   UNL     1       3.102   5.407  18.549  0.00  0.00    +0.000 A 
BRANCH  18  26
ATOM     25  C   UNL     1       6.051   6.312  17.265  0.00  0.00    +0.000 C 
ATOM     26  O   UNL     1       4.867   5.586  16.942  0.00  0.00    +0.000 OA
ENDBRANCH  18  26
BRANCH  20  27
ATOM     27  O   UNL     1       4.851   1.911  20.052  0.00  0.00    +0.000 OA
ATOM     28  H   UNL     1       4.764   1.188  19.407  0.00  0.00    +0.000 HD
ENDBRANCH  20  27
ENDBRANCH  16  24
ENDBRANCH   1  17
TORSDOF 8
ENDMDL
MODEL 3
REMARK VINA RESULT:      -7.6      1.772      2.387
REMARK  Name = 
REMARK  12 active torsions:
REMARK  status: ('A' for Active; 'I' for Inactive)
REMARK    1  A    between atoms: C_1  and  O_2
REMARK    2  A    between atoms: O_2  and  C_3
REMARK    3  A    between atoms: C_5  and  O_6
REMARK    4  A    between atoms: C_10  and  C_11
REMARK    5  A    between atoms: C_12  and  C_13
REMARK    6  A    between atoms: C_13  and  C_15
REMARK    7  A    between atoms: C_18  and  O_19
REMARK    8  A    between atoms: O_19  and  C_20
REMARK    9  A    between atoms: C_21  and  C_22
REMARK   10  A    between atoms: C_22  and  C_23
REMARK   11  A    between atoms: C_24  and  C_25
REMARK   12  A    between atoms: C_24  and  C_26
REMARK                            x       y       z     vdW  Elec       q    Type
REMARK                         _______ _______ _______ _____ _____    ______ ____
ROOT
ATOM      1  C   UNL     1       2.629   8.149  17.858  0.00  0.00    +0.000 C 
ATOM      2  O   UNL     1       3.604   8.648  17.305  0.00  0.00    +0.000 OA
ENDROOT
BRANCH   1   3
ATOM      3  C   UNL     1       2.712   6.808  18.514  0.00  0.00    +0.000 A 
ATOM      4  C   UNL     1       2.175   6.597  19.785  0.00  0.00    +0.000 A 
ATOM      5  C   UNL     1       2.277   5.338  20.382  0.00  0.00    +0.000 A 
ATOM      6  C   UNL     1       2.928   4.273  19.741  0.00  0.00    +0.000 A 
ATOM      7  C   UNL     1       3.517   4.480  18.480  0.00  0.00    +0.000 A 
ATOM      8  C   UNL     1       3.385   5.757  17.875  0.00  0.00    +0.000 A 
BRANCH   6   9
ATOM      9  O   UNL     1       3.037   3.165  20.535  0.00  0.00    +0.000 OA
ATOM     10  C   UNL     1       2.120   3.028  21.612  0.00  0.00    +0.000 C 
ENDBRANCH   6   9
BRANCH   7  11
ATOM     11  C   UNL     1       4.377   3.460  17.765  0.00  0.00    +0.000 C 
BRANCH  11  12
ATOM     12  C   UNL     1       4.988   3.942  16.471  0.00  0.00    +0.000 C 
ATOM     13  C   UNL     1       6.243   4.420  16.342  0.00  0.00    +0.000 C 
ATOM     14  C   UNL     1       7.211   4.564  17.486  0.00  0.00    +0.000 C 
ATOM     15  C   UNL     1       6.791   4.868  15.012  0.00  0.00    +0.000 C 
ENDBRANCH  11  12
ENDBRANCH   7  11
ENDBRANCH   1   3
BRANCH   1  17
ATOM     16  C   UNL     1       1.008   9.805  18.750  0.00  0.00    +0.000 C 
ATOM     17  C   UNL     1       1.295   8.816  17.888  0.00  0.00    +0.000 C 
BRANCH  16  24
ATOM     18  C   UNL     1      -0.697  11.364  19.889  0.00  0.00    +0.000 A 
ATOM     19  C   UNL     1      -1.940  12.015  19.833  0.00  0.00    +0.000 A 
ATOM     20  C   UNL     1      -2.810  11.787  18.768  0.00  0.00    +0.000 A 
ATOM     21  C   UNL     1      -2.441  10.920  17.742  0.00  0.00    +0.000 A 
ATOM     22 BR   UNL     1      -3.597  10.578  16.278  0.00  0.00    +0.000 Br
ATOM     23  C   UNL     1      -1.193  10.291  17.773  0.00  0.00    +0.000 A 
ATOM     24  C   UNL     1      -0.302  10.495  18.844  0.00  0.00    +0.000 A 
BRANCH  18  26
ATOM     25  C   UNL     1       0.591  12.941  21.112  0.00  0.00    +0.000 C 
ATOM     26  O   UNL     1       0.190  11.587  20.916  0.00  0.00    +0.000 OA
ENDBRANCH  18  26
BRANCH  20  27
ATOM     27  O   UNL     1      -4.020  12.422  18.733  0.00  0.00    +0.000 OA
ATOM     28  H   UNL     1      -4.738  11.777  18.850  0.00  0.00    +0.000 HD
ENDBRANCH  20  27
ENDBRANCH  16  24
ENDBRANCH   1  17
TORSDOF 8
ENDMDL
MODEL 4
REMARK VINA RESULT:      -7.6      2.359      4.073
REMARK  Name = 
REMARK  12 active torsions:
REMARK  status: ('A' for Active; 'I' for Inactive)
REMARK    1  A    between atoms: C_1  and  O_2
REMARK    2  A    between atoms: O_2  and  C_3
REMARK    3  A    between atoms: C_5  and  O_6
REMARK    4  A    between atoms: C_10  and  C_11
REMARK    5  A    between atoms: C_12  and  C_13
REMARK    6  A    between atoms: C_13  and  C_15
REMARK    7  A    between atoms: C_18  and  O_19
REMARK    8  A    between atoms: O_19  and  C_20
REMARK    9  A    between atoms: C_21  and  C_22
REMARK   10  A    between atoms: C_22  and  C_23
REMARK   11  A    between atoms: C_24  and  C_25
REMARK   12  A    between atoms: C_24  and  C_26
REMARK                            x       y       z     vdW  Elec       q    Type
REMARK                         _______ _______ _______ _____ _____    ______ ____
ROOT
ATOM      1  C   UNL     1       0.377  10.306  19.882  0.00  0.00    +0.000 C 
ATOM      2  O   UNL     1       0.786  11.125  20.699  0.00  0.00    +0.000 OA
ENDROOT
BRANCH   1   3
ATOM      3  C   UNL     1       1.253   9.201  19.386  0.00  0.00    +0.000 A 
ATOM      4  C   UNL     1       1.861   9.275  18.132  0.00  0.00    +0.000 A 
ATOM      5  C   UNL     1       2.665   8.224  17.686  0.00  0.00    +0.000 A 
ATOM      6  C   UNL     1       2.866   7.074  18.464  0.00  0.00    +0.000 A 
ATOM      7  C   UNL     1       2.223   6.959  19.710  0.00  0.00    +0.000 A 
ATOM      8  C   UNL     1       1.428   8.046  20.160  0.00  0.00    +0.000 A 
BRANCH   6   9
ATOM      9  O   UNL     1       3.574   6.106  17.806  0.00  0.00    +0.000 OA
ATOM     10  C   UNL     1       4.600   6.525  16.915  0.00  0.00    +0.000 C 
ENDBRANCH   6   9
BRANCH   7  11
ATOM     11  C   UNL     1       2.234   5.709  20.563  0.00  0.00    +0.000 C 
BRANCH  11  12
ATOM     12  C   UNL     1       1.320   4.606  20.085  0.00  0.00    +0.000 C 
ATOM     13  C   UNL     1       1.734   3.454  19.518  0.00  0.00    +0.000 C 
ATOM     14  C   UNL     1       3.177   3.113  19.259  0.00  0.00    +0.000 C 
ATOM     15  C   UNL     1       0.762   2.389  19.080  0.00  0.00    +0.000 C 
ENDBRANCH  11  12
ENDBRANCH   7  11
ENDBRANCH   1   3
BRANCH   1  17
ATOM     16  C   UNL     1      -1.606  11.536  19.031  0.00  0.00    +0.000 C 
ATOM     17  C   UNL     1      -0.996  10.370  19.300  0.00  0.00    +0.000 C 
BRANCH  16  24
ATOM     18  C   UNL     1      -3.360  11.316  17.158  0.00  0.00    +0.000 A 
ATOM     19  C   UNL     1      -4.704  11.422  16.765  0.00  0.00    +0.000 A 
ATOM     20  C   UNL     1      -5.664  11.908  17.652  0.00  0.00    +0.000 A 
ATOM     21  C   UNL     1      -5.294  12.276  18.943  0.00  0.00    +0.000 A 
ATOM     22 BR   UNL     1      -6.566  12.946  20.179  0.00  0.00    +0.000 Br
ATOM     23  C   UNL     1      -3.963  12.145  19.354  0.00  0.00    +0.000 A 
ATOM     24  C   UNL     1      -2.974  11.669  18.473  0.00  0.00    +0.000 A 
BRANCH  18  26
ATOM     25  C   UNL     1      -2.857  10.365  15.040  0.00  0.00    +0.000 C 
ATOM     26  O   UNL     1      -2.397  10.820  16.310  0.00  0.00    +0.000 OA
ENDBRANCH  18  26
BRANCH  20  27
ATOM     27  O   UNL     1      -6.966  12.013  17.251  0.00  0.00    +0.000 OA
ATOM     28  H   UNL     1      -7.069  12.772  16.651  0.00  0.00    +0.000 HD
ENDBRANCH  20  27
ENDBRANCH  16  24
ENDBRANCH   1  17
TORSDOF 8
ENDMDL
MODEL 5
REMARK VINA RESULT:      -7.6      2.445      8.788
REMARK  Name = 
REMARK  12 active torsions:
REMARK  status: ('A' for Active; 'I' for Inactive)
REMARK    1  A    between atoms: C_1  and  O_2
REMARK    2  A    between atoms: O_2  and  C_3
REMARK    3  A    between atoms: C_5  and  O_6
REMARK    4  A    between atoms: C_10  and  C_11
REMARK    5  A    between atoms: C_12  and  C_13
REMARK    6  A    between atoms: C_13  and  C_15
REMARK    7  A    between atoms: C_18  and  O_19
REMARK    8  A    between atoms: O_19  and  C_20
REMARK    9  A    between atoms: C_21  and  C_22
REMARK   10  A    between atoms: C_22  and  C_23
REMARK   11  A    between atoms: C_24  and  C_25
REMARK   12  A    between atoms: C_24  and  C_26
REMARK                            x       y       z     vdW  Elec       q    Type
REMARK                         _______ _______ _______ _____ _____    ______ ____
ROOT
ATOM      1  C   UNL     1       1.893   9.055  18.222  0.00  0.00    +0.000 C 
ATOM      2  O   UNL     1       2.216   9.505  17.127  0.00  0.00    +0.000 OA
ENDROOT
BRANCH   1   3
ATOM      3  C   UNL     1       0.916   9.772  19.096  0.00  0.00    +0.000 A 
ATOM      4  C   UNL     1       1.114   9.855  20.475  0.00  0.00    +0.000 A 
ATOM      5  C   UNL     1       0.179  10.519  21.273  0.00  0.00    +0.000 A 
ATOM      6  C   UNL     1      -0.975  11.096  20.723  0.00  0.00    +0.000 A 
ATOM      7  C   UNL     1      -1.216  10.981  19.342  0.00  0.00    +0.000 A 
ATOM      8  C   UNL     1      -0.246  10.324  18.541  0.00  0.00    +0.000 A 
BRANCH   6   9
ATOM      9  O   UNL     1      -1.828  11.585  21.675  0.00  0.00    +0.000 OA
ATOM     10  C   UNL     1      -1.312  11.794  22.983  0.00  0.00    +0.000 C 
ENDBRANCH   6   9
BRANCH   7  11
ATOM     11  C   UNL     1      -2.495  11.420  18.661  0.00  0.00    +0.000 C 
BRANCH  11  12
ATOM     12  C   UNL     1      -2.668  10.915  17.249  0.00  0.00    +0.000 C 
ATOM     13  C   UNL     1      -3.772  11.097  16.495  0.00  0.00    +0.000 C 
ATOM     14  C   UNL     1      -5.007  11.815  16.969  0.00  0.00    +0.000 C 
ATOM     15  C   UNL     1      -3.867  10.577  15.084  0.00  0.00    +0.000 C 
ENDBRANCH  11  12
ENDBRANCH   7  11
ENDBRANCH   1   3
BRANCH   1  17
ATOM     16  C   UNL     1       2.847   6.775  17.985  0.00  0.00    +0.000 C 
ATOM     17  C   UNL     1       2.470   7.794  18.773  0.00  0.00    +0.000 C 
BRANCH  16  24
ATOM     18  C   UNL     1       4.610   4.897  18.014  0.00  0.00    +0.000 A 
ATOM     19  C   UNL     1       5.076   3.709  18.601  0.00  0.00    +0.000 A 
ATOM     20  C   UNL     1       4.346   3.085  19.611  0.00  0.00    +0.000 A 
ATOM     21  C   UNL     1       3.153   3.648  20.056  0.00  0.00    +0.000 A 
ATOM     22 BR   UNL     1       2.127   2.830  21.424  0.00  0.00    +0.000 Br
ATOM     23  C   UNL     1       2.696   4.847  19.500  0.00  0.00    +0.000 A 
ATOM     24  C   UNL     1       3.408   5.490  18.470  0.00  0.00    +0.000 A 
BRANCH  18  26
ATOM     25  C   UNL     1       5.424   4.862  15.783  0.00  0.00    +0.000 C 
ATOM     26  O   UNL     1       5.321   5.544  17.031  0.00  0.00    +0.000 OA
ENDBRANCH  18  26
BRANCH  20  27
ATOM     27  O   UNL     1       4.810   1.925  20.164  0.00  0.00    +0.000 OA
ATOM     28  H   UNL     1       4.139   1.548  20.759  0.00  0.00    +0.000 HD
ENDBRANCH  20  27
ENDBRANCH  16  24
ENDBRANCH   1  17
TORSDOF 8
ENDMDL
MODEL 6
REMARK VINA RESULT:      -7.5      0.903      1.216
REMARK  Name = 
REMARK  12 active torsions:
REMARK  status: ('A' for Active; 'I' for Inactive)
REMARK    1  A    between atoms: C_1  and  O_2
REMARK    2  A    between atoms: O_2  and  C_3
REMARK    3  A    between atoms: C_5  and  O_6
REMARK    4  A    between atoms: C_10  and  C_11
REMARK    5  A    between atoms: C_12  and  C_13
REMARK    6  A    between atoms: C_13  and  C_15
REMARK    7  A    between atoms: C_18  and  O_19
REMARK    8  A    between atoms: O_19  and  C_20
REMARK    9  A    between atoms: C_21  and  C_22
REMARK   10  A    between atoms: C_22  and  C_23
REMARK   11  A    between atoms: C_24  and  C_25
REMARK   12  A    between atoms: C_24  and  C_26
REMARK                            x       y       z     vdW  Elec       q    Type
REMARK                         _______ _______ _______ _____ _____    ______ ____
ROOT
ATOM      1  C   UNL     1       2.273   8.514  18.029  0.00  0.00    +0.000 C 
ATOM      2  O   UNL     1       3.082   8.740  17.135  0.00  0.00    +0.000 OA
ENDROOT
BRANCH   1   3
ATOM      3  C   UNL     1       2.309   7.234  18.801  0.00  0.00    +0.000 A 
ATOM      4  C   UNL     1       1.791   7.162  20.095  0.00  0.00    +0.000 A 
ATOM      5  C   UNL     1       1.849   5.959  20.801  0.00  0.00    +0.000 A 
ATOM      6  C   UNL     1       2.435   4.811  20.247  0.00  0.00    +0.000 A 
ATOM      7  C   UNL     1       3.005   4.876  18.962  0.00  0.00    +0.000 A 
ATOM      8  C   UNL     1       2.918   6.100  18.247  0.00  0.00    +0.000 A 
BRANCH   6   9
ATOM      9  O   UNL     1       2.512   3.773  21.135  0.00  0.00    +0.000 OA
ATOM     10  C   UNL     1       1.454   2.823  21.137  0.00  0.00    +0.000 C 
ENDBRANCH   6   9
BRANCH   7  11
ATOM     11  C   UNL     1       3.801   3.758  18.325  0.00  0.00    +0.000 C 
BRANCH  11  12
ATOM     12  C   UNL     1       5.277   4.037  18.171  0.00  0.00    +0.000 C 
ATOM     13  C   UNL     1       5.886   4.343  17.006  0.00  0.00    +0.000 C 
ATOM     14  C   UNL     1       5.176   4.426  15.681  0.00  0.00    +0.000 C 
ATOM     15  C   UNL     1       7.364   4.625  16.932  0.00  0.00    +0.000 C 
ENDBRANCH  11  12
ENDBRANCH   7  11
ENDBRANCH   1   3
BRANCH   1  17
ATOM     16  C   UNL     1      -0.033   9.410  17.820  0.00  0.00    +0.000 C 
ATOM     17  C   UNL     1       1.183   9.469  18.386  0.00  0.00    +0.000 C 
BRANCH  16  24
ATOM     18  C   UNL     1      -2.268  10.569  17.277  0.00  0.00    +0.000 A 
ATOM     19  C   UNL     1      -3.302  11.423  17.697  0.00  0.00    +0.000 A 
ATOM     20  C   UNL     1      -3.223  12.077  18.925  0.00  0.00    +0.000 A 
ATOM     21  C   UNL     1      -2.121  11.874  19.751  0.00  0.00    +0.000 A 
ATOM     22 BR   UNL     1      -1.972  12.748  21.428  0.00  0.00    +0.000 Br
ATOM     23  C   UNL     1      -1.102  11.002  19.356  0.00  0.00    +0.000 A 
ATOM     24  C   UNL     1      -1.152  10.340  18.115  0.00  0.00    +0.000 A 
BRANCH  18  26
ATOM     25  C   UNL     1      -3.046  10.546  15.032  0.00  0.00    +0.000 C 
ATOM     26  O   UNL     1      -2.331   9.894  16.080  0.00  0.00    +0.000 OA
ENDBRANCH  18  26
BRANCH  20  27
ATOM     27  O   UNL     1      -4.233  12.911  19.314  0.00  0.00    +0.000 OA
ATOM     28  H   UNL     1      -4.100  13.796  18.933  0.00  0.00    +0.000 HD
ENDBRANCH  20  27
ENDBRANCH  16  24
ENDBRANCH   1  17
TORSDOF 8
ENDMDL
MODEL 7
REMARK VINA RESULT:      -7.4      2.720      8.840
REMARK  Name = 
REMARK  12 active torsions:
REMARK  status: ('A' for Active; 'I' for Inactive)
REMARK    1  A    between atoms: C_1  and  O_2
REMARK    2  A    between atoms: O_2  and  C_3
REMARK    3  A    between atoms: C_5  and  O_6
REMARK    4  A    between atoms: C_10  and  C_11
REMARK    5  A    between atoms: C_12  and  C_13
REMARK    6  A    between atoms: C_13  and  C_15
REMARK    7  A    between atoms: C_18  and  O_19
REMARK    8  A    between atoms: O_19  and  C_20
REMARK    9  A    between atoms: C_21  and  C_22
REMARK   10  A    between atoms: C_22  and  C_23
REMARK   11  A    between atoms: C_24  and  C_25
REMARK   12  A    between atoms: C_24  and  C_26
REMARK                            x       y       z     vdW  Elec       q    Type
REMARK                         _______ _______ _______ _____ _____    ______ ____
ROOT
ATOM      1  C   UNL     1       1.846   9.239  18.229  0.00  0.00    +0.000 C 
ATOM      2  O   UNL     1       2.468   9.930  17.427  0.00  0.00    +0.000 OA
ENDROOT
BRANCH   1   3
ATOM      3  C   UNL     1       0.971   9.859  19.270  0.00  0.00    +0.000 A 
ATOM      4  C   UNL     1       0.960   9.375  20.579  0.00  0.00    +0.000 A 
ATOM      5  C   UNL     1       0.124   9.962  21.531  0.00  0.00    +0.000 A 
ATOM      6  C   UNL     1      -0.730  11.025  21.200  0.00  0.00    +0.000 A 
ATOM      7  C   UNL     1      -0.768  11.495  19.875  0.00  0.00    +0.000 A 
ATOM      8  C   UNL     1       0.104  10.904  18.924  0.00  0.00    +0.000 A 
BRANCH   6   9
ATOM      9  O   UNL     1      -1.560  11.377  22.229  0.00  0.00    +0.000 OA
ATOM     10  C   UNL     1      -1.218  12.527  22.992  0.00  0.00    +0.000 C 
ENDBRANCH   6   9
BRANCH   7  11
ATOM     11  C   UNL     1      -1.756  12.523  19.364  0.00  0.00    +0.000 C 
BRANCH  11  12
ATOM     12  C   UNL     1      -3.168  12.017  19.193  0.00  0.00    +0.000 C 
ATOM     13  C   UNL     1      -3.644  11.422  18.080  0.00  0.00    +0.000 C 
ATOM     14  C   UNL     1      -2.833  11.199  16.831  0.00  0.00    +0.000 C 
ATOM     15  C   UNL     1      -5.064  10.926  17.988  0.00  0.00    +0.000 C 
ENDBRANCH  11  12
ENDBRANCH   7  11
ENDBRANCH   1   3
BRANCH   1  17
ATOM     16  C   UNL     1       3.021   7.097  17.790  0.00  0.00    +0.000 C 
ATOM     17  C   UNL     1       1.942   7.750  18.249  0.00  0.00    +0.000 C 
BRANCH  16  24
ATOM     18  C   UNL     1       4.292   4.921  17.256  0.00  0.00    +0.000 A 
ATOM     19  C   UNL     1       4.350   3.520  17.349  0.00  0.00    +0.000 A 
ATOM     20  C   UNL     1       3.293   2.805  17.909  0.00  0.00    +0.000 A 
ATOM     21  C   UNL     1       2.177   3.480  18.396  0.00  0.00    +0.000 A 
ATOM     22 BR   UNL     1       0.715   2.545  19.161  0.00  0.00    +0.000 Br
ATOM     23  C   UNL     1       2.123   4.876  18.336  0.00  0.00    +0.000 A 
ATOM     24  C   UNL     1       3.172   5.620  17.763  0.00  0.00    +0.000 A 
BRANCH  18  26
ATOM     25  C   UNL     1       5.582   5.464  15.336  0.00  0.00    +0.000 C 
ATOM     26  O   UNL     1       5.329   5.653  16.727  0.00  0.00    +0.000 OA
ENDBRANCH  18  26
BRANCH  20  27
ATOM     27  O   UNL     1       3.362   1.442  17.984  0.00  0.00    +0.000 OA
ATOM     28  H   UNL     1       3.752   1.174  18.833  0.00  0.00    +0.000 HD
ENDBRANCH  20  27
ENDBRANCH  16  24
ENDBRANCH   1  17
TORSDOF 8
ENDMDL
MODEL 8
REMARK VINA RESULT:      -7.4      2.290      3.162
REMARK  Name = 
REMARK  12 active torsions:
REMARK  status: ('A' for Active; 'I' for Inactive)
REMARK    1  A    between atoms: C_1  and  O_2
REMARK    2  A    between atoms: O_2  and  C_3
REMARK    3  A    between atoms: C_5  and  O_6
REMARK    4  A    between atoms: C_10  and  C_11
REMARK    5  A    between atoms: C_12  and  C_13
REMARK    6  A    between atoms: C_13  and  C_15
REMARK    7  A    between atoms: C_18  and  O_19
REMARK    8  A    between atoms: O_19  and  C_20
REMARK    9  A    between atoms: C_21  and  C_22
REMARK   10  A    between atoms: C_22  and  C_23
REMARK   11  A    between atoms: C_24  and  C_25
REMARK   12  A    between atoms: C_24  and  C_26
REMARK                            x       y       z     vdW  Elec       q    Type
REMARK                         _______ _______ _______ _____ _____    ______ ____
ROOT
ATOM      1  C   UNL     1       1.203   8.510  21.127  0.00  0.00    +0.000 C 
ATOM      2  O   UNL     1       1.809   9.016  22.066  0.00  0.00    +0.000 OA
ENDROOT
BRANCH   1   3
ATOM      3  C   UNL     1       1.706   7.274  20.454  0.00  0.00    +0.000 A 
ATOM      4  C   UNL     1       1.435   6.010  20.980  0.00  0.00    +0.000 A 
ATOM      5  C   UNL     1       1.928   4.871  20.341  0.00  0.00    +0.000 A 
ATOM      6  C   UNL     1       2.713   4.963  19.181  0.00  0.00    +0.000 A 
ATOM      7  C   UNL     1       3.037   6.229  18.663  0.00  0.00    +0.000 A 
ATOM      8  C   UNL     1       2.509   7.378  19.310  0.00  0.00    +0.000 A 
BRANCH   6   9
ATOM      9  O   UNL     1       3.207   3.752  18.779  0.00  0.00    +0.000 OA
ATOM     10  C   UNL     1       4.020   3.030  19.694  0.00  0.00    +0.000 C 
ENDBRANCH   6   9
BRANCH   7  11
ATOM     11  C   UNL     1       4.000   6.461  17.519  0.00  0.00    +0.000 C 
BRANCH  11  12
ATOM     12  C   UNL     1       5.421   6.029  17.788  0.00  0.00    +0.000 C 
ATOM     13  C   UNL     1       6.059   5.031  17.142  0.00  0.00    +0.000 C 
ATOM     14  C   UNL     1       5.429   4.184  16.068  0.00  0.00    +0.000 C 
ATOM     15  C   UNL     1       7.487   4.666  17.454  0.00  0.00    +0.000 C 
ENDBRANCH  11  12
ENDBRANCH   7  11
ENDBRANCH   1   3
BRANCH   1  17
ATOM     16  C   UNL     1      -0.052   9.836  19.443  0.00  0.00    +0.000 C 
ATOM     17  C   UNL     1      -0.048   9.102  20.568  0.00  0.00    +0.000 C 
BRANCH  16  24
ATOM     18  C   UNL     1      -2.053  11.457  19.468  0.00  0.00    +0.000 A 
ATOM     19  C   UNL     1      -3.130  12.033  18.773  0.00  0.00    +0.000 A 
ATOM     20  C   UNL     1      -3.443  11.613  17.481  0.00  0.00    +0.000 A 
ATOM     21  C   UNL     1      -2.676  10.628  16.866  0.00  0.00    +0.000 A 
ATOM     22 BR   UNL     1      -3.071  10.024  15.111  0.00  0.00    +0.000 Br
ATOM     23  C   UNL     1      -1.583  10.070  17.537  0.00  0.00    +0.000 A 
ATOM     24  C   UNL     1      -1.255  10.468  18.847  0.00  0.00    +0.000 A 
BRANCH  18  26
ATOM     25  C   UNL     1      -2.322  13.072  21.189  0.00  0.00    +0.000 C 
ATOM     26  O   UNL     1      -1.709  11.868  20.735  0.00  0.00    +0.000 OA
ENDBRANCH  18  26
BRANCH  20  27
ATOM     27  O   UNL     1      -4.499  12.177  16.823  0.00  0.00    +0.000 OA
ATOM     28  H   UNL     1      -4.445  13.147  16.875  0.00  0.00    +0.000 HD
ENDBRANCH  20  27
ENDBRANCH  16  24
ENDBRANCH   1  17
TORSDOF 8
ENDMDL
MODEL 9
REMARK VINA RESULT:      -7.4      2.410      9.263
REMARK  Name = 
REMARK  12 active torsions:
REMARK  status: ('A' for Active; 'I' for Inactive)
REMARK    1  A    between atoms: C_1  and  O_2
REMARK    2  A    between atoms: O_2  and  C_3
REMARK    3  A    between atoms: C_5  and  O_6
REMARK    4  A    between atoms: C_10  and  C_11
REMARK    5  A    between atoms: C_12  and  C_13
REMARK    6  A    between atoms: C_13  and  C_15
REMARK    7  A    between atoms: C_18  and  O_19
REMARK    8  A    between atoms: O_19  and  C_20
REMARK    9  A    between atoms: C_21  and  C_22
REMARK   10  A    between atoms: C_22  and  C_23
REMARK   11  A    between atoms: C_24  and  C_25
REMARK   12  A    between atoms: C_24  and  C_26
REMARK                            x       y       z     vdW  Elec       q    Type
REMARK                         _______ _______ _______ _____ _____    ______ ____
ROOT
ATOM      1  C   UNL     1       1.400  10.124  18.351  0.00  0.00    +0.000 C 
ATOM      2  O   UNL     1       2.254  10.973  18.120  0.00  0.00    +0.000 OA
ENDROOT
BRANCH   1   3
ATOM      3  C   UNL     1      -0.052  10.476  18.392  0.00  0.00    +0.000 A 
ATOM      4  C   UNL     1      -0.962   9.870  17.524  0.00  0.00    +0.000 A 
ATOM      5  C   UNL     1      -2.312  10.227  17.572  0.00  0.00    +0.000 A 
ATOM      6  C   UNL     1      -2.781  11.201  18.466  0.00  0.00    +0.000 A 
ATOM      7  C   UNL     1      -1.872  11.857  19.315  0.00  0.00    +0.000 A 
ATOM      8  C   UNL     1      -0.507  11.468  19.272  0.00  0.00    +0.000 A 
BRANCH   6   9
ATOM      9  O   UNL     1      -4.101  11.503  18.275  0.00  0.00    +0.000 OA
ATOM     10  C   UNL     1      -4.614  11.425  16.951  0.00  0.00    +0.000 C 
ENDBRANCH   6   9
BRANCH   7  11
ATOM     11  C   UNL     1      -2.229  13.029  20.204  0.00  0.00    +0.000 C 
BRANCH  11  12
ATOM     12  C   UNL     1      -3.066  12.679  21.411  0.00  0.00    +0.000 C 
ATOM     13  C   UNL     1      -2.656  12.793  22.692  0.00  0.00    +0.000 C 
ATOM     14  C   UNL     1      -1.287  13.267  23.099  0.00  0.00    +0.000 C 
ATOM     15  C   UNL     1      -3.555  12.438  23.848  0.00  0.00    +0.000 C 
ENDBRANCH  11  12
ENDBRANCH   7  11
ENDBRANCH   1   3
BRANCH   1  17
ATOM     16  C   UNL     1       2.692   8.040  17.963  0.00  0.00    +0.000 C 
ATOM     17  C   UNL     1       1.741   8.701  18.642  0.00  0.00    +0.000 C 
BRANCH  16  24
ATOM     18  C   UNL     1       4.046   5.907  17.460  0.00  0.00    +0.000 A 
ATOM     19  C   UNL     1       4.363   4.585  17.813  0.00  0.00    +0.000 A 
ATOM     20  C   UNL     1       3.692   3.952  18.858  0.00  0.00    +0.000 A 
ATOM     21  C   UNL     1       2.712   4.638  19.571  0.00  0.00    +0.000 A 
ATOM     22 BR   UNL     1       1.772   3.814  20.997  0.00  0.00    +0.000 Br
ATOM     23  C   UNL     1       2.412   5.965  19.248  0.00  0.00    +0.000 A 
ATOM     24  C   UNL     1       3.066   6.621  18.188  0.00  0.00    +0.000 A 
BRANCH  18  26
ATOM     25  C   UNL     1       5.703   5.807  15.760  0.00  0.00    +0.000 C 
ATOM     26  O   UNL     1       4.707   6.562  16.447  0.00  0.00    +0.000 OA
ENDBRANCH  18  26
BRANCH  20  27
ATOM     27  O   UNL     1       4.006   2.662  19.182  0.00  0.00    +0.000 OA
ATOM     28  H   UNL     1       3.701   2.060  18.483  0.00  0.00    +0.000 HD
ENDBRANCH  20  27
ENDBRANCH  16  24
ENDBRANCH   1  17
TORSDOF 8
ENDMDL
