MODEL 1
REMARK VINA RESULT:      -9.1      0.000      0.000
REMARK  Name = 
REMARK  10 active torsions:
REMARK  status: ('A' for Active; 'I' for Inactive)
REMARK    1  A    between atoms: C_1  and  C_2
REMARK    2  A    between atoms: C_2  and  N_3
REMARK    3  A    between atoms: N_3  and  C_4
REMARK    4  A    between atoms: C_4  and  C_5
REMARK    5  A    between atoms: C_6  and  C_8
REMARK    6  A    between atoms: C_12  and  N_13
REMARK    7  A    between atoms: C_14  and  C_16
REMARK    8  A    between atoms: C_16  and  C_17
REMARK    9  A    between atoms: C_17  and  C_18
REMARK   10  A    between atoms: C_20  and  O_21
REMARK                            x       y       z     vdW  Elec       q    Type
REMARK                         _______ _______ _______ _____ _____    ______ ____
ROOT
ATOM      1  N   UNL     1       6.726   7.489  16.921  0.00  0.00    +0.000 N 
ATOM      2  C   UNL     1       7.743   7.712  17.823  0.00  0.00    +0.000 C 
ATOM      3  O   UNL     1       8.137   6.892  18.656  0.00  0.00    +0.000 OA
ATOM      4  H   UNL     1       6.378   8.277  16.387  0.00  0.00    +0.000 HD
ENDROOT
BRANCH   1   9
ATOM      5  C   UNL     1       4.129   4.865  17.273  0.00  0.00    +0.000 A 
ATOM      6  C   UNL     1       4.594   3.885  16.388  0.00  0.00    +0.000 A 
ATOM      7  C   UNL     1       5.772   4.083  15.681  0.00  0.00    +0.000 A 
ATOM      8  C   UNL     1       6.488   5.277  15.830  0.00  0.00    +0.000 A 
ATOM      9  C   UNL     1       6.067   6.247  16.743  0.00  0.00    +0.000 A 
ATOM     10  C   UNL     1       4.923   6.000  17.501  0.00  0.00    +0.000 A 
BRANCH   5  12
ATOM     11  N   UNL     1       2.605   3.457  18.741  0.00  0.00    +0.000 N 
ATOM     12  C   UNL     1       2.829   4.628  17.978  0.00  0.00    +0.000 C 
ATOM     13  O   UNL     1       1.975   5.508  17.865  0.00  0.00    +0.000 OA
BRANCH  11  15
ATOM     14  C   UNL     1       1.030   3.002  20.642  0.00  0.00    +0.000 C 
ATOM     15  C   UNL     1       1.213   3.213  19.143  0.00  0.00    +0.000 C 
ENDBRANCH  11  15
BRANCH  11  16
ATOM     16  C   UNL     1       3.596   2.383  18.889  0.00  0.00    +0.000 C 
ATOM     17  C   UNL     1       4.567   2.403  20.054  0.00  0.00    +0.000 C 
ENDBRANCH  11  16
ENDBRANCH   5  12
ENDBRANCH   1   9
BRANCH   2  18
ATOM     18  C   UNL     1       8.328   9.104  17.783  0.00  0.00    +0.000 C 
BRANCH  18  19
ATOM     19  C   UNL     1       8.998   9.372  19.126  0.00  0.00    +0.000 C 
BRANCH  19  20
ATOM     20  C   UNL     1       9.476  10.783  19.249  0.00  0.00    +0.000 A 
ATOM     21  N   UNL     1       9.392  11.366  20.462  0.00  0.00    +0.000 NA
ATOM     22  C   UNL     1       9.888  12.602  20.579  0.00  0.00    +0.000 A 
ATOM     23  C   UNL     1      10.470  13.271  19.511  0.00  0.00    +0.000 A 
ATOM     24  C   UNL     1      11.099  14.551  19.341  0.00  0.00    +0.000 A 
ATOM     25  C   UNL     1      11.496  14.748  18.032  0.00  0.00    +0.000 A 
ATOM     26  S   UNL     1      11.147  13.424  17.026  0.00  0.00    +0.000 S 
ATOM     27  C   UNL     1      10.453  12.568  18.321  0.00  0.00    +0.000 A 
ATOM     28  N   UNL     1       9.963  11.334  18.129  0.00  0.00    +0.000 NA
ATOM     29  C   UNL     1      12.198  15.962  17.513  0.00  0.00    +0.000 C 
ATOM     30  C   UNL     1      12.053  17.118  18.513  0.00  0.00    +0.000 C 
ATOM     31  C   UNL     1      12.332  16.649  19.948  0.00  0.00    +0.000 C 
ATOM     32  C   UNL     1      11.308  15.594  20.400  0.00  0.00    +0.000 C 
BRANCH  22  33
ATOM     33  O   UNL     1       9.783  13.139  21.833  0.00  0.00    +0.000 OA
ATOM     34  H   UNL     1      10.701  13.429  21.983  0.00  0.00    +0.000 HD
ENDBRANCH  22  33
ENDBRANCH  19  20
ENDBRANCH  18  19
ENDBRANCH   2  18
TORSDOF 8
ENDMDL
MODEL 2
REMARK VINA RESULT:      -9.0      1.319      1.797
REMARK  Name = 
REMARK  10 active torsions:
REMARK  status: ('A' for Active; 'I' for Inactive)
REMARK    1  A    between atoms: C_1  and  C_2
REMARK    2  A    between atoms: C_2  and  N_3
REMARK    3  A    between atoms: N_3  and  C_4
REMARK    4  A    between atoms: C_4  and  C_5
REMARK    5  A    between atoms: C_6  and  C_8
REMARK    6  A    between atoms: C_12  and  N_13
REMARK    7  A    between atoms: C_14  and  C_16
REMARK    8  A    between atoms: C_16  and  C_17
REMARK    9  A    between atoms: C_17  and  C_18
REMARK   10  A    between atoms: C_20  and  O_21
REMARK                            x       y       z     vdW  Elec       q    Type
REMARK                         _______ _______ _______ _____ _____    ______ ____
ROOT
ATOM      1  N   UNL     1       6.560   7.477  16.941  0.00  0.00    +0.000 N 
ATOM      2  C   UNL     1       7.593   7.696  17.826  0.00  0.00    +0.000 C 
ATOM      3  O   UNL     1       8.044   6.851  18.603  0.00  0.00    +0.000 OA
ATOM      4  H   UNL     1       6.165   8.277  16.460  0.00  0.00    +0.000 HD
ENDROOT
BRANCH   1   9
ATOM      5  C   UNL     1       4.070   4.741  17.201  0.00  0.00    +0.000 A 
ATOM      6  C   UNL     1       4.563   3.819  16.269  0.00  0.00    +0.000 A 
ATOM      7  C   UNL     1       5.725   4.094  15.561  0.00  0.00    +0.000 A 
ATOM      8  C   UNL     1       6.396   5.307  15.756  0.00  0.00    +0.000 A 
ATOM      9  C   UNL     1       5.948   6.219  16.714  0.00  0.00    +0.000 A 
ATOM     10  C   UNL     1       4.823   5.896  17.472  0.00  0.00    +0.000 A 
BRANCH   5  12
ATOM     11  N   UNL     1       2.652   3.261  18.705  0.00  0.00    +0.000 N 
ATOM     12  C   UNL     1       2.788   4.423  17.907  0.00  0.00    +0.000 C 
ATOM     13  O   UNL     1       1.868   5.229  17.763  0.00  0.00    +0.000 OA
BRANCH  11  15
ATOM     14  C   UNL     1       0.954   3.278  20.552  0.00  0.00    +0.000 C 
ATOM     15  C   UNL     1       1.281   2.920  19.107  0.00  0.00    +0.000 C 
ENDBRANCH  11  15
BRANCH  11  16
ATOM     16  C   UNL     1       3.724   2.275  18.889  0.00  0.00    +0.000 C 
ATOM     17  C   UNL     1       4.584   2.315  20.137  0.00  0.00    +0.000 C 
ENDBRANCH  11  16
ENDBRANCH   5  12
ENDBRANCH   1   9
BRANCH   2  18
ATOM     18  C   UNL     1       8.119   9.111  17.845  0.00  0.00    +0.000 C 
BRANCH  18  19
ATOM     19  C   UNL     1       8.958   9.284  19.106  0.00  0.00    +0.000 C 
BRANCH  19  20
ATOM     20  C   UNL     1       9.690  10.588  19.125  0.00  0.00    +0.000 A 
ATOM     21  N   UNL     1      10.506  10.860  18.086  0.00  0.00    +0.000 NA
ATOM     22  C   UNL     1      11.101  12.057  18.077  0.00  0.00    +0.000 A 
ATOM     23  C   UNL     1      10.898  12.994  19.081  0.00  0.00    +0.000 A 
ATOM     24  C   UNL     1      11.356  14.333  19.323  0.00  0.00    +0.000 A 
ATOM     25  C   UNL     1      10.866  14.826  20.518  0.00  0.00    +0.000 A 
ATOM     26  S   UNL     1       9.860  13.722  21.329  0.00  0.00    +0.000 S 
ATOM     27  C   UNL     1      10.067  12.565  20.100  0.00  0.00    +0.000 A 
ATOM     28  N   UNL     1       9.449  11.378  20.181  0.00  0.00    +0.000 NA
ATOM     29  C   UNL     1      11.131  16.193  21.065  0.00  0.00    +0.000 C 
ATOM     30  C   UNL     1      12.333  16.821  20.345  0.00  0.00    +0.000 C 
ATOM     31  C   UNL     1      12.231  16.631  18.825  0.00  0.00    +0.000 C 
ATOM     32  C   UNL     1      12.267  15.141  18.445  0.00  0.00    +0.000 C 
BRANCH  22  33
ATOM     33  O   UNL     1      11.909  12.281  16.996  0.00  0.00    +0.000 OA
ATOM     34  H   UNL     1      12.438  11.463  16.992  0.00  0.00    +0.000 HD
ENDBRANCH  22  33
ENDBRANCH  19  20
ENDBRANCH  18  19
ENDBRANCH   2  18
TORSDOF 8
ENDMDL
MODEL 3
REMARK VINA RESULT:      -9.0      1.784      2.397
REMARK  Name = 
REMARK  10 active torsions:
REMARK  status: ('A' for Active; 'I' for Inactive)
REMARK    1  A    between atoms: C_1  and  C_2
REMARK    2  A    between atoms: C_2  and  N_3
REMARK    3  A    between atoms: N_3  and  C_4
REMARK    4  A    between atoms: C_4  and  C_5
REMARK    5  A    between atoms: C_6  and  C_8
REMARK    6  A    between atoms: C_12  and  N_13
REMARK    7  A    between atoms: C_14  and  C_16
REMARK    8  A    between atoms: C_16  and  C_17
REMARK    9  A    between atoms: C_17  and  C_18
REMARK   10  A    between atoms: C_20  and  O_21
REMARK                            x       y       z     vdW  Elec       q    Type
REMARK                         _______ _______ _______ _____ _____    ______ ____
ROOT
ATOM      1  N   UNL     1       6.625   7.507  17.050  0.00  0.00    +0.000 N 
ATOM      2  C   UNL     1       7.710   7.805  17.845  0.00  0.00    +0.000 C 
ATOM      3  O   UNL     1       8.242   7.019  18.633  0.00  0.00    +0.000 OA
ATOM      4  H   UNL     1       6.171   8.266  16.556  0.00  0.00    +0.000 HD
ENDROOT
BRANCH   1   9
ATOM      5  C   UNL     1       4.822   4.423  18.047  0.00  0.00    +0.000 A 
ATOM      6  C   UNL     1       4.738   3.737  16.830  0.00  0.00    +0.000 A 
ATOM      7  C   UNL     1       5.287   4.285  15.679  0.00  0.00    +0.000 A 
ATOM      8  C   UNL     1       5.904   5.541  15.724  0.00  0.00    +0.000 A 
ATOM      9  C   UNL     1       6.040   6.221  16.937  0.00  0.00    +0.000 A 
ATOM     10  C   UNL     1       5.551   5.622  18.098  0.00  0.00    +0.000 A 
BRANCH   5  12
ATOM     11  N   UNL     1       2.932   4.288  19.742  0.00  0.00    +0.000 N 
ATOM     12  C   UNL     1       4.174   3.815  19.253  0.00  0.00    +0.000 C 
ATOM     13  O   UNL     1       4.772   2.879  19.785  0.00  0.00    +0.000 OA
BRANCH  11  15
ATOM     14  C   UNL     1       1.421   2.776  21.057  0.00  0.00    +0.000 C 
ATOM     15  C   UNL     1       2.545   3.806  21.074  0.00  0.00    +0.000 C 
ENDBRANCH  11  15
BRANCH  11  16
ATOM     16  C   UNL     1       2.196   5.406  19.138  0.00  0.00    +0.000 C 
ATOM     17  C   UNL     1       2.337   6.803  19.712  0.00  0.00    +0.000 C 
ENDBRANCH  11  16
ENDBRANCH   5  12
ENDBRANCH   1   9
BRANCH   2  18
ATOM     18  C   UNL     1       8.189   9.233  17.749  0.00  0.00    +0.000 C 
BRANCH  18  19
ATOM     19  C   UNL     1       9.018   9.537  18.992  0.00  0.00    +0.000 C 
BRANCH  19  20
ATOM     20  C   UNL     1       9.485  10.957  19.030  0.00  0.00    +0.000 A 
ATOM     21  N   UNL     1       9.879  11.514  17.866  0.00  0.00    +0.000 NA
ATOM     22  C   UNL     1      10.227  12.804  17.897  0.00  0.00    +0.000 A 
ATOM     23  C   UNL     1      10.189  13.555  19.064  0.00  0.00    +0.000 A 
ATOM     24  C   UNL     1      10.463  14.925  19.396  0.00  0.00    +0.000 A 
ATOM     25  C   UNL     1      10.291  15.162  20.747  0.00  0.00    +0.000 A 
ATOM     26  S   UNL     1       9.792  13.783  21.604  0.00  0.00    +0.000 S 
ATOM     27  C   UNL     1       9.802  12.844  20.186  0.00  0.00    +0.000 A 
ATOM     28  N   UNL     1       9.452  11.551  20.231  0.00  0.00    +0.000 NA
ATOM     29  C   UNL     1      10.475  16.483  21.425  0.00  0.00    +0.000 C 
ATOM     30  C   UNL     1      11.268  17.432  20.516  0.00  0.00    +0.000 C 
ATOM     31  C   UNL     1      10.733  17.399  19.077  0.00  0.00    +0.000 C 
ATOM     32  C   UNL     1      10.904  16.005  18.450  0.00  0.00    +0.000 C 
BRANCH  22  33
ATOM     33  O   UNL     1      10.608  13.318  16.688  0.00  0.00    +0.000 OA
ATOM     34  H   UNL     1       9.823  13.846  16.459  0.00  0.00    +0.000 HD
ENDBRANCH  22  33
ENDBRANCH  19  20
ENDBRANCH  18  19
ENDBRANCH   2  18
TORSDOF 8
ENDMDL
MODEL 4
REMARK VINA RESULT:      -8.9      1.389      1.762
REMARK  Name = 
REMARK  10 active torsions:
REMARK  status: ('A' for Active; 'I' for Inactive)
REMARK    1  A    between atoms: C_1  and  C_2
REMARK    2  A    between atoms: C_2  and  N_3
REMARK    3  A    between atoms: N_3  and  C_4
REMARK    4  A    between atoms: C_4  and  C_5
REMARK    5  A    between atoms: C_6  and  C_8
REMARK    6  A    between atoms: C_12  and  N_13
REMARK    7  A    between atoms: C_14  and  C_16
REMARK    8  A    between atoms: C_16  and  C_17
REMARK    9  A    between atoms: C_17  and  C_18
REMARK   10  A    between atoms: C_20  and  O_21
REMARK                            x       y       z     vdW  Elec       q    Type
REMARK                         _______ _______ _______ _____ _____    ______ ____
ROOT
ATOM      1  N   UNL     1       6.510   7.459  17.167  0.00  0.00    +0.000 N 
ATOM      2  C   UNL     1       7.628   7.733  17.925  0.00  0.00    +0.000 C 
ATOM      3  O   UNL     1       8.233   6.905  18.610  0.00  0.00    +0.000 OA
ATOM      4  H   UNL     1       6.000   8.238  16.767  0.00  0.00    +0.000 HD
ENDROOT
BRANCH   1   9
ATOM      5  C   UNL     1       4.890   4.225  17.985  0.00  0.00    +0.000 A 
ATOM      6  C   UNL     1       4.755   3.646  16.718  0.00  0.00    +0.000 A 
ATOM      7  C   UNL     1       5.209   4.317  15.591  0.00  0.00    +0.000 A 
ATOM      8  C   UNL     1       5.781   5.589  15.713  0.00  0.00    +0.000 A 
ATOM      9  C   UNL     1       5.968   6.164  16.973  0.00  0.00    +0.000 A 
ATOM     10  C   UNL     1       5.576   5.445  18.101  0.00  0.00    +0.000 A 
BRANCH   5  12
ATOM     11  N   UNL     1       3.031   3.727  19.647  0.00  0.00    +0.000 N 
ATOM     12  C   UNL     1       4.342   3.486  19.168  0.00  0.00    +0.000 C 
ATOM     13  O   UNL     1       5.086   2.655  19.689  0.00  0.00    +0.000 OA
BRANCH  11  15
ATOM     14  C   UNL     1       1.232   2.893  21.185  0.00  0.00    +0.000 C 
ATOM     15  C   UNL     1       2.717   3.153  20.963  0.00  0.00    +0.000 C 
ENDBRANCH  11  15
BRANCH  11  16
ATOM     16  C   UNL     1       2.121   4.716  19.056  0.00  0.00    +0.000 C 
ATOM     17  C   UNL     1       1.419   4.413  17.747  0.00  0.00    +0.000 C 
ENDBRANCH  11  16
ENDBRANCH   5  12
ENDBRANCH   1   9
BRANCH   2  18
ATOM     18  C   UNL     1       8.047   9.183  17.929  0.00  0.00    +0.000 C 
BRANCH  18  19
ATOM     19  C   UNL     1       9.224   9.330  18.887  0.00  0.00    +0.000 C 
BRANCH  19  20
ATOM     20  C   UNL     1       9.368  10.728  19.399  0.00  0.00    +0.000 A 
ATOM     21  N   UNL     1       9.282  10.915  20.731  0.00  0.00    +0.000 NA
ATOM     22  C   UNL     1       9.483  12.156  21.186  0.00  0.00    +0.000 A 
ATOM     23  C   UNL     1       9.770  13.218  20.339  0.00  0.00    +0.000 A 
ATOM     24  C   UNL     1      10.058  14.612  20.526  0.00  0.00    +0.000 A 
ATOM     25  C   UNL     1      10.252  15.255  19.317  0.00  0.00    +0.000 A 
ATOM     26  S   UNL     1      10.116  14.212  17.982  0.00  0.00    +0.000 S 
ATOM     27  C   UNL     1       9.789  12.887  18.996  0.00  0.00    +0.000 A 
ATOM     28  N   UNL     1       9.586  11.670  18.470  0.00  0.00    +0.000 NA
ATOM     29  C   UNL     1      10.587  16.703  19.150  0.00  0.00    +0.000 C 
ATOM     30  C   UNL     1      10.284  17.464  20.448  0.00  0.00    +0.000 C 
ATOM     31  C   UNL     1      10.821  16.709  21.673  0.00  0.00    +0.000 C 
ATOM     32  C   UNL     1      10.130  15.344  21.835  0.00  0.00    +0.000 C 
BRANCH  22  33
ATOM     33  O   UNL     1       9.393  12.285  22.544  0.00  0.00    +0.000 OA
ATOM     34  H   UNL     1       9.126  13.218  22.621  0.00  0.00    +0.000 HD
ENDBRANCH  22  33
ENDBRANCH  19  20
ENDBRANCH  18  19
ENDBRANCH   2  18
TORSDOF 8
ENDMDL
MODEL 5
REMARK VINA RESULT:      -8.6      1.854      2.460
REMARK  Name = 
REMARK  10 active torsions:
REMARK  status: ('A' for Active; 'I' for Inactive)
REMARK    1  A    between atoms: C_1  and  C_2
REMARK    2  A    between atoms: C_2  and  N_3
REMARK    3  A    between atoms: N_3  and  C_4
REMARK    4  A    between atoms: C_4  and  C_5
REMARK    5  A    between atoms: C_6  and  C_8
REMARK    6  A    between atoms: C_12  and  N_13
REMARK    7  A    between atoms: C_14  and  C_16
REMARK    8  A    between atoms: C_16  and  C_17
REMARK    9  A    between atoms: C_17  and  C_18
REMARK   10  A    between atoms: C_20  and  O_21
REMARK                            x       y       z     vdW  Elec       q    Type
REMARK                         _______ _______ _______ _____ _____    ______ ____
ROOT
ATOM      1  N   UNL     1       6.321   7.260  17.783  0.00  0.00    +0.000 N 
ATOM      2  C   UNL     1       7.463   7.765  17.200  0.00  0.00    +0.000 C 
ATOM      3  O   UNL     1       8.223   7.124  16.471  0.00  0.00    +0.000 OA
ATOM      4  H   UNL     1       5.853   7.821  18.485  0.00  0.00    +0.000 HD
ENDROOT
BRANCH   1   9
ATOM      5  C   UNL     1       4.790   3.952  18.468  0.00  0.00    +0.000 A 
ATOM      6  C   UNL     1       4.618   3.445  17.174  0.00  0.00    +0.000 A 
ATOM      7  C   UNL     1       5.018   4.189  16.073  0.00  0.00    +0.000 A 
ATOM      8  C   UNL     1       5.571   5.463  16.249  0.00  0.00    +0.000 A 
ATOM      9  C   UNL     1       5.795   5.968  17.533  0.00  0.00    +0.000 A 
ATOM     10  C   UNL     1       5.458   5.177  18.631  0.00  0.00    +0.000 A 
BRANCH   5  12
ATOM     11  N   UNL     1       3.013   3.335  20.178  0.00  0.00    +0.000 N 
ATOM     12  C   UNL     1       4.301   3.134  19.624  0.00  0.00    +0.000 C 
ATOM     13  O   UNL     1       5.072   2.276  20.055  0.00  0.00    +0.000 OA
BRANCH  11  15
ATOM     14  C   UNL     1       1.288   2.421  21.755  0.00  0.00    +0.000 C 
ATOM     15  C   UNL     1       2.763   2.675  21.467  0.00  0.00    +0.000 C 
ENDBRANCH  11  15
BRANCH  11  16
ATOM     16  C   UNL     1       2.073   4.354  19.695  0.00  0.00    +0.000 C 
ATOM     17  C   UNL     1       1.327   4.141  18.392  0.00  0.00    +0.000 C 
ENDBRANCH  11  16
ENDBRANCH   5  12
ENDBRANCH   1   9
BRANCH   2  18
ATOM     18  C   UNL     1       7.786   9.190  17.578  0.00  0.00    +0.000 C 
BRANCH  18  19
ATOM     19  C   UNL     1       8.799   9.157  18.717  0.00  0.00    +0.000 C 
BRANCH  19  20
ATOM     20  C   UNL     1       9.484  10.473  18.906  0.00  0.00    +0.000 A 
ATOM     21  N   UNL     1      10.240  10.933  17.890  0.00  0.00    +0.000 NA
ATOM     22  C   UNL     1      10.791  12.142  18.040  0.00  0.00    +0.000 A 
ATOM     23  C   UNL     1      10.600  12.907  19.183  0.00  0.00    +0.000 A 
ATOM     24  C   UNL     1      11.019  14.212  19.609  0.00  0.00    +0.000 A 
ATOM     25  C   UNL     1      10.567  14.497  20.884  0.00  0.00    +0.000 A 
ATOM     26  S   UNL     1       9.641  13.241  21.556  0.00  0.00    +0.000 S 
ATOM     27  C   UNL     1       9.833  12.293  20.157  0.00  0.00    +0.000 A 
ATOM     28  N   UNL     1       9.262  11.082  20.080  0.00  0.00    +0.000 NA
ATOM     29  C   UNL     1      10.808  15.775  21.623  0.00  0.00    +0.000 C 
ATOM     30  C   UNL     1      11.952  16.556  20.960  0.00  0.00    +0.000 C 
ATOM     31  C   UNL     1      11.787  16.594  19.434  0.00  0.00    +0.000 C 
ATOM     32  C   UNL     1      11.860  15.182  18.829  0.00  0.00    +0.000 C 
BRANCH  22  33
ATOM     33  O   UNL     1      11.539  12.561  16.975  0.00  0.00    +0.000 OA
ATOM     34  H   UNL     1      11.338  11.864  16.326  0.00  0.00    +0.000 HD
ENDBRANCH  22  33
ENDBRANCH  19  20
ENDBRANCH  18  19
ENDBRANCH   2  18
TORSDOF 8
ENDMDL
MODEL 6
REMARK VINA RESULT:      -8.4      7.102      9.780
REMARK  Name = 
REMARK  10 active torsions:
REMARK  status: ('A' for Active; 'I' for Inactive)
REMARK    1  A    between atoms: C_1  and  C_2
REMARK    2  A    between atoms: C_2  and  N_3
REMARK    3  A    between atoms: N_3  and  C_4
REMARK    4  A    between atoms: C_4  and  C_5
REMARK    5  A    between atoms: C_6  and  C_8
REMARK    6  A    between atoms: C_12  and  N_13
REMARK    7  A    between atoms: C_14  and  C_16
REMARK    8  A    between atoms: C_16  and  C_17
REMARK    9  A    between atoms: C_17  and  C_18
REMARK   10  A    between atoms: C_20  and  O_21
REMARK                            x       y       z     vdW  Elec       q    Type
REMARK                         _______ _______ _______ _____ _____    ______ ____
ROOT
ATOM      1  N   UNL     1       2.465   5.914  20.734  0.00  0.00    +0.000 N 
ATOM      2  C   UNL     1       1.648   4.812  20.866  0.00  0.00    +0.000 C 
ATOM      3  O   UNL     1       0.604   4.630  20.234  0.00  0.00    +0.000 OA
ATOM      4  H   UNL     1       3.211   6.040  21.407  0.00  0.00    +0.000 HD
ENDROOT
BRANCH   1   9
ATOM      5  C   UNL     1       1.394   9.155  19.284  0.00  0.00    +0.000 A 
ATOM      6  C   UNL     1       1.958   9.094  18.004  0.00  0.00    +0.000 A 
ATOM      7  C   UNL     1       2.684   7.978  17.612  0.00  0.00    +0.000 A 
ATOM      8  C   UNL     1       2.878   6.917  18.506  0.00  0.00    +0.000 A 
ATOM      9  C   UNL     1       2.284   6.937  19.770  0.00  0.00    +0.000 A 
ATOM     10  C   UNL     1       1.495   8.032  20.121  0.00  0.00    +0.000 A 
BRANCH   5  12
ATOM     11  N   UNL     1      -0.518  10.808  19.007  0.00  0.00    +0.000 N 
ATOM     12  C   UNL     1       0.660  10.400  19.679  0.00  0.00    +0.000 C 
ATOM     13  O   UNL     1       1.129  11.038  20.622  0.00  0.00    +0.000 OA
BRANCH  11  15
ATOM     14  C   UNL     1      -2.038  12.248  20.390  0.00  0.00    +0.000 C 
ATOM     15  C   UNL     1      -0.979  12.172  19.297  0.00  0.00    +0.000 C 
ENDBRANCH  11  15
BRANCH  11  16
ATOM     16  C   UNL     1      -1.098  10.077  17.873  0.00  0.00    +0.000 C 
ATOM     17  C   UNL     1      -2.601   9.894  17.779  0.00  0.00    +0.000 C 
ENDBRANCH  11  16
ENDBRANCH   5  12
ENDBRANCH   1   9
BRANCH   2  18
ATOM     18  C   UNL     1       2.082   3.829  21.926  0.00  0.00    +0.000 C 
BRANCH  18  19
ATOM     19  C   UNL     1       2.561   2.563  21.226  0.00  0.00    +0.000 C 
BRANCH  19  20
ATOM     20  C   UNL     1       3.239   2.856  19.925  0.00  0.00    +0.000 A 
ATOM     21  N   UNL     1       2.649   2.403  18.800  0.00  0.00    +0.000 NA
ATOM     22  C   UNL     1       3.224   2.731  17.638  0.00  0.00    +0.000 A 
ATOM     23  C   UNL     1       4.375   3.505  17.572  0.00  0.00    +0.000 A 
ATOM     24  C   UNL     1       5.181   4.031  16.507  0.00  0.00    +0.000 A 
ATOM     25  C   UNL     1       6.265   4.735  16.995  0.00  0.00    +0.000 A 
ATOM     26  S   UNL     1       6.314   4.788  18.692  0.00  0.00    +0.000 S 
ATOM     27  C   UNL     1       4.890   3.866  18.805  0.00  0.00    +0.000 A 
ATOM     28  N   UNL     1       4.374   3.563  20.005  0.00  0.00    +0.000 NA
ATOM     29  C   UNL     1       7.295   5.429  16.160  0.00  0.00    +0.000 C 
ATOM     30  C   UNL     1       7.226   4.918  14.714  0.00  0.00    +0.000 C 
ATOM     31  C   UNL     1       5.776   4.857  14.214  0.00  0.00    +0.000 C 
ATOM     32  C   UNL     1       4.944   3.857  15.035  0.00  0.00    +0.000 C 
BRANCH  22  33
ATOM     33  O   UNL     1       2.579   2.253  16.531  0.00  0.00    +0.000 OA
ATOM     34  H   UNL     1       2.720   2.987  15.907  0.00  0.00    +0.000 HD
ENDBRANCH  22  33
ENDBRANCH  19  20
ENDBRANCH  18  19
ENDBRANCH   2  18
TORSDOF 8
ENDMDL
MODEL 7
REMARK VINA RESULT:      -8.3      3.059     11.064
REMARK  Name = 
REMARK  10 active torsions:
REMARK  status: ('A' for Active; 'I' for Inactive)
REMARK    1  A    between atoms: C_1  and  C_2
REMARK    2  A    between atoms: C_2  and  N_3
REMARK    3  A    between atoms: N_3  and  C_4
REMARK    4  A    between atoms: C_4  and  C_5
REMARK    5  A    between atoms: C_6  and  C_8
REMARK    6  A    between atoms: C_12  and  N_13
REMARK    7  A    between atoms: C_14  and  C_16
REMARK    8  A    between atoms: C_16  and  C_17
REMARK    9  A    between atoms: C_17  and  C_18
REMARK   10  A    between atoms: C_20  and  O_21
REMARK                            x       y       z     vdW  Elec       q    Type
REMARK                         _______ _______ _______ _____ _____    ______ ____
ROOT
ATOM      1  N   UNL     1       9.336   9.617  19.438  0.00  0.00    +0.000 N 
ATOM      2  C   UNL     1       8.519   9.324  18.368  0.00  0.00    +0.000 C 
ATOM      3  O   UNL     1       8.031  10.162  17.605  0.00  0.00    +0.000 OA
ATOM      4  H   UNL     1       9.556   8.873  20.090  0.00  0.00    +0.000 HD
ENDROOT
BRANCH   1   9
ATOM      5  C   UNL     1       9.432  13.031  20.885  0.00  0.00    +0.000 A 
ATOM      6  C   UNL     1      10.719  13.453  20.530  0.00  0.00    +0.000 A 
ATOM      7  C   UNL     1      11.554  12.616  19.803  0.00  0.00    +0.000 A 
ATOM      8  C   UNL     1      11.123  11.334  19.443  0.00  0.00    +0.000 A 
ATOM      9  C   UNL     1       9.826  10.910  19.745  0.00  0.00    +0.000 A 
ATOM     10  C   UNL     1       8.973  11.791  20.410  0.00  0.00    +0.000 A 
BRANCH   5  12
ATOM     11  N   UNL     1       8.210  13.616  23.035  0.00  0.00    +0.000 N 
ATOM     12  C   UNL     1       8.584  13.949  21.711  0.00  0.00    +0.000 C 
ATOM     13  O   UNL     1       8.242  15.006  21.181  0.00  0.00    +0.000 OA
BRANCH  11  15
ATOM     14  C   UNL     1       7.679  15.469  24.643  0.00  0.00    +0.000 C 
ATOM     15  C   UNL     1       7.160  14.454  23.631  0.00  0.00    +0.000 C 
ENDBRANCH  11  15
BRANCH  11  16
ATOM     16  C   UNL     1       8.591  12.361  23.694  0.00  0.00    +0.000 C 
ATOM     17  C   UNL     1       7.647  11.709  24.686  0.00  0.00    +0.000 C 
ENDBRANCH  11  16
ENDBRANCH   5  12
ENDBRANCH   1   9
BRANCH   2  18
ATOM     18  C   UNL     1       8.180   7.861  18.215  0.00  0.00    +0.000 C 
BRANCH  18  19
ATOM     19  C   UNL     1       7.263   7.714  17.006  0.00  0.00    +0.000 C 
BRANCH  19  20
ATOM     20  C   UNL     1       6.240   6.639  17.197  0.00  0.00    +0.000 A 
ATOM     21  N   UNL     1       6.496   5.432  16.653  0.00  0.00    +0.000 NA
ATOM     22  C   UNL     1       5.610   4.459  16.889  0.00  0.00    +0.000 A 
ATOM     23  C   UNL     1       4.474   4.662  17.660  0.00  0.00    +0.000 A 
ATOM     24  C   UNL     1       3.390   3.831  18.103  0.00  0.00    +0.000 A 
ATOM     25  C   UNL     1       2.475   4.549  18.849  0.00  0.00    +0.000 A 
ATOM     26  S   UNL     1       2.907   6.181  19.037  0.00  0.00    +0.000 S 
ATOM     27  C   UNL     1       4.322   5.957  18.121  0.00  0.00    +0.000 A 
ATOM     28  N   UNL     1       5.161   6.982  17.913  0.00  0.00    +0.000 NA
ATOM     29  C   UNL     1       1.239   3.988  19.478  0.00  0.00    +0.000 C 
ATOM     30  C   UNL     1       0.905   2.627  18.852  0.00  0.00    +0.000 C 
ATOM     31  C   UNL     1       2.156   1.743  18.745  0.00  0.00    +0.000 C 
ATOM     32  C   UNL     1       3.204   2.370  17.810  0.00  0.00    +0.000 C 
BRANCH  22  33
ATOM     33  O   UNL     1       5.925   3.256  16.321  0.00  0.00    +0.000 OA
ATOM     34  H   UNL     1       6.895   3.324  16.275  0.00  0.00    +0.000 HD
ENDBRANCH  22  33
ENDBRANCH  19  20
ENDBRANCH  18  19
ENDBRANCH   2  18
TORSDOF 8
ENDMDL
MODEL 8
REMARK VINA RESULT:      -8.3      1.714      2.096
REMARK  Name = 
REMARK  10 active torsions:
REMARK  status: ('A' for Active; 'I' for Inactive)
REMARK    1  A    between atoms: C_1  and  C_2
REMARK    2  A    between atoms: C_2  and  N_3
REMARK    3  A    between atoms: N_3  and  C_4
REMARK    4  A    between atoms: C_4  and  C_5
REMARK    5  A    between atoms: C_6  and  C_8
REMARK    6  A    between atoms: C_12  and  N_13
REMARK    7  A    between atoms: C_14  and  C_16
REMARK    8  A    between atoms: C_16  and  C_17
REMARK    9  A    between atoms: C_17  and  C_18
REMARK   10  A    between atoms: C_20  and  O_21
REMARK                            x       y       z     vdW  Elec       q    Type
REMARK                         _______ _______ _______ _____ _____    ______ ____
ROOT
ATOM      1  N   UNL     1       7.893   6.703  18.243  0.00  0.00    +0.000 N 
ATOM      2  C   UNL     1       7.772   8.042  17.942  0.00  0.00    +0.000 C 
ATOM      3  O   UNL     1       6.964   8.512  17.137  0.00  0.00    +0.000 OA
ATOM      4  H   UNL     1       8.687   6.407  18.798  0.00  0.00    +0.000 HD
ENDROOT
BRANCH   1   9
ATOM      5  C   UNL     1       5.251   4.099  18.271  0.00  0.00    +0.000 A 
ATOM      6  C   UNL     1       5.177   3.755  16.916  0.00  0.00    +0.000 A 
ATOM      7  C   UNL     1       6.008   4.373  15.991  0.00  0.00    +0.000 A 
ATOM      8  C   UNL     1       6.905   5.364  16.406  0.00  0.00    +0.000 A 
ATOM      9  C   UNL     1       7.028   5.689  17.759  0.00  0.00    +0.000 A 
ATOM     10  C   UNL     1       6.241   5.005  18.685  0.00  0.00    +0.000 A 
BRANCH   5  12
ATOM     11  N   UNL     1       3.013   3.970  19.469  0.00  0.00    +0.000 N 
ATOM     12  C   UNL     1       4.303   3.440  19.226  0.00  0.00    +0.000 C 
ATOM     13  O   UNL     1       4.702   2.413  19.776  0.00  0.00    +0.000 OA
BRANCH  11  15
ATOM     14  C   UNL     1       0.780   3.394  20.459  0.00  0.00    +0.000 C 
ATOM     15  C   UNL     1       2.296   3.403  20.619  0.00  0.00    +0.000 C 
ENDBRANCH  11  15
BRANCH  11  16
ATOM     16  C   UNL     1       2.508   5.197  18.839  0.00  0.00    +0.000 C 
ATOM     17  C   UNL     1       2.644   6.527  19.555  0.00  0.00    +0.000 C 
ENDBRANCH  11  16
ENDBRANCH   5  12
ENDBRANCH   1   9
BRANCH   2  18
ATOM     18  C   UNL     1       8.776   8.936  18.629  0.00  0.00    +0.000 C 
BRANCH  18  19
ATOM     19  C   UNL     1       8.936  10.197  17.788  0.00  0.00    +0.000 C 
BRANCH  19  20
ATOM     20  C   UNL     1       9.166  11.413  18.628  0.00  0.00    +0.000 A 
ATOM     21  N   UNL     1       9.333  11.232  19.954  0.00  0.00    +0.000 NA
ATOM     22  C   UNL     1       9.609  12.316  20.686  0.00  0.00    +0.000 A 
ATOM     23  C   UNL     1       9.725  13.580  20.124  0.00  0.00    +0.000 A 
ATOM     24  C   UNL     1      10.035  14.888  20.630  0.00  0.00    +0.000 A 
ATOM     25  C   UNL     1       9.994  15.840  19.629  0.00  0.00    +0.000 A 
ATOM     26  S   UNL     1       9.613  15.186  18.107  0.00  0.00    +0.000 S 
ATOM     27  C   UNL     1       9.492  13.622  18.761  0.00  0.00    +0.000 A 
ATOM     28  N   UNL     1       9.199  12.580  17.969  0.00  0.00    +0.000 NA
ATOM     29  C   UNL     1      10.283  17.297  19.806  0.00  0.00    +0.000 C 
ATOM     30  C   UNL     1      10.227  17.664  21.295  0.00  0.00    +0.000 C 
ATOM     31  C   UNL     1      10.990  16.641  22.149  0.00  0.00    +0.000 C 
ATOM     32  C   UNL     1      10.350  15.246  22.054  0.00  0.00    +0.000 C 
BRANCH  22  33
ATOM     33  O   UNL     1       9.777  12.071  22.021  0.00  0.00    +0.000 OA
ATOM     34  H   UNL     1       9.958  12.970  22.349  0.00  0.00    +0.000 HD
ENDBRANCH  22  33
ENDBRANCH  19  20
ENDBRANCH  18  19
ENDBRANCH   2  18
TORSDOF 8
ENDMDL
MODEL 9
REMARK VINA RESULT:      -8.3      3.014     11.246
REMARK  Name = 
REMARK  10 active torsions:
REMARK  status: ('A' for Active; 'I' for Inactive)
REMARK    1  A    between atoms: C_1  and  C_2
REMARK    2  A    between atoms: C_2  and  N_3
REMARK    3  A    between atoms: N_3  and  C_4
REMARK    4  A    between atoms: C_4  and  C_5
REMARK    5  A    between atoms: C_6  and  C_8
REMARK    6  A    between atoms: C_12  and  N_13
REMARK    7  A    between atoms: C_14  and  C_16
REMARK    8  A    between atoms: C_16  and  C_17
REMARK    9  A    between atoms: C_17  and  C_18
REMARK   10  A    between atoms: C_20  and  O_21
REMARK                            x       y       z     vdW  Elec       q    Type
REMARK                         _______ _______ _______ _____ _____    ______ ____
ROOT
ATOM      1  N   UNL     1       9.293   9.648  19.554  0.00  0.00    +0.000 N 
ATOM      2  C   UNL     1       8.540   9.314  18.449  0.00  0.00    +0.000 C 
ATOM      3  O   UNL     1       8.086  10.124  17.637  0.00  0.00    +0.000 OA
ATOM      4  H   UNL     1       9.484   8.926  20.239  0.00  0.00    +0.000 HD
ENDROOT
BRANCH   1   9
ATOM      5  C   UNL     1       9.409  13.004  21.129  0.00  0.00    +0.000 A 
ATOM      6  C   UNL     1      10.609  13.515  20.619  0.00  0.00    +0.000 A 
ATOM      7  C   UNL     1      11.377  12.758  19.745  0.00  0.00    +0.000 A 
ATOM      8  C   UNL     1      10.968  11.467  19.389  0.00  0.00    +0.000 A 
ATOM      9  C   UNL     1       9.751  10.956  19.849  0.00  0.00    +0.000 A 
ATOM     10  C   UNL     1       8.955  11.758  20.665  0.00  0.00    +0.000 A 
BRANCH   5  12
ATOM     11  N   UNL     1       7.595  14.696  21.682  0.00  0.00    +0.000 N 
ATOM     12  C   UNL     1       8.638  13.838  22.106  0.00  0.00    +0.000 C 
ATOM     13  O   UNL     1       8.953  13.727  23.291  0.00  0.00    +0.000 OA
BRANCH  11  15
ATOM     14  C   UNL     1       7.808  17.012  22.626  0.00  0.00    +0.000 C 
ATOM     15  C   UNL     1       7.113  15.657  22.684  0.00  0.00    +0.000 C 
ENDBRANCH  11  15
BRANCH  11  16
ATOM     16  C   UNL     1       7.201  14.861  20.278  0.00  0.00    +0.000 C 
ATOM     17  C   UNL     1       5.776  15.250  19.931  0.00  0.00    +0.000 C 
ENDBRANCH  11  16
ENDBRANCH   5  12
ENDBRANCH   1   9
BRANCH   2  18
ATOM     18  C   UNL     1       8.226   7.843  18.321  0.00  0.00    +0.000 C 
BRANCH  18  19
ATOM     19  C   UNL     1       7.400   7.647  17.055  0.00  0.00    +0.000 C 
BRANCH  19  20
ATOM     20  C   UNL     1       6.347   6.598  17.221  0.00  0.00    +0.000 A 
ATOM     21  N   UNL     1       6.560   5.402  16.635  0.00  0.00    +0.000 NA
ATOM     22  C   UNL     1       5.648   4.449  16.848  0.00  0.00    +0.000 A 
ATOM     23  C   UNL     1       4.525   4.661  17.638  0.00  0.00    +0.000 A 
ATOM     24  C   UNL     1       3.421   3.848  18.065  0.00  0.00    +0.000 A 
ATOM     25  C   UNL     1       2.535   4.569  18.843  0.00  0.00    +0.000 A 
ATOM     26  S   UNL     1       3.019   6.180  19.081  0.00  0.00    +0.000 S 
ATOM     27  C   UNL     1       4.417   5.944  18.143  0.00  0.00    +0.000 A 
ATOM     28  N   UNL     1       5.285   6.950  17.960  0.00  0.00    +0.000 NA
ATOM     29  C   UNL     1       1.289   4.025  19.467  0.00  0.00    +0.000 C 
ATOM     30  C   UNL     1       0.908   2.696  18.801  0.00  0.00    +0.000 C 
ATOM     31  C   UNL     1       2.130   1.779  18.651  0.00  0.00    +0.000 C 
ATOM     32  C   UNL     1       3.188   2.404  17.726  0.00  0.00    +0.000 C 
BRANCH  22  33
ATOM     33  O   UNL     1       5.920   3.256  16.238  0.00  0.00    +0.000 OA
ATOM     34  H   UNL     1       6.502   3.551  15.515  0.00  0.00    +0.000 HD
ENDBRANCH  22  33
ENDBRANCH  19  20
ENDBRANCH  18  19
ENDBRANCH   2  18
TORSDOF 8
ENDMDL
