MODEL 1
REMARK VINA RESULT:      -7.2      0.000      0.000
REMARK  Name = 
REMARK  6 active torsions:
REMARK  status: ('A' for Active; 'I' for Inactive)
REMARK    1  A    between atoms: C_2  and  C_3
REMARK    2  A    between atoms: C_2  and  C_18
REMARK    3  A    between atoms: C_3  and  C_4
REMARK    4  A    between atoms: C_4  and  N_5
REMARK    5  A    between atoms: N_8  and  C_9
REMARK    6  A    between atoms: C_9  and  C_10
REMARK                            x       y       z     vdW  Elec       q    Type
REMARK                         _______ _______ _______ _____ _____    ______ ____
ROOT
ATOM      1  N   UNL     1       6.999   7.173  17.043  0.00  0.00    +0.000 NA
ATOM      2  C   UNL     1       7.417   5.895  16.423  0.00  0.00    +0.000 C 
ATOM      3  C   UNL     1       7.291   4.723  17.402  0.00  0.00    +0.000 C 
ATOM      4  N   UNL     1       5.908   4.590  17.908  0.00  0.00    +0.000 NA
ATOM      5  C   UNL     1       5.486   5.855  18.548  0.00  0.00    +0.000 C 
ATOM      6  C   UNL     1       5.632   7.065  17.596  0.00  0.00    +0.000 C 
ENDROOT
BRANCH   1   7
ATOM      7  C   UNL     1       7.964   7.749  18.009  0.00  0.00    +0.000 C 
BRANCH   7   8
ATOM      8  C   UNL     1       8.092   9.290  17.912  0.00  0.00    +0.000 C 
BRANCH   8  10
ATOM      9 CL   UNL     1       8.876  10.022  20.463  0.00  0.00    +0.000 Cl
ATOM     10  C   UNL     1       9.263   9.905  18.717  0.00  0.00    +0.000 C 
BRANCH  10  11
ATOM     11  C   UNL     1       9.745  11.226  18.144  0.00  0.00    +0.000 A 
ATOM     12  C   UNL     1       8.836  12.289  17.992  0.00  0.00    +0.000 A 
ATOM     13  C   UNL     1       9.267  13.526  17.495  0.00  0.00    +0.000 A 
ATOM     14  C   UNL     1      10.607  13.714  17.155  0.00  0.00    +0.000 A 
ATOM     15  C   UNL     1      11.520  12.669  17.301  0.00  0.00    +0.000 A 
ATOM     16  C   UNL     1      11.095  11.430  17.786  0.00  0.00    +0.000 A 
ENDBRANCH  10  11
ENDBRANCH   8  10
ENDBRANCH   7   8
ENDBRANCH   1   7
BRANCH   4  17
ATOM     17  C   UNL     1       4.942   4.126  16.881  0.00  0.00    +0.000 C 
BRANCH  17  18
ATOM     18  C   UNL     1       3.683   3.593  17.519  0.00  0.00    +0.000 A 
ATOM     19  C   UNL     1       3.661   2.297  18.056  0.00  0.00    +0.000 A 
ATOM     20  C   UNL     1       2.491   1.792  18.631  0.00  0.00    +0.000 A 
ATOM     21  C   UNL     1       1.334   2.576  18.666  0.00  0.00    +0.000 A 
ATOM     22  C   UNL     1       1.346   3.866  18.130  0.00  0.00    +0.000 A 
ATOM     23  C   UNL     1       2.516   4.377  17.560  0.00  0.00    +0.000 A 
ENDBRANCH  17  18
ENDBRANCH   4  17
TORSDOF 6
ENDMDL
MODEL 2
REMARK VINA RESULT:      -7.0      4.291      8.131
REMARK  Name = 
REMARK  6 active torsions:
REMARK  status: ('A' for Active; 'I' for Inactive)
REMARK    1  A    between atoms: C_2  and  C_3
REMARK    2  A    between atoms: C_2  and  C_18
REMARK    3  A    between atoms: C_3  and  C_4
REMARK    4  A    between atoms: C_4  and  N_5
REMARK    5  A    between atoms: N_8  and  C_9
REMARK    6  A    between atoms: C_9  and  C_10
REMARK                            x       y       z     vdW  Elec       q    Type
REMARK                         _______ _______ _______ _____ _____    ______ ____
ROOT
ATOM      1  N   UNL     1       4.683   5.486  18.327  0.00  0.00    +0.000 NA
ATOM      2  C   UNL     1       4.436   5.224  16.891  0.00  0.00    +0.000 C 
ATOM      3  C   UNL     1       5.247   6.168  15.996  0.00  0.00    +0.000 C 
ATOM      4  N   UNL     1       6.696   6.058  16.270  0.00  0.00    +0.000 NA
ATOM      5  C   UNL     1       6.957   6.338  17.698  0.00  0.00    +0.000 C 
ATOM      6  C   UNL     1       6.130   5.423  18.630  0.00  0.00    +0.000 C 
ENDROOT
BRANCH   1   7
ATOM      7  C   UNL     1       4.039   6.707  18.864  0.00  0.00    +0.000 C 
BRANCH   7   8
ATOM      8  C   UNL     1       2.544   6.839  18.478  0.00  0.00    +0.000 C 
BRANCH   8  10
ATOM      9 CL   UNL     1       1.642   7.514  21.006  0.00  0.00    +0.000 Cl
ATOM     10  C   UNL     1       1.540   6.429  19.584  0.00  0.00    +0.000 C 
BRANCH  10  11
ATOM     11  C   UNL     1       1.649   4.963  19.967  0.00  0.00    +0.000 A 
ATOM     12  C   UNL     1       2.110   4.615  21.250  0.00  0.00    +0.000 A 
ATOM     13  C   UNL     1       2.188   3.270  21.635  0.00  0.00    +0.000 A 
ATOM     14  C   UNL     1       1.800   2.266  20.747  0.00  0.00    +0.000 A 
ATOM     15  C   UNL     1       1.340   2.597  19.473  0.00  0.00    +0.000 A 
ATOM     16  C   UNL     1       1.270   3.935  19.079  0.00  0.00    +0.000 A 
ENDBRANCH  10  11
ENDBRANCH   8  10
ENDBRANCH   7   8
ENDBRANCH   1   7
BRANCH   4  17
ATOM     17  C   UNL     1       7.288   4.770  15.828  0.00  0.00    +0.000 C 
BRANCH  17  18
ATOM     18  C   UNL     1       7.090   4.560  14.347  0.00  0.00    +0.000 A 
ATOM     19  C   UNL     1       6.187   3.588  13.889  0.00  0.00    +0.000 A 
ATOM     20  C   UNL     1       6.015   3.376  12.518  0.00  0.00    +0.000 A 
ATOM     21  C   UNL     1       6.748   4.129  11.596  0.00  0.00    +0.000 A 
ATOM     22  C   UNL     1       7.652   5.097  12.044  0.00  0.00    +0.000 A 
ATOM     23  C   UNL     1       7.822   5.316  13.414  0.00  0.00    +0.000 A 
ENDBRANCH  17  18
ENDBRANCH   4  17
TORSDOF 6
ENDMDL
MODEL 3
REMARK VINA RESULT:      -7.0      0.740      1.336
REMARK  Name = 
REMARK  6 active torsions:
REMARK  status: ('A' for Active; 'I' for Inactive)
REMARK    1  A    between atoms: C_2  and  C_3
REMARK    2  A    between atoms: C_2  and  C_18
REMARK    3  A    between atoms: C_3  and  C_4
REMARK    4  A    between atoms: C_4  and  N_5
REMARK    5  A    between atoms: N_8  and  C_9
REMARK    6  A    between atoms: C_9  and  C_10
REMARK                            x       y       z     vdW  Elec       q    Type
REMARK                         _______ _______ _______ _____ _____    ______ ____
ROOT
ATOM      1  N   UNL     1       7.848   6.833  17.723  0.00  0.00    +0.000 NA
ATOM      2  C   UNL     1       7.596   5.455  18.203  0.00  0.00    +0.000 C 
ATOM      3  C   UNL     1       6.311   5.372  19.034  0.00  0.00    +0.000 C 
ATOM      4  N   UNL     1       5.139   5.841  18.264  0.00  0.00    +0.000 NA
ATOM      5  C   UNL     1       5.371   7.226  17.796  0.00  0.00    +0.000 C 
ATOM      6  C   UNL     1       6.678   7.352  16.980  0.00  0.00    +0.000 C 
ENDROOT
BRANCH   1   7
ATOM      7  C   UNL     1       8.336   7.779  18.754  0.00  0.00    +0.000 C 
BRANCH   7   8
ATOM      8  C   UNL     1       8.534   9.222  18.225  0.00  0.00    +0.000 C 
BRANCH   8  10
ATOM      9 CL   UNL     1       8.940  10.405  20.694  0.00  0.00    +0.000 Cl
ATOM     10  C   UNL     1       9.533  10.088  19.033  0.00  0.00    +0.000 C 
BRANCH  10  11
ATOM     11  C   UNL     1       9.930  11.363  18.309  0.00  0.00    +0.000 A 
ATOM     12  C   UNL     1       8.973  12.377  18.115  0.00  0.00    +0.000 A 
ATOM     13  C   UNL     1       9.327  13.573  17.478  0.00  0.00    +0.000 A 
ATOM     14  C   UNL     1      10.637  13.770  17.039  0.00  0.00    +0.000 A 
ATOM     15  C   UNL     1      11.596  12.775  17.226  0.00  0.00    +0.000 A 
ATOM     16  C   UNL     1      11.247  11.575  17.850  0.00  0.00    +0.000 A 
ENDBRANCH  10  11
ENDBRANCH   8  10
ENDBRANCH   7   8
ENDBRANCH   1   7
BRANCH   4  17
ATOM     17  C   UNL     1       4.749   4.929  17.160  0.00  0.00    +0.000 C 
BRANCH  17  18
ATOM     18  C   UNL     1       3.605   4.036  17.570  0.00  0.00    +0.000 A 
ATOM     19  C   UNL     1       2.340   4.587  17.828  0.00  0.00    +0.000 A 
ATOM     20  C   UNL     1       1.282   3.766  18.227  0.00  0.00    +0.000 A 
ATOM     21  C   UNL     1       1.481   2.390  18.378  0.00  0.00    +0.000 A 
ATOM     22  C   UNL     1       2.739   1.834  18.127  0.00  0.00    +0.000 A 
ATOM     23  C   UNL     1       3.798   2.651  17.722  0.00  0.00    +0.000 A 
ENDBRANCH  17  18
ENDBRANCH   4  17
TORSDOF 6
ENDMDL
MODEL 4
REMARK VINA RESULT:      -7.0      1.389      1.905
REMARK  Name = 
REMARK  6 active torsions:
REMARK  status: ('A' for Active; 'I' for Inactive)
REMARK    1  A    between atoms: C_2  and  C_3
REMARK    2  A    between atoms: C_2  and  C_18
REMARK    3  A    between atoms: C_3  and  C_4
REMARK    4  A    between atoms: C_4  and  N_5
REMARK    5  A    between atoms: N_8  and  C_9
REMARK    6  A    between atoms: C_9  and  C_10
REMARK                            x       y       z     vdW  Elec       q    Type
REMARK                         _______ _______ _______ _____ _____    ______ ____
ROOT
ATOM      1  N   UNL     1       7.952   6.569  17.899  0.00  0.00    +0.000 NA
ATOM      2  C   UNL     1       7.462   5.485  18.781  0.00  0.00    +0.000 C 
ATOM      3  C   UNL     1       6.001   5.702  19.185  0.00  0.00    +0.000 C 
ATOM      4  N   UNL     1       5.122   5.800  18.000  0.00  0.00    +0.000 NA
ATOM      5  C   UNL     1       5.590   6.894  17.121  0.00  0.00    +0.000 C 
ATOM      6  C   UNL     1       7.073   6.723  16.719  0.00  0.00    +0.000 C 
ENDROOT
BRANCH   1   7
ATOM      7  C   UNL     1       8.229   7.857  18.578  0.00  0.00    +0.000 C 
BRANCH   7   8
ATOM      8  C   UNL     1       8.401   9.047  17.601  0.00  0.00    +0.000 C 
BRANCH   8  10
ATOM      9 CL   UNL     1       7.443  11.608  17.175  0.00  0.00    +0.000 Cl
ATOM     10  C   UNL     1       8.291  10.451  18.248  0.00  0.00    +0.000 C 
BRANCH  10  11
ATOM     11  C   UNL     1       9.628  10.985  18.731  0.00  0.00    +0.000 A 
ATOM     12  C   UNL     1      10.615  11.334  17.792  0.00  0.00    +0.000 A 
ATOM     13  C   UNL     1      11.843  11.859  18.215  0.00  0.00    +0.000 A 
ATOM     14  C   UNL     1      12.091  12.047  19.576  0.00  0.00    +0.000 A 
ATOM     15  C   UNL     1      11.121  11.706  20.518  0.00  0.00    +0.000 A 
ATOM     16  C   UNL     1       9.899  11.172  20.103  0.00  0.00    +0.000 A 
ENDBRANCH  10  11
ENDBRANCH   8  10
ENDBRANCH   7   8
ENDBRANCH   1   7
BRANCH   4  17
ATOM     17  C   UNL     1       4.963   4.517  17.271  0.00  0.00    +0.000 C 
BRANCH  17  18
ATOM     18  C   UNL     1       3.732   3.778  17.733  0.00  0.00    +0.000 A 
ATOM     19  C   UNL     1       3.807   2.411  18.041  0.00  0.00    +0.000 A 
ATOM     20  C   UNL     1       2.664   1.717  18.451  0.00  0.00    +0.000 A 
ATOM     21  C   UNL     1       1.439   2.382  18.549  0.00  0.00    +0.000 A 
ATOM     22  C   UNL     1       1.355   3.743  18.241  0.00  0.00    +0.000 A 
ATOM     23  C   UNL     1       2.496   4.442  17.836  0.00  0.00    +0.000 A 
ENDBRANCH  17  18
ENDBRANCH   4  17
TORSDOF 6
ENDMDL
MODEL 5
REMARK VINA RESULT:      -6.9      4.217      8.146
REMARK  Name = 
REMARK  6 active torsions:
REMARK  status: ('A' for Active; 'I' for Inactive)
REMARK    1  A    between atoms: C_2  and  C_3
REMARK    2  A    between atoms: C_2  and  C_18
REMARK    3  A    between atoms: C_3  and  C_4
REMARK    4  A    between atoms: C_4  and  N_5
REMARK    5  A    between atoms: N_8  and  C_9
REMARK    6  A    between atoms: C_9  and  C_10
REMARK                            x       y       z     vdW  Elec       q    Type
REMARK                         _______ _______ _______ _____ _____    ______ ____
ROOT
ATOM      1  N   UNL     1       4.900   5.451  18.403  0.00  0.00    +0.000 NA
ATOM      2  C   UNL     1       4.549   5.057  17.019  0.00  0.00    +0.000 C 
ATOM      3  C   UNL     1       5.162   6.010  15.987  0.00  0.00    +0.000 C 
ATOM      4  N   UNL     1       6.633   6.072  16.118  0.00  0.00    +0.000 NA
ATOM      5  C   UNL     1       6.996   6.484  17.491  0.00  0.00    +0.000 C 
ATOM      6  C   UNL     1       6.367   5.561  18.560  0.00  0.00    +0.000 C 
ENDROOT
BRANCH   1   7
ATOM      7  C   UNL     1       4.179   6.635  18.924  0.00  0.00    +0.000 C 
BRANCH   7   8
ATOM      8  C   UNL     1       2.722   6.748  18.407  0.00  0.00    +0.000 C 
BRANCH   8  10
ATOM      9 CL   UNL     1       1.619   7.533  20.821  0.00  0.00    +0.000 Cl
ATOM     10  C   UNL     1       1.627   6.389  19.442  0.00  0.00    +0.000 C 
BRANCH  10  11
ATOM     11  C   UNL     1       1.694   4.941  19.895  0.00  0.00    +0.000 A 
ATOM     12  C   UNL     1       2.108   4.643  21.206  0.00  0.00    +0.000 A 
ATOM     13  C   UNL     1       2.146   3.316  21.653  0.00  0.00    +0.000 A 
ATOM     14  C   UNL     1       1.764   2.279  20.800  0.00  0.00    +0.000 A 
ATOM     15  C   UNL     1       1.350   2.560  19.498  0.00  0.00    +0.000 A 
ATOM     16  C   UNL     1       1.320   3.880  19.043  0.00  0.00    +0.000 A 
ENDBRANCH  10  11
ENDBRANCH   8  10
ENDBRANCH   7   8
ENDBRANCH   1   7
BRANCH   4  17
ATOM     17  C   UNL     1       7.320   4.824  15.701  0.00  0.00    +0.000 C 
BRANCH  17  18
ATOM     18  C   UNL     1       7.091   4.539  14.238  0.00  0.00    +0.000 A 
ATOM     19  C   UNL     1       7.799   5.259  13.262  0.00  0.00    +0.000 A 
ATOM     20  C   UNL     1       7.576   5.012  11.905  0.00  0.00    +0.000 A 
ATOM     21  C   UNL     1       6.640   4.050  11.512  0.00  0.00    +0.000 A 
ATOM     22  C   UNL     1       5.928   3.332  12.477  0.00  0.00    +0.000 A 
ATOM     23  C   UNL     1       6.153   3.572  13.836  0.00  0.00    +0.000 A 
ENDBRANCH  17  18
ENDBRANCH   4  17
TORSDOF 6
ENDMDL
MODEL 6
REMARK VINA RESULT:      -6.9      1.269      1.835
REMARK  Name = 
REMARK  6 active torsions:
REMARK  status: ('A' for Active; 'I' for Inactive)
REMARK    1  A    between atoms: C_2  and  C_3
REMARK    2  A    between atoms: C_2  and  C_18
REMARK    3  A    between atoms: C_3  and  C_4
REMARK    4  A    between atoms: C_4  and  N_5
REMARK    5  A    between atoms: N_8  and  C_9
REMARK    6  A    between atoms: C_9  and  C_10
REMARK                            x       y       z     vdW  Elec       q    Type
REMARK                         _______ _______ _______ _____ _____    ______ ____
ROOT
ATOM      1  N   UNL     1       6.850   7.162  16.990  0.00  0.00    +0.000 NA
ATOM      2  C   UNL     1       7.382   5.871  16.494  0.00  0.00    +0.000 C 
ATOM      3  C   UNL     1       7.248   4.764  17.544  0.00  0.00    +0.000 C 
ATOM      4  N   UNL     1       5.841   4.583  17.960  0.00  0.00    +0.000 NA
ATOM      5  C   UNL     1       5.304   5.861  18.477  0.00  0.00    +0.000 C 
ATOM      6  C   UNL     1       5.453   7.010  17.452  0.00  0.00    +0.000 C 
ENDROOT
BRANCH   1   7
ATOM      7  C   UNL     1       7.707   7.859  17.977  0.00  0.00    +0.000 C 
BRANCH   7   8
ATOM      8  C   UNL     1       8.471   9.071  17.387  0.00  0.00    +0.000 C 
BRANCH   8  10
ATOM      9 CL   UNL     1       7.359  11.594  17.155  0.00  0.00    +0.000 Cl
ATOM     10  C   UNL     1       8.268  10.408  18.142  0.00  0.00    +0.000 C 
BRANCH  10  11
ATOM     11  C   UNL     1       9.565  10.983  18.685  0.00  0.00    +0.000 A 
ATOM     12  C   UNL     1       9.691  11.229  20.064  0.00  0.00    +0.000 A 
ATOM     13  C   UNL     1      10.890  11.729  20.589  0.00  0.00    +0.000 A 
ATOM     14  C   UNL     1      11.972  11.978  19.744  0.00  0.00    +0.000 A 
ATOM     15  C   UNL     1      11.862  11.737  18.375  0.00  0.00    +0.000 A 
ATOM     16  C   UNL     1      10.666  11.250  17.844  0.00  0.00    +0.000 A 
ENDBRANCH  10  11
ENDBRANCH   8  10
ENDBRANCH   7   8
ENDBRANCH   1   7
BRANCH   4  17
ATOM     17  C   UNL     1       4.980   3.993  16.905  0.00  0.00    +0.000 C 
BRANCH  17  18
ATOM     18  C   UNL     1       3.679   3.493  17.480  0.00  0.00    +0.000 A 
ATOM     19  C   UNL     1       2.544   4.318  17.473  0.00  0.00    +0.000 A 
ATOM     20  C   UNL     1       1.341   3.866  18.023  0.00  0.00    +0.000 A 
ATOM     21  C   UNL     1       1.265   2.590  18.588  0.00  0.00    +0.000 A 
ATOM     22  C   UNL     1       2.392   1.762  18.602  0.00  0.00    +0.000 A 
ATOM     23  C   UNL     1       3.595   2.209  18.048  0.00  0.00    +0.000 A 
ENDBRANCH  17  18
ENDBRANCH   4  17
TORSDOF 6
ENDMDL
MODEL 7
REMARK VINA RESULT:      -6.9      7.871     10.803
REMARK  Name = 
REMARK  6 active torsions:
REMARK  status: ('A' for Active; 'I' for Inactive)
REMARK    1  A    between atoms: C_2  and  C_3
REMARK    2  A    between atoms: C_2  and  C_18
REMARK    3  A    between atoms: C_3  and  C_4
REMARK    4  A    between atoms: C_4  and  N_5
REMARK    5  A    between atoms: N_8  and  C_9
REMARK    6  A    between atoms: C_9  and  C_10
REMARK                            x       y       z     vdW  Elec       q    Type
REMARK                         _______ _______ _______ _____ _____    ______ ____
ROOT
ATOM      1  N   UNL     1       0.245   8.803  20.813  0.00  0.00    +0.000 NA
ATOM      2  C   UNL     1      -0.588   8.874  22.035  0.00  0.00    +0.000 C 
ATOM      3  C   UNL     1      -0.138  10.009  22.961  0.00  0.00    +0.000 C 
ATOM      4  N   UNL     1      -0.175  11.316  22.269  0.00  0.00    +0.000 NA
ATOM      5  C   UNL     1       0.671  11.263  21.057  0.00  0.00    +0.000 C 
ATOM      6  C   UNL     1       0.263  10.107  20.114  0.00  0.00    +0.000 C 
ENDROOT
BRANCH   1   7
ATOM      7  C   UNL     1       1.601   8.239  21.007  0.00  0.00    +0.000 C 
BRANCH   7   8
ATOM      8  C   UNL     1       1.769   6.815  20.419  0.00  0.00    +0.000 C 
BRANCH   8  10
ATOM      9 CL   UNL     1       2.132   8.001  17.946  0.00  0.00    +0.000 Cl
ATOM     10  C   UNL     1       2.608   6.734  19.119  0.00  0.00    +0.000 C 
BRANCH  10  11
ATOM     11  C   UNL     1       2.608   5.347  18.502  0.00  0.00    +0.000 A 
ATOM     12  C   UNL     1       3.666   4.964  17.657  0.00  0.00    +0.000 A 
ATOM     13  C   UNL     1       3.701   3.678  17.102  0.00  0.00    +0.000 A 
ATOM     14  C   UNL     1       2.687   2.763  17.393  0.00  0.00    +0.000 A 
ATOM     15  C   UNL     1       1.633   3.129  18.230  0.00  0.00    +0.000 A 
ATOM     16  C   UNL     1       1.586   4.413  18.777  0.00  0.00    +0.000 A 
ENDBRANCH  10  11
ENDBRANCH   8  10
ENDBRANCH   7   8
ENDBRANCH   1   7
BRANCH   4  17
ATOM     17  C   UNL     1      -1.549  11.797  21.981  0.00  0.00    +0.000 C 
BRANCH  17  18
ATOM     18  C   UNL     1      -2.017  12.772  23.032  0.00  0.00    +0.000 A 
ATOM     19  C   UNL     1      -3.290  12.630  23.606  0.00  0.00    +0.000 A 
ATOM     20  C   UNL     1      -3.735  13.543  24.566  0.00  0.00    +0.000 A 
ATOM     21  C   UNL     1      -2.915  14.606  24.955  0.00  0.00    +0.000 A 
ATOM     22  C   UNL     1      -1.647  14.756  24.386  0.00  0.00    +0.000 A 
ATOM     23  C   UNL     1      -1.196  13.842  23.430  0.00  0.00    +0.000 A 
ENDBRANCH  17  18
ENDBRANCH   4  17
TORSDOF 6
ENDMDL
MODEL 8
REMARK VINA RESULT:      -6.8      4.603      8.203
REMARK  Name = 
REMARK  6 active torsions:
REMARK  status: ('A' for Active; 'I' for Inactive)
REMARK    1  A    between atoms: C_2  and  C_3
REMARK    2  A    between atoms: C_2  and  C_18
REMARK    3  A    between atoms: C_3  and  C_4
REMARK    4  A    between atoms: C_4  and  N_5
REMARK    5  A    between atoms: N_8  and  C_9
REMARK    6  A    between atoms: C_9  and  C_10
REMARK                            x       y       z     vdW  Elec       q    Type
REMARK                         _______ _______ _______ _____ _____    ______ ____
ROOT
ATOM      1  N   UNL     1       4.907   5.498  16.909  0.00  0.00    +0.000 NA
ATOM      2  C   UNL     1       5.984   6.362  16.373  0.00  0.00    +0.000 C 
ATOM      3  C   UNL     1       7.243   5.555  16.040  0.00  0.00    +0.000 C 
ATOM      4  N   UNL     1       6.953   4.479  15.069  0.00  0.00    +0.000 NA
ATOM      5  C   UNL     1       5.892   3.597  15.603  0.00  0.00    +0.000 C 
ATOM      6  C   UNL     1       4.616   4.385  15.979  0.00  0.00    +0.000 C 
ENDROOT
BRANCH   1   7
ATOM      7  C   UNL     1       5.102   5.042  18.305  0.00  0.00    +0.000 C 
BRANCH   7   8
ATOM      8  C   UNL     1       4.355   5.909  19.349  0.00  0.00    +0.000 C 
BRANCH   8  10
ATOM      9 CL   UNL     1       2.123   7.368  20.090  0.00  0.00    +0.000 Cl
ATOM     10  C   UNL     1       2.825   6.022  19.138  0.00  0.00    +0.000 C 
BRANCH  10  11
ATOM     11  C   UNL     1       2.098   4.709  19.373  0.00  0.00    +0.000 A 
ATOM     12  C   UNL     1       1.851   4.279  20.689  0.00  0.00    +0.000 A 
ATOM     13  C   UNL     1       1.155   3.087  20.928  0.00  0.00    +0.000 A 
ATOM     14  C   UNL     1       0.692   2.322  19.856  0.00  0.00    +0.000 A 
ATOM     15  C   UNL     1       0.928   2.737  18.545  0.00  0.00    +0.000 A 
ATOM     16  C   UNL     1       1.632   3.918  18.301  0.00  0.00    +0.000 A 
ENDBRANCH  10  11
ENDBRANCH   8  10
ENDBRANCH   7   8
ENDBRANCH   1   7
BRANCH   4  17
ATOM     17  C   UNL     1       6.642   4.976  13.705  0.00  0.00    +0.000 C 
BRANCH  17  18
ATOM     18  C   UNL     1       6.404   3.834  12.750  0.00  0.00    +0.000 A 
ATOM     19  C   UNL     1       7.493   3.157  12.178  0.00  0.00    +0.000 A 
ATOM     20  C   UNL     1       7.277   2.111  11.277  0.00  0.00    +0.000 A 
ATOM     21  C   UNL     1       5.974   1.738  10.935  0.00  0.00    +0.000 A 
ATOM     22  C   UNL     1       4.884   2.410  11.497  0.00  0.00    +0.000 A 
ATOM     23  C   UNL     1       5.096   3.452  12.403  0.00  0.00    +0.000 A 
ENDBRANCH  17  18
ENDBRANCH   4  17
TORSDOF 6
ENDMDL
MODEL 9
REMARK VINA RESULT:      -6.8      0.786      1.695
REMARK  Name = 
REMARK  6 active torsions:
REMARK  status: ('A' for Active; 'I' for Inactive)
REMARK    1  A    between atoms: C_2  and  C_3
REMARK    2  A    between atoms: C_2  and  C_18
REMARK    3  A    between atoms: C_3  and  C_4
REMARK    4  A    between atoms: C_4  and  N_5
REMARK    5  A    between atoms: N_8  and  C_9
REMARK    6  A    between atoms: C_9  and  C_10
REMARK                            x       y       z     vdW  Elec       q    Type
REMARK                         _______ _______ _______ _____ _____    ______ ____
ROOT
ATOM      1  N   UNL     1       7.803   6.961  17.767  0.00  0.00    +0.000 NA
ATOM      2  C   UNL     1       7.564   5.584  18.256  0.00  0.00    +0.000 C 
ATOM      3  C   UNL     1       6.269   5.489  19.069  0.00  0.00    +0.000 C 
ATOM      4  N   UNL     1       5.102   5.934  18.277  0.00  0.00    +0.000 NA
ATOM      5  C   UNL     1       5.320   7.317  17.800  0.00  0.00    +0.000 C 
ATOM      6  C   UNL     1       6.637   7.455  17.002  0.00  0.00    +0.000 C 
ENDROOT
BRANCH   1   7
ATOM      7  C   UNL     1       8.262   7.924  18.795  0.00  0.00    +0.000 C 
BRANCH   7   8
ATOM      8  C   UNL     1       8.575   9.332  18.229  0.00  0.00    +0.000 C 
BRANCH   8  10
ATOM      9 CL   UNL     1       8.976  10.399  20.750  0.00  0.00    +0.000 Cl
ATOM     10  C   UNL     1       9.563  10.176  19.072  0.00  0.00    +0.000 C 
BRANCH  10  11
ATOM     11  C   UNL     1       9.930  11.492  18.410  0.00  0.00    +0.000 A 
ATOM     12  C   UNL     1      11.209  11.651  17.844  0.00  0.00    +0.000 A 
ATOM     13  C   UNL     1      11.557  12.845  17.201  0.00  0.00    +0.000 A 
ATOM     14  C   UNL     1      10.630  13.885  17.110  0.00  0.00    +0.000 A 
ATOM     15  C   UNL     1       9.359  13.742  17.665  0.00  0.00    +0.000 A 
ATOM     16  C   UNL     1       9.010  12.557  18.318  0.00  0.00    +0.000 A 
ENDBRANCH  10  11
ENDBRANCH   8  10
ENDBRANCH   7   8
ENDBRANCH   1   7
BRANCH   4  17
ATOM     17  C   UNL     1       4.742   5.005  17.177  0.00  0.00    +0.000 C 
BRANCH  17  18
ATOM     18  C   UNL     1       3.619   4.085  17.586  0.00  0.00    +0.000 A 
ATOM     19  C   UNL     1       2.331   4.600  17.804  0.00  0.00    +0.000 A 
ATOM     20  C   UNL     1       1.293   3.754  18.203  0.00  0.00    +0.000 A 
ATOM     21  C   UNL     1       1.533   2.390  18.393  0.00  0.00    +0.000 A 
ATOM     22  C   UNL     1       2.813   1.870  18.181  0.00  0.00    +0.000 A 
ATOM     23  C   UNL     1       3.853   2.712  17.776  0.00  0.00    +0.000 A 
ENDBRANCH  17  18
ENDBRANCH   4  17
TORSDOF 6
ENDMDL
