MODEL 1
REMARK VINA RESULT:      -7.1      0.000      0.000
REMARK  Name = 
REMARK  3 active torsions:
REMARK  status: ('A' for Active; 'I' for Inactive)
REMARK    1  A    between atoms: C_2  and  C_13
REMARK    2  A    between atoms: N_3  and  N_4
REMARK    3  A    between atoms: C_5  and  C_6
REMARK                            x       y       z     vdW  Elec       q    Type
REMARK                         _______ _______ _______ _____ _____    ______ ____
ROOT
ATOM      1  O   UNL     1       6.911   4.339  16.802  0.00  0.00    +0.000 OA
ATOM      2  C   UNL     1       6.125   4.352  15.857  0.00  0.00    +0.000 C 
ATOM      3  N   UNL     1       4.746   4.242  15.965  0.00  0.00    +0.000 N 
ATOM      4  H   UNL     1       4.169   4.248  15.127  0.00  0.00    +0.000 HD
ENDROOT
BRANCH   2   5
ATOM      5  C   UNL     1       6.649   4.494  14.477  0.00  0.00    +0.000 A 
ATOM      6  C   UNL     1       6.126   3.684  13.476  0.00  0.00    +0.000 A 
ATOM      7  N   UNL     1       6.559   3.738  12.192  0.00  0.00    +0.000 NA
ATOM      8  C   UNL     1       7.544   4.632  11.955  0.00  0.00    +0.000 A 
ATOM      9  C   UNL     1       8.067   5.445  12.953  0.00  0.00    +0.000 A 
ATOM     10  N   UNL     1       7.638   5.405  14.241  0.00  0.00    +0.000 NA
ENDBRANCH   2   5
BRANCH   3  11
ATOM     11  N   UNL     1       4.212   4.105  17.207  0.00  0.00    +0.000 NA
ATOM     12  C   UNL     1       3.249   3.260  17.365  0.00  0.00    +0.000 C 
BRANCH  12  13
ATOM     13  C   UNL     1       2.650   3.068  18.709  0.00  0.00    +0.000 A 
ATOM     14  C   UNL     1       1.273   3.268  18.901  0.00  0.00    +0.000 A 
ATOM     15  C   UNL     1       0.714   3.123  20.170  0.00  0.00    +0.000 A 
ATOM     16  C   UNL     1       1.532   2.778  21.239  0.00  0.00    +0.000 A 
ATOM     17  F   UNL     1       1.000   2.651  22.462  0.00  0.00    +0.000 F 
ATOM     18  C   UNL     1       2.897   2.568  21.060  0.00  0.00    +0.000 A 
ATOM     19  C   UNL     1       3.463   2.711  19.789  0.00  0.00    +0.000 A 
ENDBRANCH  12  13
ENDBRANCH   3  11
TORSDOF 3
ENDMDL
MODEL 2
REMARK VINA RESULT:      -7.1      6.887      8.556
REMARK  Name = 
REMARK  3 active torsions:
REMARK  status: ('A' for Active; 'I' for Inactive)
REMARK    1  A    between atoms: C_2  and  C_13
REMARK    2  A    between atoms: N_3  and  N_4
REMARK    3  A    between atoms: C_5  and  C_6
REMARK                            x       y       z     vdW  Elec       q    Type
REMARK                         _______ _______ _______ _____ _____    ______ ____
ROOT
ATOM      1  O   UNL     1       7.910   6.256  18.882  0.00  0.00    +0.000 OA
ATOM      2  C   UNL     1       7.580   6.662  17.771  0.00  0.00    +0.000 C 
ATOM      3  N   UNL     1       7.747   7.961  17.313  0.00  0.00    +0.000 N 
ATOM      4  H   UNL     1       7.430   8.216  16.381  0.00  0.00    +0.000 HD
ENDROOT
BRANCH   2   5
ATOM      5  C   UNL     1       6.947   5.723  16.812  0.00  0.00    +0.000 A 
ATOM      6  C   UNL     1       5.884   4.940  17.245  0.00  0.00    +0.000 A 
ATOM      7  N   UNL     1       5.260   4.046  16.438  0.00  0.00    +0.000 NA
ATOM      8  C   UNL     1       5.751   3.965  15.182  0.00  0.00    +0.000 A 
ATOM      9  C   UNL     1       6.811   4.748  14.746  0.00  0.00    +0.000 A 
ATOM     10  N   UNL     1       7.441   5.651  15.542  0.00  0.00    +0.000 NA
ENDBRANCH   2   5
BRANCH   3  11
ATOM     11  N   UNL     1       8.316   8.865  18.153  0.00  0.00    +0.000 NA
ATOM     12  C   UNL     1       8.554  10.051  17.701  0.00  0.00    +0.000 C 
BRANCH  12  13
ATOM     13  C   UNL     1       9.159  11.071  18.591  0.00  0.00    +0.000 A 
ATOM     14  C   UNL     1       9.476  12.345  18.089  0.00  0.00    +0.000 A 
ATOM     15  C   UNL     1      10.077  13.294  18.915  0.00  0.00    +0.000 A 
ATOM     16  C   UNL     1      10.358  12.967  20.235  0.00  0.00    +0.000 A 
ATOM     17  F   UNL     1      10.949  13.872  21.027  0.00  0.00    +0.000 F 
ATOM     18  C   UNL     1      10.041  11.711  20.747  0.00  0.00    +0.000 A 
ATOM     19  C   UNL     1       9.437  10.756  19.924  0.00  0.00    +0.000 A 
ENDBRANCH  12  13
ENDBRANCH   3  11
TORSDOF 3
ENDMDL
MODEL 3
REMARK VINA RESULT:      -7.1      6.912      8.582
REMARK  Name = 
REMARK  3 active torsions:
REMARK  status: ('A' for Active; 'I' for Inactive)
REMARK    1  A    between atoms: C_2  and  C_13
REMARK    2  A    between atoms: N_3  and  N_4
REMARK    3  A    between atoms: C_5  and  C_6
REMARK                            x       y       z     vdW  Elec       q    Type
REMARK                         _______ _______ _______ _____ _____    ______ ____
ROOT
ATOM      1  O   UNL     1       7.939   6.245  18.967  0.00  0.00    +0.000 OA
ATOM      2  C   UNL     1       7.621   6.652  17.853  0.00  0.00    +0.000 C 
ATOM      3  N   UNL     1       7.788   7.953  17.400  0.00  0.00    +0.000 N 
ATOM      4  H   UNL     1       7.482   8.208  16.464  0.00  0.00    +0.000 HD
ENDROOT
BRANCH   2   5
ATOM      5  C   UNL     1       7.002   5.713  16.885  0.00  0.00    +0.000 A 
ATOM      6  C   UNL     1       5.986   4.873  17.324  0.00  0.00    +0.000 A 
ATOM      7  N   UNL     1       5.378   3.975  16.510  0.00  0.00    +0.000 NA
ATOM      8  C   UNL     1       5.836   3.949  15.239  0.00  0.00    +0.000 A 
ATOM      9  C   UNL     1       6.849   4.791  14.797  0.00  0.00    +0.000 A 
ATOM     10  N   UNL     1       7.462   5.698  15.600  0.00  0.00    +0.000 NA
ENDBRANCH   2   5
BRANCH   3  11
ATOM     11  N   UNL     1       8.346   8.857  18.248  0.00  0.00    +0.000 NA
ATOM     12  C   UNL     1       8.633  10.028  17.786  0.00  0.00    +0.000 C 
BRANCH  12  13
ATOM     13  C   UNL     1       9.227  11.049  18.683  0.00  0.00    +0.000 A 
ATOM     14  C   UNL     1       9.496  10.735  20.026  0.00  0.00    +0.000 A 
ATOM     15  C   UNL     1      10.022  11.704  20.880  0.00  0.00    +0.000 A 
ATOM     16  C   UNL     1      10.276  12.978  20.389  0.00  0.00    +0.000 A 
ATOM     17  F   UNL     1      10.769  13.916  21.210  0.00  0.00    +0.000 F 
ATOM     18  C   UNL     1      10.024  13.299  19.057  0.00  0.00    +0.000 A 
ATOM     19  C   UNL     1       9.497  12.331  18.196  0.00  0.00    +0.000 A 
ENDBRANCH  12  13
ENDBRANCH   3  11
TORSDOF 3
ENDMDL
MODEL 4
REMARK VINA RESULT:      -7.0      0.713      1.342
REMARK  Name = 
REMARK  3 active torsions:
REMARK  status: ('A' for Active; 'I' for Inactive)
REMARK    1  A    between atoms: C_2  and  C_13
REMARK    2  A    between atoms: N_3  and  N_4
REMARK    3  A    between atoms: C_5  and  C_6
REMARK                            x       y       z     vdW  Elec       q    Type
REMARK                         _______ _______ _______ _____ _____    ______ ____
ROOT
ATOM      1  O   UNL     1       5.171   5.806  16.077  0.00  0.00    +0.000 OA
ATOM      2  C   UNL     1       5.579   4.721  15.673  0.00  0.00    +0.000 C 
ATOM      3  N   UNL     1       5.419   3.511  16.332  0.00  0.00    +0.000 N 
ATOM      4  H   UNL     1       5.803   2.659  15.931  0.00  0.00    +0.000 HD
ENDROOT
BRANCH   2   5
ATOM      5  C   UNL     1       6.308   4.654  14.382  0.00  0.00    +0.000 A 
ATOM      6  C   UNL     1       5.869   3.763  13.410  0.00  0.00    +0.000 A 
ATOM      7  N   UNL     1       6.487   3.628  12.210  0.00  0.00    +0.000 NA
ATOM      8  C   UNL     1       7.568   4.418  12.028  0.00  0.00    +0.000 A 
ATOM      9  C   UNL     1       8.007   5.311  12.997  0.00  0.00    +0.000 A 
ATOM     10  N   UNL     1       7.394   5.460  14.199  0.00  0.00    +0.000 NA
ENDBRANCH   2   5
BRANCH   3  11
ATOM     11  N   UNL     1       4.763   3.515  17.522  0.00  0.00    +0.000 NA
ATOM     12  C   UNL     1       3.619   2.921  17.589  0.00  0.00    +0.000 C 
BRANCH  12  13
ATOM     13  C   UNL     1       2.879   2.888  18.874  0.00  0.00    +0.000 A 
ATOM     14  C   UNL     1       3.563   2.633  20.074  0.00  0.00    +0.000 A 
ATOM     15  C   UNL     1       2.863   2.568  21.279  0.00  0.00    +0.000 A 
ATOM     16  C   UNL     1       1.487   2.757  21.278  0.00  0.00    +0.000 A 
ATOM     17  F   UNL     1       0.810   2.682  22.432  0.00  0.00    +0.000 F 
ATOM     18  C   UNL     1       0.799   3.021  20.096  0.00  0.00    +0.000 A 
ATOM     19  C   UNL     1       1.495   3.089  18.885  0.00  0.00    +0.000 A 
ENDBRANCH  12  13
ENDBRANCH   3  11
TORSDOF 3
ENDMDL
MODEL 5
REMARK VINA RESULT:      -6.9      6.741      8.770
REMARK  Name = 
REMARK  3 active torsions:
REMARK  status: ('A' for Active; 'I' for Inactive)
REMARK    1  A    between atoms: C_2  and  C_13
REMARK    2  A    between atoms: N_3  and  N_4
REMARK    3  A    between atoms: C_5  and  C_6
REMARK                            x       y       z     vdW  Elec       q    Type
REMARK                         _______ _______ _______ _____ _____    ______ ____
ROOT
ATOM      1  O   UNL     1       8.023   5.813  19.266  0.00  0.00    +0.000 OA
ATOM      2  C   UNL     1       7.344   6.238  18.335  0.00  0.00    +0.000 C 
ATOM      3  N   UNL     1       7.494   7.483  17.741  0.00  0.00    +0.000 N 
ATOM      4  H   UNL     1       6.877   7.762  16.982  0.00  0.00    +0.000 HD
ENDROOT
BRANCH   2   5
ATOM      5  C   UNL     1       6.267   5.387  17.772  0.00  0.00    +0.000 A 
ATOM      6  C   UNL     1       5.259   4.938  18.616  0.00  0.00    +0.000 A 
ATOM      7  N   UNL     1       4.247   4.144  18.187  0.00  0.00    +0.000 NA
ATOM      8  C   UNL     1       4.292   3.813  16.878  0.00  0.00    +0.000 A 
ATOM      9  C   UNL     1       5.297   4.263  16.031  0.00  0.00    +0.000 A 
ATOM     10  N   UNL     1       6.312   5.063  16.447  0.00  0.00    +0.000 NA
ENDBRANCH   2   5
BRANCH   3  11
ATOM     11  N   UNL     1       8.462   8.307  18.221  0.00  0.00    +0.000 NA
ATOM     12  C   UNL     1       8.275   9.581  18.137  0.00  0.00    +0.000 C 
BRANCH  12  13
ATOM     13  C   UNL     1       9.300  10.514  18.664  0.00  0.00    +0.000 A 
ATOM     14  C   UNL     1      10.190  11.154  17.785  0.00  0.00    +0.000 A 
ATOM     15  C   UNL     1      11.177  12.004  18.282  0.00  0.00    +0.000 A 
ATOM     16  C   UNL     1      11.270  12.210  19.653  0.00  0.00    +0.000 A 
ATOM     17  F   UNL     1      12.226  13.016  20.135  0.00  0.00    +0.000 F 
ATOM     18  C   UNL     1      10.388  11.590  20.534  0.00  0.00    +0.000 A 
ATOM     19  C   UNL     1       9.396  10.737  20.041  0.00  0.00    +0.000 A 
ENDBRANCH  12  13
ENDBRANCH   3  11
TORSDOF 3
ENDMDL
MODEL 6
REMARK VINA RESULT:      -6.9      6.628      8.710
REMARK  Name = 
REMARK  3 active torsions:
REMARK  status: ('A' for Active; 'I' for Inactive)
REMARK    1  A    between atoms: C_2  and  C_13
REMARK    2  A    between atoms: N_3  and  N_4
REMARK    3  A    between atoms: C_5  and  C_6
REMARK                            x       y       z     vdW  Elec       q    Type
REMARK                         _______ _______ _______ _____ _____    ______ ____
ROOT
ATOM      1  O   UNL     1       7.758   5.708  19.965  0.00  0.00    +0.000 OA
ATOM      2  C   UNL     1       7.224   5.953  18.886  0.00  0.00    +0.000 C 
ATOM      3  N   UNL     1       7.472   7.074  18.108  0.00  0.00    +0.000 N 
ATOM      4  H   UNL     1       6.972   7.206  17.232  0.00  0.00    +0.000 HD
ENDROOT
BRANCH   2   5
ATOM      5  C   UNL     1       6.225   5.002  18.338  0.00  0.00    +0.000 A 
ATOM      6  C   UNL     1       6.037   4.949  16.962  0.00  0.00    +0.000 A 
ATOM      7  N   UNL     1       5.135   4.121  16.380  0.00  0.00    +0.000 NA
ATOM      8  C   UNL     1       4.425   3.353  17.234  0.00  0.00    +0.000 A 
ATOM      9  C   UNL     1       4.613   3.401  18.610  0.00  0.00    +0.000 A 
ATOM     10  N   UNL     1       5.517   4.221  19.205  0.00  0.00    +0.000 NA
ENDBRANCH   2   5
BRANCH   3  11
ATOM     11  N   UNL     1       8.375   7.981  18.566  0.00  0.00    +0.000 NA
ATOM     12  C   UNL     1       8.272   9.201  18.158  0.00  0.00    +0.000 C 
BRANCH  12  13
ATOM     13  C   UNL     1       9.227  10.226  18.647  0.00  0.00    +0.000 A 
ATOM     14  C   UNL     1      10.035  10.926  17.737  0.00  0.00    +0.000 A 
ATOM     15  C   UNL     1      10.958  11.865  18.198  0.00  0.00    +0.000 A 
ATOM     16  C   UNL     1      11.068  12.098  19.563  0.00  0.00    +0.000 A 
ATOM     17  F   UNL     1      11.963  12.989  20.010  0.00  0.00    +0.000 F 
ATOM     18  C   UNL     1      10.265  11.416  20.475  0.00  0.00    +0.000 A 
ATOM     19  C   UNL     1       9.337  10.475  20.018  0.00  0.00    +0.000 A 
ENDBRANCH  12  13
ENDBRANCH   3  11
TORSDOF 3
ENDMDL
MODEL 7
REMARK VINA RESULT:      -6.7      0.642      1.616
REMARK  Name = 
REMARK  3 active torsions:
REMARK  status: ('A' for Active; 'I' for Inactive)
REMARK    1  A    between atoms: C_2  and  C_13
REMARK    2  A    between atoms: N_3  and  N_4
REMARK    3  A    between atoms: C_5  and  C_6
REMARK                            x       y       z     vdW  Elec       q    Type
REMARK                         _______ _______ _______ _____ _____    ______ ____
ROOT
ATOM      1  O   UNL     1       6.765   4.164  16.740  0.00  0.00    +0.000 OA
ATOM      2  C   UNL     1       5.978   4.281  15.803  0.00  0.00    +0.000 C 
ATOM      3  N   UNL     1       4.597   4.327  15.921  0.00  0.00    +0.000 N 
ATOM      4  H   UNL     1       4.018   4.411  15.088  0.00  0.00    +0.000 HD
ENDROOT
BRANCH   2   5
ATOM      5  C   UNL     1       6.506   4.381  14.420  0.00  0.00    +0.000 A 
ATOM      6  C   UNL     1       7.465   5.346  14.138  0.00  0.00    +0.000 A 
ATOM      7  N   UNL     1       7.987   5.516  12.897  0.00  0.00    +0.000 NA
ATOM      8  C   UNL     1       7.503   4.682  11.951  0.00  0.00    +0.000 A 
ATOM      9  C   UNL     1       6.547   3.714  12.231  0.00  0.00    +0.000 A 
ATOM     10  N   UNL     1       6.020   3.531  13.469  0.00  0.00    +0.000 NA
ENDBRANCH   2   5
BRANCH   3  11
ATOM     11  N   UNL     1       4.059   4.234  17.166  0.00  0.00    +0.000 NA
ATOM     12  C   UNL     1       3.227   3.275  17.399  0.00  0.00    +0.000 C 
BRANCH  12  13
ATOM     13  C   UNL     1       2.631   3.128  18.749  0.00  0.00    +0.000 A 
ATOM     14  C   UNL     1       3.437   2.760  19.839  0.00  0.00    +0.000 A 
ATOM     15  C   UNL     1       2.872   2.588  21.102  0.00  0.00    +0.000 A 
ATOM     16  C   UNL     1       1.507   2.784  21.270  0.00  0.00    +0.000 A 
ATOM     17  F   UNL     1       0.959   2.606  22.479  0.00  0.00    +0.000 F 
ATOM     18  C   UNL     1       0.698   3.159  20.199  0.00  0.00    +0.000 A 
ATOM     19  C   UNL     1       1.260   3.334  18.930  0.00  0.00    +0.000 A 
ENDBRANCH  12  13
ENDBRANCH   3  11
TORSDOF 3
ENDMDL
MODEL 8
REMARK VINA RESULT:      -6.7      6.894      8.782
REMARK  Name = 
REMARK  3 active torsions:
REMARK  status: ('A' for Active; 'I' for Inactive)
REMARK    1  A    between atoms: C_2  and  C_13
REMARK    2  A    between atoms: N_3  and  N_4
REMARK    3  A    between atoms: C_5  and  C_6
REMARK                            x       y       z     vdW  Elec       q    Type
REMARK                         _______ _______ _______ _____ _____    ______ ____
ROOT
ATOM      1  O   UNL     1       8.079   6.108  19.065  0.00  0.00    +0.000 OA
ATOM      2  C   UNL     1       7.478   6.530  18.080  0.00  0.00    +0.000 C 
ATOM      3  N   UNL     1       7.596   7.812  17.562  0.00  0.00    +0.000 N 
ATOM      4  H   UNL     1       7.048   8.084  16.749  0.00  0.00    +0.000 HD
ENDROOT
BRANCH   2   5
ATOM      5  C   UNL     1       6.540   5.634  17.360  0.00  0.00    +0.000 A 
ATOM      6  C   UNL     1       7.055   4.725  16.443  0.00  0.00    +0.000 A 
ATOM      7  N   UNL     1       6.267   3.881  15.731  0.00  0.00    +0.000 NA
ATOM      8  C   UNL     1       4.942   3.990  15.973  0.00  0.00    +0.000 A 
ATOM      9  C   UNL     1       4.426   4.895  16.891  0.00  0.00    +0.000 A 
ATOM     10  N   UNL     1       5.204   5.741  17.614  0.00  0.00    +0.000 NA
ENDBRANCH   2   5
BRANCH   3  11
ATOM     11  N   UNL     1       8.437   8.678  18.186  0.00  0.00    +0.000 NA
ATOM     12  C   UNL     1       8.379   9.925  17.860  0.00  0.00    +0.000 C 
BRANCH  12  13
ATOM     13  C   UNL     1       9.269  10.905  18.530  0.00  0.00    +0.000 A 
ATOM     14  C   UNL     1       9.546  10.781  19.902  0.00  0.00    +0.000 A 
ATOM     15  C   UNL     1      10.354  11.721  20.541  0.00  0.00    +0.000 A 
ATOM     16  C   UNL     1      10.881  12.777  19.808  0.00  0.00    +0.000 A 
ATOM     17  F   UNL     1      11.646  13.689  20.422  0.00  0.00    +0.000 F 
ATOM     18  C   UNL     1      10.622  12.905  18.445  0.00  0.00    +0.000 A 
ATOM     19  C   UNL     1       9.813  11.965  17.799  0.00  0.00    +0.000 A 
ENDBRANCH  12  13
ENDBRANCH   3  11
TORSDOF 3
ENDMDL
MODEL 9
REMARK VINA RESULT:      -6.5      3.751      8.135
REMARK  Name = 
REMARK  3 active torsions:
REMARK  status: ('A' for Active; 'I' for Inactive)
REMARK    1  A    between atoms: C_2  and  C_13
REMARK    2  A    between atoms: N_3  and  N_4
REMARK    3  A    between atoms: C_5  and  C_6
REMARK                            x       y       z     vdW  Elec       q    Type
REMARK                         _______ _______ _______ _____ _____    ______ ____
ROOT
ATOM      1  O   UNL     1       1.976   3.533  17.002  0.00  0.00    +0.000 OA
ATOM      2  C   UNL     1       2.870   3.494  17.844  0.00  0.00    +0.000 C 
ATOM      3  N   UNL     1       4.216   3.716  17.591  0.00  0.00    +0.000 N 
ATOM      4  H   UNL     1       4.893   3.649  18.347  0.00  0.00    +0.000 HD
ENDROOT
BRANCH   2   5
ATOM      5  C   UNL     1       2.527   3.186  19.254  0.00  0.00    +0.000 A 
ATOM      6  C   UNL     1       3.536   2.765  20.112  0.00  0.00    +0.000 A 
ATOM      7  N   UNL     1       3.305   2.449  21.410  0.00  0.00    +0.000 NA
ATOM      8  C   UNL     1       2.021   2.566  21.811  0.00  0.00    +0.000 A 
ATOM      9  C   UNL     1       1.011   2.990  20.957  0.00  0.00    +0.000 A 
ATOM     10  N   UNL     1       1.229   3.315  19.657  0.00  0.00    +0.000 NA
ENDBRANCH   2   5
BRANCH   3  11
ATOM     11  N   UNL     1       4.587   3.997  16.314  0.00  0.00    +0.000 NA
ATOM     12  C   UNL     1       5.831   3.860  15.998  0.00  0.00    +0.000 C 
BRANCH  12  13
ATOM     13  C   UNL     1       6.274   4.141  14.610  0.00  0.00    +0.000 A 
ATOM     14  C   UNL     1       5.672   3.474  13.530  0.00  0.00    +0.000 A 
ATOM     15  C   UNL     1       6.110   3.710  12.228  0.00  0.00    +0.000 A 
ATOM     16  C   UNL     1       7.147   4.610  12.011  0.00  0.00    +0.000 A 
ATOM     17  F   UNL     1       7.580   4.829  10.762  0.00  0.00    +0.000 F 
ATOM     18  C   UNL     1       7.746   5.285  13.073  0.00  0.00    +0.000 A 
ATOM     19  C   UNL     1       7.308   5.052  14.381  0.00  0.00    +0.000 A 
ENDBRANCH  12  13
ENDBRANCH   3  11
TORSDOF 3
ENDMDL
