MODEL 1
REMARK VINA RESULT:      -7.1      0.000      0.000
REMARK  Name = 
REMARK  2 active torsions:
REMARK  status: ('A' for Active; 'I' for Inactive)
REMARK    1  A    between atoms: C_2  and  C_11
REMARK    2  A    between atoms: N_3  and  C_4
REMARK                            x       y       z     vdW  Elec       q    Type
REMARK                         _______ _______ _______ _____ _____    ______ ____
ROOT
ATOM      1  O   UNL     1       6.226   4.408  17.848  0.00  0.00    +0.000 OA
ATOM      2  C   UNL     1       5.674   4.395  16.753  0.00  0.00    +0.000 C 
ATOM      3  N   UNL     1       4.349   4.063  16.516  0.00  0.00    +0.000 N 
ATOM      4  H   UNL     1       4.085   3.982  15.538  0.00  0.00    +0.000 HD
ENDROOT
BRANCH   3   5
ATOM      5  C   UNL     1       3.392   3.700  17.486  0.00  0.00    +0.000 A 
ATOM      6  C   UNL     1       3.124   2.372  17.837  0.00  0.00    +0.000 A 
ATOM      7  C   UNL     1       2.130   2.068  18.769  0.00  0.00    +0.000 A 
ATOM      8  C   UNL     1       1.403   3.095  19.354  0.00  0.00    +0.000 A 
ATOM      9  F   UNL     1       0.433   2.802  20.229  0.00  0.00    +0.000 F 
ATOM     10  C   UNL     1       1.670   4.422  19.041  0.00  0.00    +0.000 A 
ATOM     11  C   UNL     1       2.674   4.727  18.116  0.00  0.00    +0.000 A 
ENDBRANCH   3   5
BRANCH   2  12
ATOM     12  C   UNL     1       6.438   4.697  15.551  0.00  0.00    +0.000 A 
ATOM     13  C   UNL     1       6.249   4.143  14.278  0.00  0.00    +0.000 A 
ATOM     14  N   UNL     1       7.134   4.645  13.422  0.00  0.00    +0.000 NA
ATOM     15  O   UNL     1       7.892   5.533  14.182  0.00  0.00    +0.000 OA
ATOM     16  N   UNL     1       7.446   5.576  15.506  0.00  0.00    +0.000 NA
ENDBRANCH   2  12
TORSDOF 2
ENDMDL
MODEL 2
REMARK VINA RESULT:      -7.0      1.375      1.941
REMARK  Name = 
REMARK  2 active torsions:
REMARK  status: ('A' for Active; 'I' for Inactive)
REMARK    1  A    between atoms: C_2  and  C_11
REMARK    2  A    between atoms: N_3  and  C_4
REMARK                            x       y       z     vdW  Elec       q    Type
REMARK                         _______ _______ _______ _____ _____    ______ ____
ROOT
ATOM      1  O   UNL     1       6.224   4.340  18.974  0.00  0.00    +0.000 OA
ATOM      2  C   UNL     1       5.546   4.557  17.976  0.00  0.00    +0.000 C 
ATOM      3  N   UNL     1       4.168   4.429  17.886  0.00  0.00    +0.000 N 
ATOM      4  H   UNL     1       3.777   4.527  16.954  0.00  0.00    +0.000 HD
ENDROOT
BRANCH   3   5
ATOM      5  C   UNL     1       3.295   4.046  18.926  0.00  0.00    +0.000 A 
ATOM      6  C   UNL     1       2.836   4.935  19.905  0.00  0.00    +0.000 A 
ATOM      7  C   UNL     1       2.013   4.490  20.941  0.00  0.00    +0.000 A 
ATOM      8  C   UNL     1       1.646   3.153  20.997  0.00  0.00    +0.000 A 
ATOM      9  F   UNL     1       0.876   2.722  22.005  0.00  0.00    +0.000 F 
ATOM     10  C   UNL     1       2.067   2.259  20.021  0.00  0.00    +0.000 A 
ATOM     11  C   UNL     1       2.882   2.707  18.976  0.00  0.00    +0.000 A 
ENDBRANCH   3   5
BRANCH   2  12
ATOM     12  C   UNL     1       6.192   4.939  16.728  0.00  0.00    +0.000 A 
ATOM     13  C   UNL     1       5.568   5.470  15.591  0.00  0.00    +0.000 A 
ATOM     14  N   UNL     1       6.466   5.692  14.635  0.00  0.00    +0.000 NA
ATOM     15  O   UNL     1       7.677   5.289  15.192  0.00  0.00    +0.000 OA
ATOM     16  N   UNL     1       7.507   4.835  16.503  0.00  0.00    +0.000 NA
ENDBRANCH   2  12
TORSDOF 2
ENDMDL
MODEL 3
REMARK VINA RESULT:      -6.9      1.842      2.423
REMARK  Name = 
REMARK  2 active torsions:
REMARK  status: ('A' for Active; 'I' for Inactive)
REMARK    1  A    between atoms: C_2  and  C_11
REMARK    2  A    between atoms: N_3  and  C_4
REMARK                            x       y       z     vdW  Elec       q    Type
REMARK                         _______ _______ _______ _____ _____    ______ ____
ROOT
ATOM      1  O   UNL     1       6.316   5.095  19.855  0.00  0.00    +0.000 OA
ATOM      2  C   UNL     1       5.800   5.098  18.743  0.00  0.00    +0.000 C 
ATOM      3  N   UNL     1       4.511   4.681  18.444  0.00  0.00    +0.000 N 
ATOM      4  H   UNL     1       4.283   4.633  17.455  0.00  0.00    +0.000 HD
ENDROOT
BRANCH   3   5
ATOM      5  C   UNL     1       3.556   4.197  19.362  0.00  0.00    +0.000 A 
ATOM      6  C   UNL     1       2.562   5.004  19.928  0.00  0.00    +0.000 A 
ATOM      7  C   UNL     1       1.673   4.483  20.870  0.00  0.00    +0.000 A 
ATOM      8  C   UNL     1       1.776   3.152  21.245  0.00  0.00    +0.000 A 
ATOM      9  F   UNL     1       0.939   2.659  22.168  0.00  0.00    +0.000 F 
ATOM     10  C   UNL     1       2.737   2.325  20.677  0.00  0.00    +0.000 A 
ATOM     11  C   UNL     1       3.620   2.844  19.724  0.00  0.00    +0.000 A 
ENDBRANCH   3   5
BRANCH   2  12
ATOM     12  C   UNL     1       6.574   5.520  17.584  0.00  0.00    +0.000 A 
ATOM     13  C   UNL     1       6.715   4.827  16.374  0.00  0.00    +0.000 A 
ATOM     14  N   UNL     1       7.501   5.505  15.544  0.00  0.00    +0.000 NA
ATOM     15  O   UNL     1       7.858   6.649  16.256  0.00  0.00    +0.000 OA
ATOM     16  N   UNL     1       7.265   6.664  17.521  0.00  0.00    +0.000 NA
ENDBRANCH   2  12
TORSDOF 2
ENDMDL
MODEL 4
REMARK VINA RESULT:      -6.8      1.423      1.423
REMARK  Name = 
REMARK  2 active torsions:
REMARK  status: ('A' for Active; 'I' for Inactive)
REMARK    1  A    between atoms: C_2  and  C_11
REMARK    2  A    between atoms: N_3  and  C_4
REMARK                            x       y       z     vdW  Elec       q    Type
REMARK                         _______ _______ _______ _____ _____    ______ ____
ROOT
ATOM      1  O   UNL     1       6.866   4.494  18.534  0.00  0.00    +0.000 OA
ATOM      2  C   UNL     1       6.080   4.517  17.593  0.00  0.00    +0.000 C 
ATOM      3  N   UNL     1       4.714   4.286  17.670  0.00  0.00    +0.000 N 
ATOM      4  H   UNL     1       4.229   4.220  16.780  0.00  0.00    +0.000 HD
ENDROOT
BRANCH   3   5
ATOM      5  C   UNL     1       3.979   4.004  18.840  0.00  0.00    +0.000 A 
ATOM      6  C   UNL     1       3.910   2.727  19.411  0.00  0.00    +0.000 A 
ATOM      7  C   UNL     1       3.126   2.495  20.542  0.00  0.00    +0.000 A 
ATOM      8  C   UNL     1       2.412   3.541  21.107  0.00  0.00    +0.000 A 
ATOM      9  F   UNL     1       1.641   3.312  22.178  0.00  0.00    +0.000 F 
ATOM     10  C   UNL     1       2.487   4.822  20.575  0.00  0.00    +0.000 A 
ATOM     11  C   UNL     1       3.282   5.058  19.448  0.00  0.00    +0.000 A 
ENDBRANCH   3   5
BRANCH   2  12
ATOM     12  C   UNL     1       6.570   4.752  16.243  0.00  0.00    +0.000 A 
ATOM     13  C   UNL     1       6.224   4.034  15.090  0.00  0.00    +0.000 A 
ATOM     14  N   UNL     1       6.870   4.521  14.034  0.00  0.00    +0.000 NA
ATOM     15  O   UNL     1       7.636   5.567  14.543  0.00  0.00    +0.000 OA
ATOM     16  N   UNL     1       7.435   5.720  15.918  0.00  0.00    +0.000 NA
ENDBRANCH   2  12
TORSDOF 2
ENDMDL
MODEL 5
REMARK VINA RESULT:      -6.8      1.178      1.352
REMARK  Name = 
REMARK  2 active torsions:
REMARK  status: ('A' for Active; 'I' for Inactive)
REMARK    1  A    between atoms: C_2  and  C_11
REMARK    2  A    between atoms: N_3  and  C_4
REMARK                            x       y       z     vdW  Elec       q    Type
REMARK                         _______ _______ _______ _____ _____    ______ ____
ROOT
ATOM      1  O   UNL     1       4.390   6.078  17.022  0.00  0.00    +0.000 OA
ATOM      2  C   UNL     1       4.860   5.023  16.609  0.00  0.00    +0.000 C 
ATOM      3  N   UNL     1       4.516   3.753  17.049  0.00  0.00    +0.000 N 
ATOM      4  H   UNL     1       5.088   2.995  16.691  0.00  0.00    +0.000 HD
ENDROOT
BRANCH   3   5
ATOM      5  C   UNL     1       3.555   3.442  18.033  0.00  0.00    +0.000 A 
ATOM      6  C   UNL     1       2.177   3.448  17.785  0.00  0.00    +0.000 A 
ATOM      7  C   UNL     1       1.268   3.181  18.810  0.00  0.00    +0.000 A 
ATOM      8  C   UNL     1       1.737   2.903  20.085  0.00  0.00    +0.000 A 
ATOM      9  F   UNL     1       0.863   2.670  21.074  0.00  0.00    +0.000 F 
ATOM     10  C   UNL     1       3.100   2.863  20.348  0.00  0.00    +0.000 A 
ATOM     11  C   UNL     1       4.012   3.120  19.318  0.00  0.00    +0.000 A 
ENDBRANCH   3   5
BRANCH   2  12
ATOM     12  C   UNL     1       5.911   5.041  15.603  0.00  0.00    +0.000 A 
ATOM     13  C   UNL     1       5.894   4.389  14.362  0.00  0.00    +0.000 A 
ATOM     14  N   UNL     1       7.027   4.620  13.705  0.00  0.00    +0.000 NA
ATOM     15  O   UNL     1       7.767   5.436  14.559  0.00  0.00    +0.000 OA
ATOM     16  N   UNL     1       7.062   5.711  15.734  0.00  0.00    +0.000 NA
ENDBRANCH   2  12
TORSDOF 2
ENDMDL
MODEL 6
REMARK VINA RESULT:      -6.8      1.135      1.164
REMARK  Name = 
REMARK  2 active torsions:
REMARK  status: ('A' for Active; 'I' for Inactive)
REMARK    1  A    between atoms: C_2  and  C_11
REMARK    2  A    between atoms: N_3  and  C_4
REMARK                            x       y       z     vdW  Elec       q    Type
REMARK                         _______ _______ _______ _____ _____    ______ ____
ROOT
ATOM      1  O   UNL     1       4.719   6.196  17.271  0.00  0.00    +0.000 OA
ATOM      2  C   UNL     1       5.013   5.129  16.744  0.00  0.00    +0.000 C 
ATOM      3  N   UNL     1       4.535   3.880  17.115  0.00  0.00    +0.000 N 
ATOM      4  H   UNL     1       4.975   3.088  16.656  0.00  0.00    +0.000 HD
ENDROOT
BRANCH   3   5
ATOM      5  C   UNL     1       3.612   3.612  18.147  0.00  0.00    +0.000 A 
ATOM      6  C   UNL     1       3.995   3.185  19.423  0.00  0.00    +0.000 A 
ATOM      7  C   UNL     1       3.035   2.886  20.392  0.00  0.00    +0.000 A 
ATOM      8  C   UNL     1       1.689   3.017  20.084  0.00  0.00    +0.000 A 
ATOM      9  F   UNL     1       0.767   2.707  21.006  0.00  0.00    +0.000 F 
ATOM     10  C   UNL     1       1.286   3.466  18.833  0.00  0.00    +0.000 A 
ATOM     11  C   UNL     1       2.248   3.777  17.866  0.00  0.00    +0.000 A 
ENDBRANCH   3   5
BRANCH   2  12
ATOM     12  C   UNL     1       5.986   5.097  15.661  0.00  0.00    +0.000 A 
ATOM     13  C   UNL     1       5.868   4.400  14.451  0.00  0.00    +0.000 A 
ATOM     14  N   UNL     1       6.950   4.593  13.702  0.00  0.00    +0.000 NA
ATOM     15  O   UNL     1       7.759   5.431  14.465  0.00  0.00    +0.000 OA
ATOM     16  N   UNL     1       7.149   5.758  15.679  0.00  0.00    +0.000 NA
ENDBRANCH   2  12
TORSDOF 2
ENDMDL
MODEL 7
REMARK VINA RESULT:      -6.7      1.815      2.312
REMARK  Name = 
REMARK  2 active torsions:
REMARK  status: ('A' for Active; 'I' for Inactive)
REMARK    1  A    between atoms: C_2  and  C_11
REMARK    2  A    between atoms: N_3  and  C_4
REMARK                            x       y       z     vdW  Elec       q    Type
REMARK                         _______ _______ _______ _____ _____    ______ ____
ROOT
ATOM      1  O   UNL     1       4.077   3.635  16.663  0.00  0.00    +0.000 OA
ATOM      2  C   UNL     1       4.797   4.378  17.321  0.00  0.00    +0.000 C 
ATOM      3  N   UNL     1       4.631   4.693  18.662  0.00  0.00    +0.000 N 
ATOM      4  H   UNL     1       5.243   5.420  19.021  0.00  0.00    +0.000 HD
ENDROOT
BRANCH   3   5
ATOM      5  C   UNL     1       3.621   4.204  19.515  0.00  0.00    +0.000 A 
ATOM      6  C   UNL     1       2.447   4.914  19.795  0.00  0.00    +0.000 A 
ATOM      7  C   UNL     1       1.502   4.404  20.688  0.00  0.00    +0.000 A 
ATOM      8  C   UNL     1       1.731   3.180  21.300  0.00  0.00    +0.000 A 
ATOM      9  F   UNL     1       0.836   2.703  22.176  0.00  0.00    +0.000 F 
ATOM     10  C   UNL     1       2.875   2.446  21.017  0.00  0.00    +0.000 A 
ATOM     11  C   UNL     1       3.816   2.951  20.113  0.00  0.00    +0.000 A 
ENDBRANCH   3   5
BRANCH   2  12
ATOM     12  C   UNL     1       5.913   5.060  16.682  0.00  0.00    +0.000 A 
ATOM     13  C   UNL     1       6.586   4.657  15.520  0.00  0.00    +0.000 A 
ATOM     14  N   UNL     1       7.559   5.516  15.231  0.00  0.00    +0.000 NA
ATOM     15  O   UNL     1       7.490   6.477  16.237  0.00  0.00    +0.000 OA
ATOM     16  N   UNL     1       6.452   6.199  17.132  0.00  0.00    +0.000 NA
ENDBRANCH   2  12
TORSDOF 2
ENDMDL
MODEL 8
REMARK VINA RESULT:      -6.7      1.605      1.910
REMARK  Name = 
REMARK  2 active torsions:
REMARK  status: ('A' for Active; 'I' for Inactive)
REMARK    1  A    between atoms: C_2  and  C_11
REMARK    2  A    between atoms: N_3  and  C_4
REMARK                            x       y       z     vdW  Elec       q    Type
REMARK                         _______ _______ _______ _____ _____    ______ ____
ROOT
ATOM      1  O   UNL     1       6.180   4.527  19.127  0.00  0.00    +0.000 OA
ATOM      2  C   UNL     1       5.536   4.310  18.107  0.00  0.00    +0.000 C 
ATOM      3  N   UNL     1       4.232   3.840  18.054  0.00  0.00    +0.000 N 
ATOM      4  H   UNL     1       3.890   3.597  17.129  0.00  0.00    +0.000 HD
ENDROOT
BRANCH   3   5
ATOM      5  C   UNL     1       3.405   3.545  19.158  0.00  0.00    +0.000 A 
ATOM      6  C   UNL     1       3.780   2.666  20.181  0.00  0.00    +0.000 A 
ATOM      7  C   UNL     1       2.901   2.372  21.225  0.00  0.00    +0.000 A 
ATOM      8  C   UNL     1       1.645   2.961  21.248  0.00  0.00    +0.000 A 
ATOM      9  F   UNL     1       0.793   2.660  22.237  0.00  0.00    +0.000 F 
ATOM     10  C   UNL     1       1.262   3.857  20.259  0.00  0.00    +0.000 A 
ATOM     11  C   UNL     1       2.147   4.161  19.219  0.00  0.00    +0.000 A 
ENDBRANCH   3   5
BRANCH   2  12
ATOM     12  C   UNL     1       6.156   4.496  16.803  0.00  0.00    +0.000 A 
ATOM     13  C   UNL     1       7.016   5.536  16.425  0.00  0.00    +0.000 A 
ATOM     14  N   UNL     1       7.384   5.391  15.156  0.00  0.00    +0.000 NA
ATOM     15  O   UNL     1       6.737   4.232  14.734  0.00  0.00    +0.000 OA
ATOM     16  N   UNL     1       5.985   3.666  15.767  0.00  0.00    +0.000 NA
ENDBRANCH   2  12
TORSDOF 2
ENDMDL
MODEL 9
REMARK VINA RESULT:      -6.7      1.836      1.963
REMARK  Name = 
REMARK  2 active torsions:
REMARK  status: ('A' for Active; 'I' for Inactive)
REMARK    1  A    between atoms: C_2  and  C_11
REMARK    2  A    between atoms: N_3  and  C_4
REMARK                            x       y       z     vdW  Elec       q    Type
REMARK                         _______ _______ _______ _____ _____    ______ ____
ROOT
ATOM      1  O   UNL     1       4.026   3.747  16.655  0.00  0.00    +0.000 OA
ATOM      2  C   UNL     1       4.890   4.346  17.286  0.00  0.00    +0.000 C 
ATOM      3  N   UNL     1       4.905   4.537  18.660  0.00  0.00    +0.000 N 
ATOM      4  H   UNL     1       5.627   5.161  19.008  0.00  0.00    +0.000 HD
ENDROOT
BRANCH   3   5
ATOM      5  C   UNL     1       3.947   4.065  19.580  0.00  0.00    +0.000 A 
ATOM      6  C   UNL     1       3.976   2.774  20.120  0.00  0.00    +0.000 A 
ATOM      7  C   UNL     1       2.972   2.342  20.989  0.00  0.00    +0.000 A 
ATOM      8  C   UNL     1       1.938   3.204  21.322  0.00  0.00    +0.000 A 
ATOM      9  F   UNL     1       0.963   2.782  22.137  0.00  0.00    +0.000 F 
ATOM     10  C   UNL     1       1.904   4.499  20.821  0.00  0.00    +0.000 A 
ATOM     11  C   UNL     1       2.916   4.936  19.959  0.00  0.00    +0.000 A 
ENDBRANCH   3   5
BRANCH   2  12
ATOM     12  C   UNL     1       5.997   4.977  16.583  0.00  0.00    +0.000 A 
ATOM     13  C   UNL     1       6.603   4.529  15.402  0.00  0.00    +0.000 A 
ATOM     14  N   UNL     1       7.589   5.349  15.051  0.00  0.00    +0.000 NA
ATOM     15  O   UNL     1       7.597   6.331  16.038  0.00  0.00    +0.000 OA
ATOM     16  N   UNL     1       6.592   6.107  16.984  0.00  0.00    +0.000 NA
ENDBRANCH   2  12
TORSDOF 2
ENDMDL
