MODEL 1
REMARK VINA RESULT:      -6.7      0.000      0.000
REMARK  Name = 
REMARK  9 active torsions:
REMARK  status: ('A' for Active; 'I' for Inactive)
REMARK    1  A    between atoms: C_1  and  C_2
REMARK    2  A    between atoms: C_2  and  C_3
REMARK    3  A    between atoms: C_3  and  O_5
REMARK    4  A    between atoms: O_5  and  C_6
REMARK    5  A    between atoms: C_18  and  C_19
REMARK    6  A    between atoms: C_20  and  O_21
REMARK    7  A    between atoms: O_21  and  C_22
REMARK    8  A    between atoms: C_22  and  C_24
REMARK    9  A    between atoms: C_24  and  C_25
REMARK                            x       y       z     vdW  Elec       q    Type
REMARK                         _______ _______ _______ _____ _____    ______ ____
ROOT
ATOM      1  C   UNL     1       2.419   7.462  18.478  0.00  0.00    +0.000 A 
ATOM      2  C   UNL     1       1.876   8.440  17.650  0.00  0.00    +0.000 A 
ATOM      3  C   UNL     1       1.258   9.532  18.224  0.00  0.00    +0.000 A 
ATOM      4  C   UNL     1       1.099   9.605  19.614  0.00  0.00    +0.000 A 
ATOM      5  C   UNL     1       1.509   8.564  20.448  0.00  0.00    +0.000 A 
ATOM      6  C   UNL     1       2.223   7.500  19.868  0.00  0.00    +0.000 A 
ATOM      7  C   UNL     1       1.100   8.554  21.907  0.00  0.00    +0.000 C 
ATOM      8  C   UNL     1       0.112   9.669  22.384  0.00  0.00    +0.000 C 
ATOM      9  C   UNL     1      -0.611  10.409  21.232  0.00  0.00    +0.000 C 
ATOM     10  C   UNL     1       0.400  10.802  20.163  0.00  0.00    +0.000 C 
ATOM     11  C   UNL     1       1.338  11.869  20.713  0.00  0.00    +0.000 C 
ATOM     12  C   UNL     1       0.586  13.185  20.813  0.00  0.00    +0.000 C 
ATOM     13  C   UNL     1      -0.957  13.073  21.033  0.00  0.00    +0.000 C 
ATOM     14  C   UNL     1      -1.651  13.411  19.682  0.00  0.00    +0.000 C 
ATOM     15  C   UNL     1      -1.367  14.068  22.168  0.00  0.00    +0.000 C 
ATOM     16  C   UNL     1      -1.444  13.198  23.421  0.00  0.00    +0.000 C 
ATOM     17  C   UNL     1      -2.000  11.861  22.961  0.00  0.00    +0.000 C 
ATOM     18  C   UNL     1      -1.487  11.663  21.535  0.00  0.00    +0.000 C 
ENDROOT
BRANCH   1  19
ATOM     19  O   UNL     1       3.046   6.338  17.912  0.00  0.00    +0.000 OA
BRANCH  19  20
ATOM     20  C   UNL     1       2.811   5.104  18.524  0.00  0.00    +0.000 C 
ATOM     21  O   UNL     1       3.424   4.618  19.463  0.00  0.00    +0.000 OA
BRANCH  20  23
ATOM     22  C   UNL     1       1.206   3.166  18.520  0.00  0.00    +0.000 C 
ATOM     23  C   UNL     1       1.658   4.433  17.811  0.00  0.00    +0.000 C 
ENDBRANCH  20  23
ENDBRANCH  19  20
ENDBRANCH   1  19
BRANCH  15  24
ATOM     24  O   UNL     1      -2.639  14.691  21.925  0.00  0.00    +0.000 OA
BRANCH  24  25
ATOM     25  C   UNL     1      -3.012  15.591  22.887  0.00  0.00    +0.000 C 
ATOM     26  O   UNL     1      -2.354  16.563  23.243  0.00  0.00    +0.000 OA
BRANCH  25  27
ATOM     27  C   UNL     1      -4.377  15.240  23.424  0.00  0.00    +0.000 C 
ATOM     28  C   UNL     1      -4.900  16.314  24.366  0.00  0.00    +0.000 C 
ENDBRANCH  25  27
ENDBRANCH  24  25
ENDBRANCH  15  24
TORSDOF 6
ENDMDL
MODEL 2
REMARK VINA RESULT:      -6.7      1.566      2.047
REMARK  Name = 
REMARK  9 active torsions:
REMARK  status: ('A' for Active; 'I' for Inactive)
REMARK    1  A    between atoms: C_1  and  C_2
REMARK    2  A    between atoms: C_2  and  C_3
REMARK    3  A    between atoms: C_3  and  O_5
REMARK    4  A    between atoms: O_5  and  C_6
REMARK    5  A    between atoms: C_18  and  C_19
REMARK    6  A    between atoms: C_20  and  O_21
REMARK    7  A    between atoms: O_21  and  C_22
REMARK    8  A    between atoms: C_22  and  C_24
REMARK    9  A    between atoms: C_24  and  C_25
REMARK                            x       y       z     vdW  Elec       q    Type
REMARK                         _______ _______ _______ _____ _____    ______ ____
ROOT
ATOM      1  C   UNL     1       2.632   6.886  18.734  0.00  0.00    +0.000 A 
ATOM      2  C   UNL     1       2.436   7.826  17.727  0.00  0.00    +0.000 A 
ATOM      3  C   UNL     1       1.859   9.038  18.049  0.00  0.00    +0.000 A 
ATOM      4  C   UNL     1       1.394   9.277  19.348  0.00  0.00    +0.000 A 
ATOM      5  C   UNL     1       1.453   8.291  20.334  0.00  0.00    +0.000 A 
ATOM      6  C   UNL     1       2.128   7.096  20.028  0.00  0.00    +0.000 A 
ATOM      7  C   UNL     1       0.720   8.485  21.646  0.00  0.00    +0.000 C 
ATOM      8  C   UNL     1      -0.188   9.752  21.781  0.00  0.00    +0.000 C 
ATOM      9  C   UNL     1      -0.516  10.442  20.435  0.00  0.00    +0.000 C 
ATOM     10  C   UNL     1       0.760  10.598  19.617  0.00  0.00    +0.000 C 
ATOM     11  C   UNL     1       1.683  11.603  20.295  0.00  0.00    +0.000 C 
ATOM     12  C   UNL     1       1.118  13.000  20.108  0.00  0.00    +0.000 C 
ATOM     13  C   UNL     1      -0.436  13.091  19.955  0.00  0.00    +0.000 C 
ATOM     14  C   UNL     1      -0.745  13.361  18.453  0.00  0.00    +0.000 C 
ATOM     15  C   UNL     1      -0.955  14.243  20.876  0.00  0.00    +0.000 C 
ATOM     16  C   UNL     1      -1.439  13.528  22.136  0.00  0.00    +0.000 C 
ATOM     17  C   UNL     1      -2.053  12.222  21.658  0.00  0.00    +0.000 C 
ATOM     18  C   UNL     1      -1.256  11.814  20.419  0.00  0.00    +0.000 C 
ENDROOT
BRANCH   1  19
ATOM     19  O   UNL     1       3.212   5.643  18.426  0.00  0.00    +0.000 OA
BRANCH  19  20
ATOM     20  C   UNL     1       2.656   4.514  19.032  0.00  0.00    +0.000 C 
ATOM     21  O   UNL     1       3.030   3.969  20.060  0.00  0.00    +0.000 OA
BRANCH  20  23
ATOM     22  C   UNL     1       0.908   2.735  18.689  0.00  0.00    +0.000 C 
ATOM     23  C   UNL     1       1.493   4.045  18.185  0.00  0.00    +0.000 C 
ENDBRANCH  20  23
ENDBRANCH  19  20
ENDBRANCH   1  19
BRANCH  15  24
ATOM     24  O   UNL     1      -2.038  14.979  20.284  0.00  0.00    +0.000 OA
BRANCH  24  25
ATOM     25  C   UNL     1      -1.950  16.336  20.454  0.00  0.00    +0.000 C 
ATOM     26  O   UNL     1      -2.786  17.036  21.014  0.00  0.00    +0.000 OA
BRANCH  25  27
ATOM     27  C   UNL     1      -0.649  16.845  19.888  0.00  0.00    +0.000 C 
ATOM     28  C   UNL     1      -0.757  17.115  18.395  0.00  0.00    +0.000 C 
ENDBRANCH  25  27
ENDBRANCH  24  25
ENDBRANCH  15  24
TORSDOF 6
ENDMDL
MODEL 3
REMARK VINA RESULT:      -6.7      1.216      1.586
REMARK  Name = 
REMARK  9 active torsions:
REMARK  status: ('A' for Active; 'I' for Inactive)
REMARK    1  A    between atoms: C_1  and  C_2
REMARK    2  A    between atoms: C_2  and  C_3
REMARK    3  A    between atoms: C_3  and  O_5
REMARK    4  A    between atoms: O_5  and  C_6
REMARK    5  A    between atoms: C_18  and  C_19
REMARK    6  A    between atoms: C_20  and  O_21
REMARK    7  A    between atoms: O_21  and  C_22
REMARK    8  A    between atoms: C_22  and  C_24
REMARK    9  A    between atoms: C_24  and  C_25
REMARK                            x       y       z     vdW  Elec       q    Type
REMARK                         _______ _______ _______ _____ _____    ______ ____
ROOT
ATOM      1  C   UNL     1       2.444   7.266  18.375  0.00  0.00    +0.000 A 
ATOM      2  C   UNL     1       1.965   8.274  17.545  0.00  0.00    +0.000 A 
ATOM      3  C   UNL     1       1.372   9.383  18.114  0.00  0.00    +0.000 A 
ATOM      4  C   UNL     1       1.172   9.445  19.498  0.00  0.00    +0.000 A 
ATOM      5  C   UNL     1       1.516   8.379  20.331  0.00  0.00    +0.000 A 
ATOM      6  C   UNL     1       2.206   7.296  19.759  0.00  0.00    +0.000 A 
ATOM      7  C   UNL     1       1.061   8.367  21.776  0.00  0.00    +0.000 C 
ATOM      8  C   UNL     1       0.102   9.513  22.237  0.00  0.00    +0.000 C 
ATOM      9  C   UNL     1      -0.556  10.295  21.073  0.00  0.00    +0.000 C 
ATOM     10  C   UNL     1       0.503  10.661  20.042  0.00  0.00    +0.000 C 
ATOM     11  C   UNL     1       1.463  11.685  20.634  0.00  0.00    +0.000 C 
ATOM     12  C   UNL     1       0.759  13.027  20.728  0.00  0.00    +0.000 C 
ATOM     13  C   UNL     1      -0.794  12.972  20.899  0.00  0.00    +0.000 C 
ATOM     14  C   UNL     1      -1.432  13.353  19.531  0.00  0.00    +0.000 C 
ATOM     15  C   UNL     1      -1.200  13.968  22.034  0.00  0.00    +0.000 C 
ATOM     16  C   UNL     1      -1.350  13.087  23.272  0.00  0.00    +0.000 C 
ATOM     17  C   UNL     1      -1.942  11.778  22.778  0.00  0.00    +0.000 C 
ATOM     18  C   UNL     1      -1.392  11.578  21.366  0.00  0.00    +0.000 C 
ENDROOT
BRANCH   1  19
ATOM     19  O   UNL     1       3.045   6.126  17.815  0.00  0.00    +0.000 OA
BRANCH  19  20
ATOM     20  C   UNL     1       4.440   6.120  17.727  0.00  0.00    +0.000 C 
ATOM     21  O   UNL     1       5.233   5.842  18.614  0.00  0.00    +0.000 OA
BRANCH  20  23
ATOM     22  C   UNL     1       5.706   5.505  15.640  0.00  0.00    +0.000 C 
ATOM     23  C   UNL     1       4.829   6.541  16.327  0.00  0.00    +0.000 C 
ENDBRANCH  20  23
ENDBRANCH  19  20
ENDBRANCH   1  19
BRANCH  15  24
ATOM     24  O   UNL     1      -2.440  14.643  21.759  0.00  0.00    +0.000 OA
BRANCH  24  25
ATOM     25  C   UNL     1      -2.811  15.542  22.724  0.00  0.00    +0.000 C 
ATOM     26  O   UNL     1      -2.126  16.477  23.123  0.00  0.00    +0.000 OA
BRANCH  25  27
ATOM     27  C   UNL     1      -4.208  15.241  23.202  0.00  0.00    +0.000 C 
ATOM     28  C   UNL     1      -4.891  14.207  22.318  0.00  0.00    +0.000 C 
ENDBRANCH  25  27
ENDBRANCH  24  25
ENDBRANCH  15  24
TORSDOF 6
ENDMDL
MODEL 4
REMARK VINA RESULT:      -6.6      1.200      2.530
REMARK  Name = 
REMARK  9 active torsions:
REMARK  status: ('A' for Active; 'I' for Inactive)
REMARK    1  A    between atoms: C_1  and  C_2
REMARK    2  A    between atoms: C_2  and  C_3
REMARK    3  A    between atoms: C_3  and  O_5
REMARK    4  A    between atoms: O_5  and  C_6
REMARK    5  A    between atoms: C_18  and  C_19
REMARK    6  A    between atoms: C_20  and  O_21
REMARK    7  A    between atoms: O_21  and  C_22
REMARK    8  A    between atoms: C_22  and  C_24
REMARK    9  A    between atoms: C_24  and  C_25
REMARK                            x       y       z     vdW  Elec       q    Type
REMARK                         _______ _______ _______ _____ _____    ______ ____
ROOT
ATOM      1  C   UNL     1       2.365   6.568  19.467  0.00  0.00    +0.000 A 
ATOM      2  C   UNL     1       1.740   6.800  20.688  0.00  0.00    +0.000 A 
ATOM      3  C   UNL     1       1.106   8.009  20.894  0.00  0.00    +0.000 A 
ATOM      4  C   UNL     1       1.175   9.018  19.925  0.00  0.00    +0.000 A 
ATOM      5  C   UNL     1       1.921   8.853  18.756  0.00  0.00    +0.000 A 
ATOM      6  C   UNL     1       2.482   7.588  18.509  0.00  0.00    +0.000 A 
ATOM      7  C   UNL     1       2.186  10.039  17.851  0.00  0.00    +0.000 C 
ATOM      8  C   UNL     1       1.707  11.443  18.348  0.00  0.00    +0.000 C 
ATOM      9  C   UNL     1       1.364  11.497  19.857  0.00  0.00    +0.000 C 
ATOM     10  C   UNL     1       0.488  10.306  20.224  0.00  0.00    +0.000 C 
ATOM     11  C   UNL     1      -0.876  10.450  19.562  0.00  0.00    +0.000 C 
ATOM     12  C   UNL     1      -1.660  11.539  20.274  0.00  0.00    +0.000 C 
ATOM     13  C   UNL     1      -0.806  12.664  20.944  0.00  0.00    +0.000 C 
ATOM     14  C   UNL     1      -0.821  12.413  22.481  0.00  0.00    +0.000 C 
ATOM     15  C   UNL     1      -1.433  14.047  20.570  0.00  0.00    +0.000 C 
ATOM     16  C   UNL     1      -0.585  14.540  19.399  0.00  0.00    +0.000 C 
ATOM     17  C   UNL     1       0.835  14.090  19.700  0.00  0.00    +0.000 C 
ATOM     18  C   UNL     1       0.703  12.772  20.464  0.00  0.00    +0.000 C 
ENDROOT
BRANCH   1  19
ATOM     19  O   UNL     1       3.022   5.346  19.241  0.00  0.00    +0.000 OA
BRANCH  19  20
ATOM     20  C   UNL     1       2.931   4.804  17.956  0.00  0.00    +0.000 C 
ATOM     21  O   UNL     1       3.817   4.745  17.116  0.00  0.00    +0.000 OA
BRANCH  20  23
ATOM     22  C   UNL     1       1.221   3.073  18.602  0.00  0.00    +0.000 C 
ATOM     23  C   UNL     1       1.519   4.300  17.753  0.00  0.00    +0.000 C 
ENDBRANCH  20  23
ENDBRANCH  19  20
ENDBRANCH   1  19
BRANCH  15  24
ATOM     24  O   UNL     1      -1.372  14.993  21.651  0.00  0.00    +0.000 OA
BRANCH  24  25
ATOM     25  C   UNL     1      -2.509  15.743  21.800  0.00  0.00    +0.000 C 
ATOM     26  O   UNL     1      -2.544  16.961  21.929  0.00  0.00    +0.000 OA
BRANCH  25  27
ATOM     27  C   UNL     1      -3.726  14.854  21.744  0.00  0.00    +0.000 C 
ATOM     28  C   UNL     1      -4.124  14.363  23.128  0.00  0.00    +0.000 C 
ENDBRANCH  25  27
ENDBRANCH  24  25
ENDBRANCH  15  24
TORSDOF 6
ENDMDL
MODEL 5
REMARK VINA RESULT:      -6.6      1.440      2.054
REMARK  Name = 
REMARK  9 active torsions:
REMARK  status: ('A' for Active; 'I' for Inactive)
REMARK    1  A    between atoms: C_1  and  C_2
REMARK    2  A    between atoms: C_2  and  C_3
REMARK    3  A    between atoms: C_3  and  O_5
REMARK    4  A    between atoms: O_5  and  C_6
REMARK    5  A    between atoms: C_18  and  C_19
REMARK    6  A    between atoms: C_20  and  O_21
REMARK    7  A    between atoms: O_21  and  C_22
REMARK    8  A    between atoms: C_22  and  C_24
REMARK    9  A    between atoms: C_24  and  C_25
REMARK                            x       y       z     vdW  Elec       q    Type
REMARK                         _______ _______ _______ _____ _____    ______ ____
ROOT
ATOM      1  C   UNL     1       2.373   7.351  18.534  0.00  0.00    +0.000 A 
ATOM      2  C   UNL     1       1.881   8.332  17.679  0.00  0.00    +0.000 A 
ATOM      3  C   UNL     1       1.297   9.459  18.222  0.00  0.00    +0.000 A 
ATOM      4  C   UNL     1       1.121   9.567  19.607  0.00  0.00    +0.000 A 
ATOM      5  C   UNL     1       1.479   8.527  20.468  0.00  0.00    +0.000 A 
ATOM      6  C   UNL     1       2.158   7.425  19.920  0.00  0.00    +0.000 A 
ATOM      7  C   UNL     1       1.047   8.563  21.920  0.00  0.00    +0.000 C 
ATOM      8  C   UNL     1       0.097   9.724  22.359  0.00  0.00    +0.000 C 
ATOM      9  C   UNL     1      -0.580  10.468  21.182  0.00  0.00    +0.000 C 
ATOM     10  C   UNL     1       0.461  10.800  20.122  0.00  0.00    +0.000 C 
ATOM     11  C   UNL     1       1.432  11.841  20.665  0.00  0.00    +0.000 C 
ATOM     12  C   UNL     1       0.731  13.187  20.727  0.00  0.00    +0.000 C 
ATOM     13  C   UNL     1      -0.819  13.139  20.926  0.00  0.00    +0.000 C 
ATOM     14  C   UNL     1      -1.480  13.476  19.557  0.00  0.00    +0.000 C 
ATOM     15  C   UNL     1      -1.207  14.172  22.034  0.00  0.00    +0.000 C 
ATOM     16  C   UNL     1      -1.336  13.331  23.303  0.00  0.00    +0.000 C 
ATOM     17  C   UNL     1      -1.937  12.007  22.861  0.00  0.00    +0.000 C 
ATOM     18  C   UNL     1      -1.411  11.761  21.447  0.00  0.00    +0.000 C 
ENDROOT
BRANCH   1  19
ATOM     19  O   UNL     1       2.964   6.193  18.001  0.00  0.00    +0.000 OA
BRANCH  19  20
ATOM     20  C   UNL     1       4.340   6.035  18.190  0.00  0.00    +0.000 C 
ATOM     21  O   UNL     1       4.897   5.492  19.132  0.00  0.00    +0.000 OA
BRANCH  20  23
ATOM     22  C   UNL     1       6.540   6.868  17.295  0.00  0.00    +0.000 C 
ATOM     23  C   UNL     1       5.056   6.678  17.022  0.00  0.00    +0.000 C 
ENDBRANCH  20  23
ENDBRANCH  19  20
ENDBRANCH   1  19
BRANCH  15  24
ATOM     24  O   UNL     1      -2.450  14.838  21.759  0.00  0.00    +0.000 OA
BRANCH  24  25
ATOM     25  C   UNL     1      -2.432  16.183  22.021  0.00  0.00    +0.000 C 
ATOM     26  O   UNL     1      -3.198  16.768  22.779  0.00  0.00    +0.000 OA
BRANCH  25  27
ATOM     27  C   UNL     1      -1.302  16.841  21.271  0.00  0.00    +0.000 C 
ATOM     28  C   UNL     1      -1.710  17.203  19.851  0.00  0.00    +0.000 C 
ENDBRANCH  25  27
ENDBRANCH  24  25
ENDBRANCH  15  24
TORSDOF 6
ENDMDL
MODEL 6
REMARK VINA RESULT:      -6.6      1.007      1.413
REMARK  Name = 
REMARK  9 active torsions:
REMARK  status: ('A' for Active; 'I' for Inactive)
REMARK    1  A    between atoms: C_1  and  C_2
REMARK    2  A    between atoms: C_2  and  C_3
REMARK    3  A    between atoms: C_3  and  O_5
REMARK    4  A    between atoms: O_5  and  C_6
REMARK    5  A    between atoms: C_18  and  C_19
REMARK    6  A    between atoms: C_20  and  O_21
REMARK    7  A    between atoms: O_21  and  C_22
REMARK    8  A    between atoms: C_22  and  C_24
REMARK    9  A    between atoms: C_24  and  C_25
REMARK                            x       y       z     vdW  Elec       q    Type
REMARK                         _______ _______ _______ _____ _____    ______ ____
ROOT
ATOM      1  C   UNL     1       2.310   7.511  18.627  0.00  0.00    +0.000 A 
ATOM      2  C   UNL     1       1.827   8.500  17.777  0.00  0.00    +0.000 A 
ATOM      3  C   UNL     1       1.244   9.625  18.324  0.00  0.00    +0.000 A 
ATOM      4  C   UNL     1       1.058   9.722  19.709  0.00  0.00    +0.000 A 
ATOM      5  C   UNL     1       1.406   8.674  20.564  0.00  0.00    +0.000 A 
ATOM      6  C   UNL     1       2.086   7.575  20.012  0.00  0.00    +0.000 A 
ATOM      7  C   UNL     1       0.964   8.700  22.014  0.00  0.00    +0.000 C 
ATOM      8  C   UNL     1       0.015   9.861  22.455  0.00  0.00    +0.000 C 
ATOM      9  C   UNL     1      -0.651  10.617  21.279  0.00  0.00    +0.000 C 
ATOM     10  C   UNL     1       0.399  10.953  20.229  0.00  0.00    +0.000 C 
ATOM     11  C   UNL     1       1.369  11.987  20.787  0.00  0.00    +0.000 C 
ATOM     12  C   UNL     1       0.672  13.334  20.855  0.00  0.00    +0.000 C 
ATOM     13  C   UNL     1      -0.879  13.290  21.043  0.00  0.00    +0.000 C 
ATOM     14  C   UNL     1      -1.529  13.640  19.672  0.00  0.00    +0.000 C 
ATOM     15  C   UNL     1      -1.271  14.316  22.156  0.00  0.00    +0.000 C 
ATOM     16  C   UNL     1      -1.412  13.465  23.417  0.00  0.00    +0.000 C 
ATOM     17  C   UNL     1      -2.014  12.147  22.961  0.00  0.00    +0.000 C 
ATOM     18  C   UNL     1      -1.479  11.910  21.549  0.00  0.00    +0.000 C 
ENDROOT
BRANCH   1  19
ATOM     19  O   UNL     1       2.901   6.355  18.089  0.00  0.00    +0.000 OA
BRANCH  19  20
ATOM     20  C   UNL     1       2.946   5.223  18.907  0.00  0.00    +0.000 C 
ATOM     21  O   UNL     1       3.828   4.917  19.694  0.00  0.00    +0.000 OA
BRANCH  20  23
ATOM     22  C   UNL     1       1.071   3.894  19.935  0.00  0.00    +0.000 C 
ATOM     23  C   UNL     1       1.702   4.400  18.647  0.00  0.00    +0.000 C 
ENDBRANCH  20  23
ENDBRANCH  19  20
ENDBRANCH   1  19
BRANCH  15  24
ATOM     24  O   UNL     1      -2.510  14.989  21.878  0.00  0.00    +0.000 OA
BRANCH  24  25
ATOM     25  C   UNL     1      -2.470  16.341  22.092  0.00  0.00    +0.000 C 
ATOM     26  O   UNL     1      -3.414  17.028  22.466  0.00  0.00    +0.000 OA
BRANCH  25  27
ATOM     27  C   UNL     1      -1.079  16.864  21.838  0.00  0.00    +0.000 C 
ATOM     28  C   UNL     1      -0.997  17.617  20.519  0.00  0.00    +0.000 C 
ENDBRANCH  25  27
ENDBRANCH  24  25
ENDBRANCH  15  24
TORSDOF 6
ENDMDL
MODEL 7
REMARK VINA RESULT:      -6.6      1.255      1.422
REMARK  Name = 
REMARK  9 active torsions:
REMARK  status: ('A' for Active; 'I' for Inactive)
REMARK    1  A    between atoms: C_1  and  C_2
REMARK    2  A    between atoms: C_2  and  C_3
REMARK    3  A    between atoms: C_3  and  O_5
REMARK    4  A    between atoms: O_5  and  C_6
REMARK    5  A    between atoms: C_18  and  C_19
REMARK    6  A    between atoms: C_20  and  O_21
REMARK    7  A    between atoms: O_21  and  C_22
REMARK    8  A    between atoms: C_22  and  C_24
REMARK    9  A    between atoms: C_24  and  C_25
REMARK                            x       y       z     vdW  Elec       q    Type
REMARK                         _______ _______ _______ _____ _____    ______ ____
ROOT
ATOM      1  C   UNL     1       2.428   6.810  18.879  0.00  0.00    +0.000 A 
ATOM      2  C   UNL     1       2.248   7.735  17.857  0.00  0.00    +0.000 A 
ATOM      3  C   UNL     1       1.722   8.974  18.162  0.00  0.00    +0.000 A 
ATOM      4  C   UNL     1       1.290   9.257  19.464  0.00  0.00    +0.000 A 
ATOM      5  C   UNL     1       1.331   8.289  20.469  0.00  0.00    +0.000 A 
ATOM      6  C   UNL     1       1.955   7.064  20.177  0.00  0.00    +0.000 A 
ATOM      7  C   UNL     1       0.629   8.537  21.790  0.00  0.00    +0.000 C 
ATOM      8  C   UNL     1      -0.228   9.839  21.914  0.00  0.00    +0.000 C 
ATOM      9  C   UNL     1      -0.556  10.514  20.559  0.00  0.00    +0.000 C 
ATOM     10  C   UNL     1       0.710  10.606  19.717  0.00  0.00    +0.000 C 
ATOM     11  C   UNL     1       1.682  11.589  20.358  0.00  0.00    +0.000 C 
ATOM     12  C   UNL     1       1.165  13.002  20.151  0.00  0.00    +0.000 C 
ATOM     13  C   UNL     1      -0.386  13.148  20.023  0.00  0.00    +0.000 C 
ATOM     14  C   UNL     1      -0.712  13.398  18.522  0.00  0.00    +0.000 C 
ATOM     15  C   UNL     1      -0.846  14.337  20.929  0.00  0.00    +0.000 C 
ATOM     16  C   UNL     1      -1.333  13.666  22.212  0.00  0.00    +0.000 C 
ATOM     17  C   UNL     1      -2.003  12.375  21.772  0.00  0.00    +0.000 C 
ATOM     18  C   UNL     1      -1.245  11.912  20.528  0.00  0.00    +0.000 C 
ENDROOT
BRANCH   1  19
ATOM     19  O   UNL     1       2.956   5.540  18.587  0.00  0.00    +0.000 OA
BRANCH  19  20
ATOM     20  C   UNL     1       2.042   4.515  18.328  0.00  0.00    +0.000 C 
ATOM     21  O   UNL     1       1.255   4.447  17.395  0.00  0.00    +0.000 OA
BRANCH  20  23
ATOM     22  C   UNL     1       1.043   3.586  20.443  0.00  0.00    +0.000 C 
ATOM     23  C   UNL     1       2.167   3.480  19.424  0.00  0.00    +0.000 C 
ENDBRANCH  20  23
ENDBRANCH  19  20
ENDBRANCH   1  19
BRANCH  15  24
ATOM     24  O   UNL     1      -1.912  15.101  20.340  0.00  0.00    +0.000 OA
BRANCH  24  25
ATOM     25  C   UNL     1      -2.217  16.250  21.022  0.00  0.00    +0.000 C 
ATOM     26  O   UNL     1      -1.402  17.070  21.430  0.00  0.00    +0.000 OA
BRANCH  25  27
ATOM     27  C   UNL     1      -3.712  16.385  21.165  0.00  0.00    +0.000 C 
ATOM     28  C   UNL     1      -4.174  16.022  22.568  0.00  0.00    +0.000 C 
ENDBRANCH  25  27
ENDBRANCH  24  25
ENDBRANCH  15  24
TORSDOF 6
ENDMDL
MODEL 8
REMARK VINA RESULT:      -6.6      0.735      1.033
REMARK  Name = 
REMARK  9 active torsions:
REMARK  status: ('A' for Active; 'I' for Inactive)
REMARK    1  A    between atoms: C_1  and  C_2
REMARK    2  A    between atoms: C_2  and  C_3
REMARK    3  A    between atoms: C_3  and  O_5
REMARK    4  A    between atoms: O_5  and  C_6
REMARK    5  A    between atoms: C_18  and  C_19
REMARK    6  A    between atoms: C_20  and  O_21
REMARK    7  A    between atoms: O_21  and  C_22
REMARK    8  A    between atoms: C_22  and  C_24
REMARK    9  A    between atoms: C_24  and  C_25
REMARK                            x       y       z     vdW  Elec       q    Type
REMARK                         _______ _______ _______ _____ _____    ______ ____
ROOT
ATOM      1  C   UNL     1       2.461   7.343  18.495  0.00  0.00    +0.000 A 
ATOM      2  C   UNL     1       1.990   8.340  17.647  0.00  0.00    +0.000 A 
ATOM      3  C   UNL     1       1.391   9.456  18.196  0.00  0.00    +0.000 A 
ATOM      4  C   UNL     1       1.179   9.537  19.577  0.00  0.00    +0.000 A 
ATOM      5  C   UNL     1       1.515   8.481  20.427  0.00  0.00    +0.000 A 
ATOM      6  C   UNL     1       2.210   7.391  19.876  0.00  0.00    +0.000 A 
ATOM      7  C   UNL     1       1.046   8.489  21.868  0.00  0.00    +0.000 C 
ATOM      8  C   UNL     1       0.083   9.641  22.305  0.00  0.00    +0.000 C 
ATOM      9  C   UNL     1      -0.564  10.407  21.124  0.00  0.00    +0.000 C 
ATOM     10  C   UNL     1       0.505  10.759  20.098  0.00  0.00    +0.000 C 
ATOM     11  C   UNL     1       1.459  11.791  20.686  0.00  0.00    +0.000 C 
ATOM     12  C   UNL     1       0.755  13.135  20.755  0.00  0.00    +0.000 C 
ATOM     13  C   UNL     1      -0.800  13.082  20.913  0.00  0.00    +0.000 C 
ATOM     14  C   UNL     1      -1.424  13.444  19.534  0.00  0.00    +0.000 C 
ATOM     15  C   UNL     1      -1.217  14.093  22.030  0.00  0.00    +0.000 C 
ATOM     16  C   UNL     1      -1.378  13.229  23.279  0.00  0.00    +0.000 C 
ATOM     17  C   UNL     1      -1.966  11.913  22.796  0.00  0.00    +0.000 C 
ATOM     18  C   UNL     1      -1.403  11.694  21.392  0.00  0.00    +0.000 C 
ENDROOT
BRANCH   1  19
ATOM     19  O   UNL     1       3.067   6.195  17.956  0.00  0.00    +0.000 OA
BRANCH  19  20
ATOM     20  C   UNL     1       2.388   4.984  18.111  0.00  0.00    +0.000 C 
ATOM     21  O   UNL     1       1.335   4.657  17.585  0.00  0.00    +0.000 OA
BRANCH  20  23
ATOM     22  C   UNL     1       4.674   4.267  18.883  0.00  0.00    +0.000 C 
ATOM     23  C   UNL     1       3.172   4.121  19.076  0.00  0.00    +0.000 C 
ENDBRANCH  20  23
ENDBRANCH  19  20
ENDBRANCH   1  19
BRANCH  15  24
ATOM     24  O   UNL     1      -2.453  14.764  21.735  0.00  0.00    +0.000 OA
BRANCH  24  25
ATOM     25  C   UNL     1      -2.748  15.792  22.591  0.00  0.00    +0.000 C 
ATOM     26  O   UNL     1      -1.938  16.593  23.043  0.00  0.00    +0.000 OA
BRANCH  25  27
ATOM     27  C   UNL     1      -4.229  15.825  22.870  0.00  0.00    +0.000 C 
ATOM     28  C   UNL     1      -4.625  14.786  23.909  0.00  0.00    +0.000 C 
ENDBRANCH  25  27
ENDBRANCH  24  25
ENDBRANCH  15  24
TORSDOF 6
ENDMDL
MODEL 9
REMARK VINA RESULT:      -6.5      1.039      1.330
REMARK  Name = 
REMARK  9 active torsions:
REMARK  status: ('A' for Active; 'I' for Inactive)
REMARK    1  A    between atoms: C_1  and  C_2
REMARK    2  A    between atoms: C_2  and  C_3
REMARK    3  A    between atoms: C_3  and  O_5
REMARK    4  A    between atoms: O_5  and  C_6
REMARK    5  A    between atoms: C_18  and  C_19
REMARK    6  A    between atoms: C_20  and  O_21
REMARK    7  A    between atoms: O_21  and  C_22
REMARK    8  A    between atoms: C_22  and  C_24
REMARK    9  A    between atoms: C_24  and  C_25
REMARK                            x       y       z     vdW  Elec       q    Type
REMARK                         _______ _______ _______ _____ _____    ______ ____
ROOT
ATOM      1  C   UNL     1       2.338   7.372  18.575  0.00  0.00    +0.000 A 
ATOM      2  C   UNL     1       1.821   8.338  17.719  0.00  0.00    +0.000 A 
ATOM      3  C   UNL     1       1.233   9.464  18.259  0.00  0.00    +0.000 A 
ATOM      4  C   UNL     1       1.076   9.583  19.645  0.00  0.00    +0.000 A 
ATOM      5  C   UNL     1       1.459   8.557  20.511  0.00  0.00    +0.000 A 
ATOM      6  C   UNL     1       2.143   7.458  19.963  0.00  0.00    +0.000 A 
ATOM      7  C   UNL     1       1.049   8.602  21.969  0.00  0.00    +0.000 C 
ATOM      8  C   UNL     1       0.092   9.757  22.411  0.00  0.00    +0.000 C 
ATOM      9  C   UNL     1      -0.611  10.481  21.237  0.00  0.00    +0.000 C 
ATOM     10  C   UNL     1       0.410  10.814  20.158  0.00  0.00    +0.000 C 
ATOM     11  C   UNL     1       1.377  11.872  20.676  0.00  0.00    +0.000 C 
ATOM     12  C   UNL     1       0.661  13.210  20.735  0.00  0.00    +0.000 C 
ATOM     13  C   UNL     1      -0.885  13.146  20.958  0.00  0.00    +0.000 C 
ATOM     14  C   UNL     1      -1.570  13.462  19.596  0.00  0.00    +0.000 C 
ATOM     15  C   UNL     1      -1.268  14.186  22.062  0.00  0.00    +0.000 C 
ATOM     16  C   UNL     1      -1.368  13.357  23.341  0.00  0.00    +0.000 C 
ATOM     17  C   UNL     1      -1.960  12.022  22.921  0.00  0.00    +0.000 C 
ATOM     18  C   UNL     1      -1.453  11.767  21.502  0.00  0.00    +0.000 C 
ENDROOT
BRANCH   1  19
ATOM     19  O   UNL     1       2.934   6.215  18.045  0.00  0.00    +0.000 OA
BRANCH  19  20
ATOM     20  C   UNL     1       4.310   6.262  17.803  0.00  0.00    +0.000 C 
ATOM     21  O   UNL     1       4.880   6.863  16.905  0.00  0.00    +0.000 OA
BRANCH  20  23
ATOM     22  C   UNL     1       4.208   4.164  19.189  0.00  0.00    +0.000 C 
ATOM     23  C   UNL     1       5.004   5.414  18.846  0.00  0.00    +0.000 C 
ENDBRANCH  20  23
ENDBRANCH  19  20
ENDBRANCH   1  19
BRANCH  15  24
ATOM     24  O   UNL     1      -2.523  14.835  21.799  0.00  0.00    +0.000 OA
BRANCH  24  25
ATOM     25  C   UNL     1      -2.956  15.643  22.817  0.00  0.00    +0.000 C 
ATOM     26  O   UNL     1      -2.379  16.646  23.221  0.00  0.00    +0.000 OA
BRANCH  25  27
ATOM     27  C   UNL     1      -4.276  15.144  23.347  0.00  0.00    +0.000 C 
ATOM     28  C   UNL     1      -5.141  14.564  22.238  0.00  0.00    +0.000 C 
ENDBRANCH  25  27
ENDBRANCH  24  25
ENDBRANCH  15  24
TORSDOF 6
ENDMDL
