MODEL 1
REMARK VINA RESULT:      -7.3      0.000      0.000
REMARK  Name = 
REMARK  3 active torsions:
REMARK  status: ('A' for Active; 'I' for Inactive)
REMARK    1  A    between atoms: C_1  and  C_2
REMARK    2  A    between atoms: C_2  and  O_3
REMARK    3  A    between atoms: C_13  and  C_14
REMARK                            x       y       z     vdW  Elec       q    Type
REMARK                         _______ _______ _______ _____ _____    ______ ____
ROOT
ATOM      1  C   UNL     1       0.443   3.395  20.560  0.00  0.00    +0.000 C 
ATOM      2  C   UNL     1       1.537   3.761  19.553  0.00  0.00    +0.000 C 
ATOM      3  C   UNL     1       2.918   3.816  20.237  0.00  0.00    +0.000 C 
ATOM      4  C   UNL     1       4.080   3.668  19.232  0.00  0.00    +0.000 C 
ATOM      5  C   UNL     1       4.472   2.194  18.997  0.00  0.00    +0.000 C 
ATOM      6  C   UNL     1       3.731   1.769  17.728  0.00  0.00    +0.000 C 
ATOM      7  C   UNL     1       2.802   2.954  17.433  0.00  0.00    +0.000 C 
ATOM      8  C   UNL     1       1.527   2.820  18.331  0.00  0.00    +0.000 C 
ATOM      9  N   UNL     1       3.581   4.117  17.907  0.00  0.00    +0.000 N 
ATOM     10  C   UNL     1       4.604   4.645  17.080  0.00  0.00    +0.000 A 
ATOM     11  C   UNL     1       5.273   5.748  17.572  0.00  0.00    +0.000 A 
ATOM     12  C   UNL     1       6.378   6.205  16.895  0.00  0.00    +0.000 A 
ATOM     13  N   UNL     1       6.728   5.690  15.706  0.00  0.00    +0.000 NA
ATOM     14  C   UNL     1       5.997   4.666  15.225  0.00  0.00    +0.000 A 
ATOM     15  N   UNL     1       6.412   4.124  14.017  0.00  0.00    +0.000 N 
ATOM     16  C   UNL     1       7.135   4.973  13.074  0.00  0.00    +0.000 C 
ATOM     17  C   UNL     1       6.766   4.213  11.791  0.00  0.00    +0.000 C 
ATOM     18  C   UNL     1       6.947   2.710  12.179  0.00  0.00    +0.000 C 
ATOM     19  C   UNL     1       5.806   3.106  13.205  0.00  0.00    +0.000 C 
ATOM     20  C   UNL     1       5.238   3.883  11.956  0.00  0.00    +0.000 C 
ATOM     21  N   UNL     1       4.952   4.116  15.893  0.00  0.00    +0.000 NA
ENDROOT
BRANCH  12  22
ATOM     22  C   UNL     1       7.246   7.220  17.493  0.00  0.00    +0.000 A 
ATOM     23  C   UNL     1       8.116   6.936  18.533  0.00  0.00    +0.000 A 
ATOM     24  N   UNL     1       8.851   7.844  19.203  0.00  0.00    +0.000 NA
ATOM     25  C   UNL     1       8.725   9.109  18.802  0.00  0.00    +0.000 A 
ATOM     26  N   UNL     1       9.401  10.061  19.532  0.00  0.00    +0.000 N 
ATOM     27  N   UNL     1       8.002   9.502  17.749  0.00  0.00    +0.000 NA
ATOM     28  C   UNL     1       7.280   8.544  17.115  0.00  0.00    +0.000 A 
ATOM     29  H   UNL     1      10.166   9.632  20.032  0.00  0.00    +0.000 HD
ATOM     30  H   UNL     1       9.600  10.866  18.959  0.00  0.00    +0.000 HD
ENDBRANCH  12  22
BRANCH   2  31
ATOM     31  O   UNL     1       1.221   5.086  19.090  0.00  0.00    +0.000 OA
ATOM     32  H   UNL     1       1.864   5.268  18.375  0.00  0.00    +0.000 HD
ENDBRANCH   2  31
TORSDOF 2
ENDMDL
MODEL 2
REMARK VINA RESULT:      -7.2      7.628     10.502
REMARK  Name = 
REMARK  3 active torsions:
REMARK  status: ('A' for Active; 'I' for Inactive)
REMARK    1  A    between atoms: C_1  and  C_2
REMARK    2  A    between atoms: C_2  and  O_3
REMARK    3  A    between atoms: C_13  and  C_14
REMARK                            x       y       z     vdW  Elec       q    Type
REMARK                         _______ _______ _______ _____ _____    ______ ____
ROOT
ATOM      1  C   UNL     1       4.223  16.708  18.631  0.00  0.00    +0.000 C 
ATOM      2  C   UNL     1       3.270  15.513  18.528  0.00  0.00    +0.000 C 
ATOM      3  C   UNL     1       3.552  14.488  19.644  0.00  0.00    +0.000 C 
ATOM      4  C   UNL     1       2.347  13.559  19.907  0.00  0.00    +0.000 C 
ATOM      5  C   UNL     1       1.373  14.139  20.955  0.00  0.00    +0.000 C 
ATOM      6  C   UNL     1       0.269  14.828  20.151  0.00  0.00    +0.000 C 
ATOM      7  C   UNL     1       0.784  14.782  18.707  0.00  0.00    +0.000 C 
ATOM      8  C   UNL     1       1.794  15.961  18.503  0.00  0.00    +0.000 C 
ATOM      9  N   UNL     1       1.540  13.513  18.662  0.00  0.00    +0.000 N 
ATOM     10  C   UNL     1       0.833  12.295  18.504  0.00  0.00    +0.000 A 
ATOM     11  C   UNL     1       1.602  11.151  18.441  0.00  0.00    +0.000 A 
ATOM     12  C   UNL     1       0.971   9.929  18.452  0.00  0.00    +0.000 A 
ATOM     13  N   UNL     1      -0.366   9.837  18.383  0.00  0.00    +0.000 NA
ATOM     14  C   UNL     1      -1.075  10.982  18.365  0.00  0.00    +0.000 A 
ATOM     15  N   UNL     1      -2.456  10.853  18.341  0.00  0.00    +0.000 N 
ATOM     16  C   UNL     1      -3.043   9.657  17.746  0.00  0.00    +0.000 C 
ATOM     17  C   UNL     1      -4.403  10.263  17.366  0.00  0.00    +0.000 C 
ATOM     18  C   UNL     1      -4.806  11.098  18.624  0.00  0.00    +0.000 C 
ATOM     19  C   UNL     1      -3.475  11.859  18.225  0.00  0.00    +0.000 C 
ATOM     20  C   UNL     1      -4.049  11.673  16.768  0.00  0.00    +0.000 C 
ATOM     21  N   UNL     1      -0.508  12.213  18.443  0.00  0.00    +0.000 NA
ENDROOT
BRANCH  12  22
ATOM     22  C   UNL     1       1.744   8.698  18.615  0.00  0.00    +0.000 A 
ATOM     23  C   UNL     1       1.668   7.917  19.756  0.00  0.00    +0.000 A 
ATOM     24  N   UNL     1       2.436   6.842  20.017  0.00  0.00    +0.000 NA
ATOM     25  C   UNL     1       3.322   6.514  19.076  0.00  0.00    +0.000 A 
ATOM     26  N   UNL     1       4.174   5.472  19.363  0.00  0.00    +0.000 N 
ATOM     27  N   UNL     1       3.425   7.119  17.889  0.00  0.00    +0.000 NA
ATOM     28  C   UNL     1       2.628   8.198  17.685  0.00  0.00    +0.000 A 
ATOM     29  H   UNL     1       3.773   4.887  20.082  0.00  0.00    +0.000 HD
ATOM     30  H   UNL     1       4.489   5.032  18.513  0.00  0.00    +0.000 HD
ENDBRANCH  12  22
BRANCH   2  31
ATOM     31  O   UNL     1       3.560  14.885  17.267  0.00  0.00    +0.000 OA
ATOM     32  H   UNL     1       3.932  14.009  17.497  0.00  0.00    +0.000 HD
ENDBRANCH   2  31
TORSDOF 2
ENDMDL
MODEL 3
REMARK VINA RESULT:      -7.2     10.914     13.205
REMARK  Name = 
REMARK  3 active torsions:
REMARK  status: ('A' for Active; 'I' for Inactive)
REMARK    1  A    between atoms: C_1  and  C_2
REMARK    2  A    between atoms: C_2  and  O_3
REMARK    3  A    between atoms: C_13  and  C_14
REMARK                            x       y       z     vdW  Elec       q    Type
REMARK                         _______ _______ _______ _____ _____    ______ ____
ROOT
ATOM      1  C   UNL     1       1.804   9.104  18.620  0.00  0.00    +0.000 C 
ATOM      2  C   UNL     1       0.634   9.921  19.174  0.00  0.00    +0.000 C 
ATOM      3  C   UNL     1       1.084  11.352  19.530  0.00  0.00    +0.000 C 
ATOM      4  C   UNL     1      -0.099  12.342  19.595  0.00  0.00    +0.000 C 
ATOM      5  C   UNL     1      -0.404  12.987  18.226  0.00  0.00    +0.000 C 
ATOM      6  C   UNL     1      -1.538  12.156  17.624  0.00  0.00    +0.000 C 
ATOM      7  C   UNL     1      -1.669  10.967  18.584  0.00  0.00    +0.000 C 
ATOM      8  C   UNL     1      -0.576   9.909  18.217  0.00  0.00    +0.000 C 
ATOM      9  N   UNL     1      -1.322  11.555  19.895  0.00  0.00    +0.000 N 
ATOM     10  C   UNL     1      -2.302  12.299  20.598  0.00  0.00    +0.000 A 
ATOM     11  C   UNL     1      -1.919  12.796  21.828  0.00  0.00    +0.000 A 
ATOM     12  C   UNL     1      -2.766  13.659  22.483  0.00  0.00    +0.000 A 
ATOM     13  N   UNL     1      -3.999  13.910  22.017  0.00  0.00    +0.000 NA
ATOM     14  C   UNL     1      -4.359  13.340  20.852  0.00  0.00    +0.000 A 
ATOM     15  N   UNL     1      -5.622  13.658  20.373  0.00  0.00    +0.000 N 
ATOM     16  C   UNL     1      -6.666  14.027  21.325  0.00  0.00    +0.000 C 
ATOM     17  C   UNL     1      -7.876  13.621  20.470  0.00  0.00    +0.000 C 
ATOM     18  C   UNL     1      -7.531  14.170  19.048  0.00  0.00    +0.000 C 
ATOM     19  C   UNL     1      -6.330  13.152  19.231  0.00  0.00    +0.000 C 
ATOM     20  C   UNL     1      -7.465  12.241  19.839  0.00  0.00    +0.000 C 
ATOM     21  N   UNL     1      -3.533  12.553  20.119  0.00  0.00    +0.000 NA
ENDROOT
BRANCH  12  22
ATOM     22  C   UNL     1      -2.311  14.382  23.670  0.00  0.00    +0.000 A 
ATOM     23  C   UNL     1      -1.043  14.930  23.768  0.00  0.00    +0.000 A 
ATOM     24  N   UNL     1      -0.524  15.502  24.871  0.00  0.00    +0.000 NA
ATOM     25  C   UNL     1      -1.323  15.547  25.937  0.00  0.00    +0.000 A 
ATOM     26  N   UNL     1      -0.780  16.049  27.098  0.00  0.00    +0.000 N 
ATOM     27  N   UNL     1      -2.599  15.150  25.945  0.00  0.00    +0.000 NA
ATOM     28  C   UNL     1      -3.065  14.579  24.805  0.00  0.00    +0.000 A 
ATOM     29  H   UNL     1       0.015  16.632  26.882  0.00  0.00    +0.000 HD
ATOM     30  H   UNL     1      -1.504  16.431  27.687  0.00  0.00    +0.000 HD
ENDBRANCH  12  22
BRANCH   2  31
ATOM     31  O   UNL     1       0.237   9.267  20.392  0.00  0.00    +0.000 OA
ATOM     32  H   UNL     1      -0.713   9.479  20.498  0.00  0.00    +0.000 HD
ENDBRANCH   2  31
TORSDOF 2
ENDMDL
MODEL 4
REMARK VINA RESULT:      -6.9      7.700     10.425
REMARK  Name = 
REMARK  3 active torsions:
REMARK  status: ('A' for Active; 'I' for Inactive)
REMARK    1  A    between atoms: C_1  and  C_2
REMARK    2  A    between atoms: C_2  and  O_3
REMARK    3  A    between atoms: C_13  and  C_14
REMARK                            x       y       z     vdW  Elec       q    Type
REMARK                         _______ _______ _______ _____ _____    ______ ____
ROOT
ATOM      1  C   UNL     1       3.929  16.720  19.839  0.00  0.00    +0.000 C 
ATOM      2  C   UNL     1       3.052  15.513  19.494  0.00  0.00    +0.000 C 
ATOM      3  C   UNL     1       3.213  14.398  20.547  0.00  0.00    +0.000 C 
ATOM      4  C   UNL     1       2.022  13.415  20.550  0.00  0.00    +0.000 C 
ATOM      5  C   UNL     1       0.884  13.870  21.488  0.00  0.00    +0.000 C 
ATOM      6  C   UNL     1      -0.120  14.597  20.594  0.00  0.00    +0.000 C 
ATOM      7  C   UNL     1       0.599  14.698  19.243  0.00  0.00    +0.000 C 
ATOM      8  C   UNL     1       1.578  15.919  19.291  0.00  0.00    +0.000 C 
ATOM      9  N   UNL     1       1.406  13.460  19.200  0.00  0.00    +0.000 N 
ATOM     10  C   UNL     1       0.779  12.242  18.835  0.00  0.00    +0.000 A 
ATOM     11  C   UNL     1       1.597  11.131  18.788  0.00  0.00    +0.000 A 
ATOM     12  C   UNL     1       1.022   9.896  18.601  0.00  0.00    +0.000 A 
ATOM     13  N   UNL     1      -0.286   9.772  18.328  0.00  0.00    +0.000 NA
ATOM     14  C   UNL     1      -1.032  10.893  18.305  0.00  0.00    +0.000 A 
ATOM     15  N   UNL     1      -2.389  10.728  18.068  0.00  0.00    +0.000 N 
ATOM     16  C   UNL     1      -2.834   9.574  17.292  0.00  0.00    +0.000 C 
ATOM     17  C   UNL     1      -4.149  10.174  16.769  0.00  0.00    +0.000 C 
ATOM     18  C   UNL     1      -4.764  10.878  18.022  0.00  0.00    +0.000 C 
ATOM     19  C   UNL     1      -3.422  11.710  17.890  0.00  0.00    +0.000 C 
ATOM     20  C   UNL     1      -3.772  11.642  16.354  0.00  0.00    +0.000 C 
ATOM     21  N   UNL     1      -0.534  12.127  18.571  0.00  0.00    +0.000 NA
ENDROOT
BRANCH  12  22
ATOM     22  C   UNL     1       1.814   8.677  18.769  0.00  0.00    +0.000 A 
ATOM     23  C   UNL     1       2.668   8.204  17.787  0.00  0.00    +0.000 A 
ATOM     24  N   UNL     1       3.332   7.033  17.831  0.00  0.00    +0.000 NA
ATOM     25  C   UNL     1       3.147   6.297  18.926  0.00  0.00    +0.000 A 
ATOM     26  N   UNL     1       3.748   5.058  18.950  0.00  0.00    +0.000 N 
ATOM     27  N   UNL     1       2.434   6.684  19.988  0.00  0.00    +0.000 NA
ATOM     28  C   UNL     1       1.785   7.871  19.885  0.00  0.00    +0.000 A 
ATOM     29  H   UNL     1       4.521   5.038  18.301  0.00  0.00    +0.000 HD
ATOM     30  H   UNL     1       3.918   4.769  19.901  0.00  0.00    +0.000 HD
ENDBRANCH  12  22
BRANCH   2  31
ATOM     31  O   UNL     1       3.547  15.011  18.240  0.00  0.00    +0.000 OA
ATOM     32  H   UNL     1       4.328  15.563  18.034  0.00  0.00    +0.000 HD
ENDBRANCH   2  31
TORSDOF 2
ENDMDL
MODEL 5
REMARK VINA RESULT:      -6.7      9.036     12.281
REMARK  Name = 
REMARK  3 active torsions:
REMARK  status: ('A' for Active; 'I' for Inactive)
REMARK    1  A    between atoms: C_1  and  C_2
REMARK    2  A    between atoms: C_2  and  O_3
REMARK    3  A    between atoms: C_13  and  C_14
REMARK                            x       y       z     vdW  Elec       q    Type
REMARK                         _______ _______ _______ _____ _____    ______ ____
ROOT
ATOM      1  C   UNL     1      12.333  13.095  16.503  0.00  0.00    +0.000 C 
ATOM      2  C   UNL     1      11.285  13.341  17.591  0.00  0.00    +0.000 C 
ATOM      3  C   UNL     1       9.885  12.905  17.114  0.00  0.00    +0.000 C 
ATOM      4  C   UNL     1       8.917  12.646  18.289  0.00  0.00    +0.000 C 
ATOM      5  C   UNL     1       8.983  11.191  18.798  0.00  0.00    +0.000 C 
ATOM      6  C   UNL     1       9.935  11.218  19.995  0.00  0.00    +0.000 C 
ATOM      7  C   UNL     1      10.515  12.637  19.970  0.00  0.00    +0.000 C 
ATOM      8  C   UNL     1      11.681  12.678  18.927  0.00  0.00    +0.000 C 
ATOM      9  N   UNL     1       9.396  13.447  19.444  0.00  0.00    +0.000 N 
ATOM     10  C   UNL     1       8.352  13.832  20.322  0.00  0.00    +0.000 A 
ATOM     11  C   UNL     1       7.353  14.611  19.772  0.00  0.00    +0.000 A 
ATOM     12  C   UNL     1       6.236  14.880  20.526  0.00  0.00    +0.000 A 
ATOM     13  N   UNL     1       6.165  14.521  21.817  0.00  0.00    +0.000 NA
ATOM     14  C   UNL     1       7.199  13.831  22.335  0.00  0.00    +0.000 A 
ATOM     15  N   UNL     1       7.075  13.432  23.658  0.00  0.00    +0.000 N 
ATOM     16  C   UNL     1       6.238  14.221  24.558  0.00  0.00    +0.000 C 
ATOM     17  C   UNL     1       6.931  13.835  25.874  0.00  0.00    +0.000 C 
ATOM     18  C   UNL     1       7.145  12.293  25.746  0.00  0.00    +0.000 C 
ATOM     19  C   UNL     1       8.021  12.777  24.517  0.00  0.00    +0.000 C 
ATOM     20  C   UNL     1       8.466  13.893  25.539  0.00  0.00    +0.000 C 
ATOM     21  N   UNL     1       8.286  13.460  21.612  0.00  0.00    +0.000 NA
ENDROOT
BRANCH  12  22
ATOM     22  C   UNL     1       5.062  15.503  19.914  0.00  0.00    +0.000 A 
ATOM     23  C   UNL     1       4.382  14.929  18.853  0.00  0.00    +0.000 A 
ATOM     24  N   UNL     1       3.373  15.503  18.171  0.00  0.00    +0.000 NA
ATOM     25  C   UNL     1       3.007  16.717  18.583  0.00  0.00    +0.000 A 
ATOM     26  N   UNL     1       2.037  17.356  17.843  0.00  0.00    +0.000 N 
ATOM     27  N   UNL     1       3.508  17.338  19.654  0.00  0.00    +0.000 NA
ATOM     28  C   UNL     1       4.525  16.711  20.299  0.00  0.00    +0.000 A 
ATOM     29  H   UNL     1       1.498  16.678  17.323  0.00  0.00    +0.000 HD
ATOM     30  H   UNL     1       1.539  18.019  18.417  0.00  0.00    +0.000 HD
ENDBRANCH  12  22
BRANCH   2  31
ATOM     31  O   UNL     1      11.257  14.764  17.798  0.00  0.00    +0.000 OA
ATOM     32  H   UNL     1      10.429  14.935  18.292  0.00  0.00    +0.000 HD
ENDBRANCH   2  31
TORSDOF 2
ENDMDL
MODEL 6
REMARK VINA RESULT:      -6.6     10.757     13.331
REMARK  Name = 
REMARK  3 active torsions:
REMARK  status: ('A' for Active; 'I' for Inactive)
REMARK    1  A    between atoms: C_1  and  C_2
REMARK    2  A    between atoms: C_2  and  O_3
REMARK    3  A    between atoms: C_13  and  C_14
REMARK                            x       y       z     vdW  Elec       q    Type
REMARK                         _______ _______ _______ _____ _____    ______ ____
ROOT
ATOM      1  C   UNL     1       3.090  16.510  21.963  0.00  0.00    +0.000 C 
ATOM      2  C   UNL     1       1.918  15.642  21.496  0.00  0.00    +0.000 C 
ATOM      3  C   UNL     1       0.582  16.398  21.641  0.00  0.00    +0.000 C 
ATOM      4  C   UNL     1      -0.528  15.811  20.742  0.00  0.00    +0.000 C 
ATOM      5  C   UNL     1      -0.545  16.447  19.336  0.00  0.00    +0.000 C 
ATOM      6  C   UNL     1       0.251  15.492  18.444  0.00  0.00    +0.000 C 
ATOM      7  C   UNL     1       0.849  14.483  19.431  0.00  0.00    +0.000 C 
ATOM      8  C   UNL     1       2.136  15.110  20.064  0.00  0.00    +0.000 C 
ATOM      9  N   UNL     1      -0.185  14.390  20.484  0.00  0.00    +0.000 N 
ATOM     10  C   UNL     1      -1.324  13.577  20.260  0.00  0.00    +0.000 A 
ATOM     11  C   UNL     1      -2.236  13.513  21.295  0.00  0.00    +0.000 A 
ATOM     12  C   UNL     1      -3.435  12.876  21.080  0.00  0.00    +0.000 A 
ATOM     13  N   UNL     1      -3.670  12.203  19.943  0.00  0.00    +0.000 NA
ATOM     14  C   UNL     1      -2.718  12.225  18.991  0.00  0.00    +0.000 A 
ATOM     15  N   UNL     1      -3.011  11.560  17.808  0.00  0.00    +0.000 N 
ATOM     16  C   UNL     1      -3.942  10.437  17.842  0.00  0.00    +0.000 C 
ATOM     17  C   UNL     1      -3.422   9.703  16.596  0.00  0.00    +0.000 C 
ATOM     18  C   UNL     1      -3.216  10.844  15.549  0.00  0.00    +0.000 C 
ATOM     19  C   UNL     1      -2.188  11.321  16.656  0.00  0.00    +0.000 C 
ATOM     20  C   UNL     1      -1.857   9.780  16.720  0.00  0.00    +0.000 C 
ATOM     21  N   UNL     1      -1.555  12.913  19.114  0.00  0.00    +0.000 NA
ENDROOT
BRANCH  12  22
ATOM     22  C   UNL     1      -4.515  12.978  22.062  0.00  0.00    +0.000 A 
ATOM     23  C   UNL     1      -5.831  13.210  21.699  0.00  0.00    +0.000 A 
ATOM     24  N   UNL     1      -6.847  13.431  22.554  0.00  0.00    +0.000 NA
ATOM     25  C   UNL     1      -6.537  13.403  23.850  0.00  0.00    +0.000 A 
ATOM     26  N   UNL     1      -7.545  13.713  24.735  0.00  0.00    +0.000 N 
ATOM     27  N   UNL     1      -5.332  13.089  24.334  0.00  0.00    +0.000 NA
ATOM     28  C   UNL     1      -4.347  12.879  23.425  0.00  0.00    +0.000 A 
ATOM     29  H   UNL     1      -8.444  13.566  24.299  0.00  0.00    +0.000 HD
ATOM     30  H   UNL     1      -7.373  13.278  25.629  0.00  0.00    +0.000 HD
ENDBRANCH  12  22
BRANCH   2  31
ATOM     31  O   UNL     1       1.885  14.512  22.384  0.00  0.00    +0.000 OA
ATOM     32  H   UNL     1       1.036  14.062  22.195  0.00  0.00    +0.000 HD
ENDBRANCH   2  31
TORSDOF 2
ENDMDL
MODEL 7
REMARK VINA RESULT:      -6.6     10.691     12.993
REMARK  Name = 
REMARK  3 active torsions:
REMARK  status: ('A' for Active; 'I' for Inactive)
REMARK    1  A    between atoms: C_1  and  C_2
REMARK    2  A    between atoms: C_2  and  O_3
REMARK    3  A    between atoms: C_13  and  C_14
REMARK                            x       y       z     vdW  Elec       q    Type
REMARK                         _______ _______ _______ _____ _____    ______ ____
ROOT
ATOM      1  C   UNL     1      -7.595  13.651  24.223  0.00  0.00    +0.000 C 
ATOM      2  C   UNL     1      -6.260  13.787  23.487  0.00  0.00    +0.000 C 
ATOM      3  C   UNL     1      -6.012  12.574  22.569  0.00  0.00    +0.000 C 
ATOM      4  C   UNL     1      -4.989  12.878  21.453  0.00  0.00    +0.000 C 
ATOM      5  C   UNL     1      -5.653  13.455  20.185  0.00  0.00    +0.000 C 
ATOM      6  C   UNL     1      -5.510  14.973  20.301  0.00  0.00    +0.000 C 
ATOM      7  C   UNL     1      -4.964  15.181  21.719  0.00  0.00    +0.000 C 
ATOM      8  C   UNL     1      -6.161  15.126  22.726  0.00  0.00    +0.000 C 
ATOM      9  N   UNL     1      -4.124  13.984  21.934  0.00  0.00    +0.000 N 
ATOM     10  C   UNL     1      -2.820  13.949  21.379  0.00  0.00    +0.000 A 
ATOM     11  C   UNL     1      -2.080  12.814  21.642  0.00  0.00    +0.000 A 
ATOM     12  C   UNL     1      -0.875  12.648  21.001  0.00  0.00    +0.000 A 
ATOM     13  N   UNL     1      -0.351  13.624  20.243  0.00  0.00    +0.000 NA
ATOM     14  C   UNL     1      -1.073  14.749  20.079  0.00  0.00    +0.000 A 
ATOM     15  N   UNL     1      -0.526  15.719  19.252  0.00  0.00    +0.000 N 
ATOM     16  C   UNL     1       0.926  15.792  19.113  0.00  0.00    +0.000 C 
ATOM     17  C   UNL     1       1.021  17.278  18.732  0.00  0.00    +0.000 C 
ATOM     18  C   UNL     1      -0.129  17.472  17.692  0.00  0.00    +0.000 C 
ATOM     19  C   UNL     1      -0.990  17.045  18.952  0.00  0.00    +0.000 C 
ATOM     20  C   UNL     1       0.017  17.996  19.705  0.00  0.00    +0.000 C 
ATOM     21  N   UNL     1      -2.307  14.929  20.615  0.00  0.00    +0.000 NA
ENDROOT
BRANCH  12  22
ATOM     22  C   UNL     1      -0.168  11.369  21.071  0.00  0.00    +0.000 A 
ATOM     23  C   UNL     1       0.490  10.822  19.983  0.00  0.00    +0.000 A 
ATOM     24  N   UNL     1       1.056   9.600  19.948  0.00  0.00    +0.000 NA
ATOM     25  C   UNL     1       0.977   8.888  21.072  0.00  0.00    +0.000 A 
ATOM     26  N   UNL     1       1.473   7.604  21.028  0.00  0.00    +0.000 N 
ATOM     27  N   UNL     1       0.464   9.338  22.220  0.00  0.00    +0.000 NA
ATOM     28  C   UNL     1      -0.095  10.574  22.193  0.00  0.00    +0.000 A 
ATOM     29  H   UNL     1       2.137   7.517  20.273  0.00  0.00    +0.000 HD
ATOM     30  H   UNL     1       1.758   7.307  21.949  0.00  0.00    +0.000 HD
ENDBRANCH  12  22
BRANCH   2  31
ATOM     31  O   UNL     1      -5.245  13.785  24.505  0.00  0.00    +0.000 OA
ATOM     32  H   UNL     1      -4.484  13.314  24.108  0.00  0.00    +0.000 HD
ENDBRANCH   2  31
TORSDOF 2
ENDMDL
MODEL 8
REMARK VINA RESULT:      -6.5     10.243     12.928
REMARK  Name = 
REMARK  3 active torsions:
REMARK  status: ('A' for Active; 'I' for Inactive)
REMARK    1  A    between atoms: C_1  and  C_2
REMARK    2  A    between atoms: C_2  and  O_3
REMARK    3  A    between atoms: C_13  and  C_14
REMARK                            x       y       z     vdW  Elec       q    Type
REMARK                         _______ _______ _______ _____ _____    ______ ____
ROOT
ATOM      1  C   UNL     1      -7.267  13.179  24.167  0.00  0.00    +0.000 C 
ATOM      2  C   UNL     1      -5.788  13.299  23.788  0.00  0.00    +0.000 C 
ATOM      3  C   UNL     1      -5.506  12.600  22.443  0.00  0.00    +0.000 C 
ATOM      4  C   UNL     1      -4.211  13.109  21.775  0.00  0.00    +0.000 C 
ATOM      5  C   UNL     1      -4.458  14.331  20.865  0.00  0.00    +0.000 C 
ATOM      6  C   UNL     1      -4.128  15.554  21.722  0.00  0.00    +0.000 C 
ATOM      7  C   UNL     1      -3.915  14.971  23.125  0.00  0.00    +0.000 C 
ATOM      8  C   UNL     1      -5.314  14.767  23.795  0.00  0.00    +0.000 C 
ATOM      9  N   UNL     1      -3.335  13.640  22.850  0.00  0.00    +0.000 N 
ATOM     10  C   UNL     1      -1.956  13.539  22.541  0.00  0.00    +0.000 A 
ATOM     11  C   UNL     1      -1.474  12.264  22.323  0.00  0.00    +0.000 A 
ATOM     12  C   UNL     1      -0.188  12.113  21.862  0.00  0.00    +0.000 A 
ATOM     13  N   UNL     1       0.640  13.164  21.757  0.00  0.00    +0.000 NA
ATOM     14  C   UNL     1       0.151  14.382  22.057  0.00  0.00    +0.000 A 
ATOM     15  N   UNL     1       1.017  15.454  21.892  0.00  0.00    +0.000 N 
ATOM     16  C   UNL     1       2.453  15.226  22.015  0.00  0.00    +0.000 C 
ATOM     17  C   UNL     1       2.853  16.654  22.420  0.00  0.00    +0.000 C 
ATOM     18  C   UNL     1       2.029  17.562  21.451  0.00  0.00    +0.000 C 
ATOM     19  C   UNL     1       0.837  16.843  22.208  0.00  0.00    +0.000 C 
ATOM     20  C   UNL     1       1.760  17.085  23.464  0.00  0.00    +0.000 C 
ATOM     21  N   UNL     1      -1.136  14.599  22.430  0.00  0.00    +0.000 NA
ENDROOT
BRANCH  12  22
ATOM     22  C   UNL     1       0.287  10.807  21.405  0.00  0.00    +0.000 A 
ATOM     23  C   UNL     1       0.522   9.755  22.274  0.00  0.00    +0.000 A 
ATOM     24  N   UNL     1       1.068   8.572  21.934  0.00  0.00    +0.000 NA
ATOM     25  C   UNL     1       1.383   8.421  20.648  0.00  0.00    +0.000 A 
ATOM     26  N   UNL     1       2.023   7.253  20.299  0.00  0.00    +0.000 N 
ATOM     27  N   UNL     1       1.114   9.315  19.692  0.00  0.00    +0.000 NA
ATOM     28  C   UNL     1       0.567  10.490  20.095  0.00  0.00    +0.000 A 
ATOM     29  H   UNL     1       1.838   6.540  20.989  0.00  0.00    +0.000 HD
ATOM     30  H   UNL     1       1.847   7.033  19.330  0.00  0.00    +0.000 HD
ENDBRANCH  12  22
BRANCH   2  31
ATOM     31  O   UNL     1      -5.060  12.598  24.812  0.00  0.00    +0.000 OA
ATOM     32  H   UNL     1      -4.538  13.287  25.271  0.00  0.00    +0.000 HD
ENDBRANCH   2  31
TORSDOF 2
ENDMDL
MODEL 9
REMARK VINA RESULT:      -6.4     10.004     11.631
REMARK  Name = 
REMARK  3 active torsions:
REMARK  status: ('A' for Active; 'I' for Inactive)
REMARK    1  A    between atoms: C_1  and  C_2
REMARK    2  A    between atoms: C_2  and  O_3
REMARK    3  A    between atoms: C_13  and  C_14
REMARK                            x       y       z     vdW  Elec       q    Type
REMARK                         _______ _______ _______ _____ _____    ______ ____
ROOT
ATOM      1  C   UNL     1      -3.270  16.257  25.349  0.00  0.00    +0.000 C 
ATOM      2  C   UNL     1      -2.922  15.592  24.015  0.00  0.00    +0.000 C 
ATOM      3  C   UNL     1      -1.505  14.986  24.055  0.00  0.00    +0.000 C 
ATOM      4  C   UNL     1      -1.300  13.895  22.982  0.00  0.00    +0.000 C 
ATOM      5  C   UNL     1      -1.702  12.492  23.483  0.00  0.00    +0.000 C 
ATOM      6  C   UNL     1      -3.132  12.273  22.986  0.00  0.00    +0.000 C 
ATOM      7  C   UNL     1      -3.534  13.639  22.414  0.00  0.00    +0.000 C 
ATOM      8  C   UNL     1      -3.989  14.558  23.597  0.00  0.00    +0.000 C 
ATOM      9  N   UNL     1      -2.259  14.167  21.883  0.00  0.00    +0.000 N 
ATOM     10  C   UNL     1      -1.799  13.715  20.621  0.00  0.00    +0.000 A 
ATOM     11  C   UNL     1      -0.618  14.270  20.172  0.00  0.00    +0.000 A 
ATOM     12  C   UNL     1      -0.037  13.756  19.036  0.00  0.00    +0.000 A 
ATOM     13  N   UNL     1      -0.664  12.833  18.292  0.00  0.00    +0.000 NA
ATOM     14  C   UNL     1      -1.854  12.377  18.726  0.00  0.00    +0.000 A 
ATOM     15  N   UNL     1      -2.455  11.388  17.960  0.00  0.00    +0.000 N 
ATOM     16  C   UNL     1      -2.159  11.325  16.532  0.00  0.00    +0.000 C 
ATOM     17  C   UNL     1      -3.453  10.627  16.085  0.00  0.00    +0.000 C 
ATOM     18  C   UNL     1      -3.658   9.502  17.150  0.00  0.00    +0.000 C 
ATOM     19  C   UNL     1      -3.744  10.771  18.096  0.00  0.00    +0.000 C 
ATOM     20  C   UNL     1      -4.588  11.351  16.897  0.00  0.00    +0.000 C 
ATOM     21  N   UNL     1      -2.431  12.783  19.886  0.00  0.00    +0.000 NA
ENDROOT
BRANCH  12  22
ATOM     22  C   UNL     1       1.318  14.155  18.652  0.00  0.00    +0.000 A 
ATOM     23  C   UNL     1       2.304  13.234  18.342  0.00  0.00    +0.000 A 
ATOM     24  N   UNL     1       3.595  13.528  18.098  0.00  0.00    +0.000 NA
ATOM     25  C   UNL     1       3.920  14.820  18.147  0.00  0.00    +0.000 A 
ATOM     26  N   UNL     1       5.251  15.132  17.987  0.00  0.00    +0.000 N 
ATOM     27  N   UNL     1       3.047  15.814  18.333  0.00  0.00    +0.000 NA
ATOM     28  C   UNL     1       1.761  15.456  18.578  0.00  0.00    +0.000 A 
ATOM     29  H   UNL     1       5.724  14.382  17.503  0.00  0.00    +0.000 HD
ATOM     30  H   UNL     1       5.351  16.068  17.625  0.00  0.00    +0.000 HD
ENDBRANCH  12  22
BRANCH   2  31
ATOM     31  O   UNL     1      -2.924  16.645  23.035  0.00  0.00    +0.000 OA
ATOM     32  H   UNL     1      -3.629  17.261  23.323  0.00  0.00    +0.000 HD
ENDBRANCH   2  31
TORSDOF 2
ENDMDL
