MODEL 1
REMARK VINA RESULT:      -8.0      0.000      0.000
REMARK  Name = 
REMARK  11 active torsions:
REMARK  status: ('A' for Active; 'I' for Inactive)
REMARK    1  A    between atoms: C_1  and  O_2
REMARK    2  A    between atoms: O_2  and  C_3
REMARK    3  A    between atoms: C_5  and  C_6
REMARK    4  A    between atoms: C_9  and  S_10
REMARK    5  A    between atoms: S_10  and  C_13
REMARK    6  A    between atoms: C_13  and  C_14
REMARK    7  A    between atoms: C_17  and  N_18
REMARK    8  A    between atoms: C_25  and  O_26
REMARK    9  A    between atoms: O_26  and  C_27
REMARK   10  A    between atoms: C_28  and  O_29
REMARK   11  A    between atoms: O_29  and  C_30
REMARK                            x       y       z     vdW  Elec       q    Type
REMARK                         _______ _______ _______ _____ _____    ______ ____
ROOT
ATOM      1  C   UNL     1       8.518   8.927  18.125  0.00  0.00    +0.000 A 
ATOM      2  N   UNL     1       7.856   8.802  16.991  0.00  0.00    +0.000 NA
ATOM      3  N   UNL     1       7.346   7.519  16.966  0.00  0.00    +0.000 NA
ATOM      4  C   UNL     1       7.726   6.936  18.092  0.00  0.00    +0.000 A 
ATOM      5  O   UNL     1       8.490   7.781  18.872  0.00  0.00    +0.000 OA
ENDROOT
BRANCH   1   8
ATOM      6  C   UNL     1       9.570  11.447  20.722  0.00  0.00    +0.000 A 
ATOM      7  C   UNL     1       8.846  10.450  20.041  0.00  0.00    +0.000 A 
ATOM      8  C   UNL     1       9.140  10.108  18.719  0.00  0.00    +0.000 A 
ATOM      9  C   UNL     1      10.090  10.878  18.047  0.00  0.00    +0.000 A 
ATOM     10  C   UNL     1      10.758  11.946  18.676  0.00  0.00    +0.000 A 
ATOM     11  C   UNL     1      10.507  12.245  20.034  0.00  0.00    +0.000 A 
BRANCH   6  13
ATOM     12  C   UNL     1       8.116  12.311  22.382  0.00  0.00    +0.000 C 
ATOM     13  O   UNL     1       9.344  11.649  22.062  0.00  0.00    +0.000 OA
ENDBRANCH   6  13
BRANCH  10  14
ATOM     14  O   UNL     1      11.638  12.554  17.812  0.00  0.00    +0.000 OA
ATOM     15  C   UNL     1      11.147  13.340  16.736  0.00  0.00    +0.000 C 
ENDBRANCH  10  14
BRANCH  11  16
ATOM     16  O   UNL     1      11.222  13.286  20.557  0.00  0.00    +0.000 OA
ATOM     17  C   UNL     1      10.720  14.610  20.560  0.00  0.00    +0.000 C 
ENDBRANCH  11  16
ENDBRANCH   1   8
BRANCH   4  18
ATOM     18  S   UNL     1       7.289   5.284  18.567  0.00  0.00    +0.000 S 
ATOM     19  O   UNL     1       8.388   4.457  18.104  0.00  0.00    +0.000 OA
ATOM     20  O   UNL     1       6.933   5.380  19.972  0.00  0.00    +0.000 OA
BRANCH  18  21
ATOM     21  C   UNL     1       5.823   4.934  17.600  0.00  0.00    +0.000 C 
BRANCH  21  22
ATOM     22  C   UNL     1       4.730   4.429  18.519  0.00  0.00    +0.000 A 
ATOM     23  C   UNL     1       3.820   5.328  19.102  0.00  0.00    +0.000 A 
ATOM     24  C   UNL     1       2.818   4.871  19.965  0.00  0.00    +0.000 A 
ATOM     25  C   UNL     1       2.720   3.506  20.250  0.00  0.00    +0.000 A 
ATOM     26  C   UNL     1       3.619   2.596  19.680  0.00  0.00    +0.000 A 
ATOM     27  C   UNL     1       4.620   3.063  18.818  0.00  0.00    +0.000 A 
BRANCH  25  28
ATOM     28  N   UNL     1       1.673   3.031  21.160  0.00  0.00    +0.000 N 
ATOM     29  O   UNL     1       1.946   2.941  22.367  0.00  0.00    +0.000 OA
ATOM     30  O   UNL     1       0.569   2.754  20.673  0.00  0.00    +0.000 OA
ENDBRANCH  25  28
ENDBRANCH  21  22
ENDBRANCH  18  21
ENDBRANCH   4  18
TORSDOF 8
ENDMDL
MODEL 2
REMARK VINA RESULT:      -8.0      0.434      2.402
REMARK  Name = 
REMARK  11 active torsions:
REMARK  status: ('A' for Active; 'I' for Inactive)
REMARK    1  A    between atoms: C_1  and  O_2
REMARK    2  A    between atoms: O_2  and  C_3
REMARK    3  A    between atoms: C_5  and  C_6
REMARK    4  A    between atoms: C_9  and  S_10
REMARK    5  A    between atoms: S_10  and  C_13
REMARK    6  A    between atoms: C_13  and  C_14
REMARK    7  A    between atoms: C_17  and  N_18
REMARK    8  A    between atoms: C_25  and  O_26
REMARK    9  A    between atoms: O_26  and  C_27
REMARK   10  A    between atoms: C_28  and  O_29
REMARK   11  A    between atoms: O_29  and  C_30
REMARK                            x       y       z     vdW  Elec       q    Type
REMARK                         _______ _______ _______ _____ _____    ______ ____
ROOT
ATOM      1  C   UNL     1       8.623   9.137  18.261  0.00  0.00    +0.000 A 
ATOM      2  N   UNL     1       7.839   9.147  17.200  0.00  0.00    +0.000 NA
ATOM      3  N   UNL     1       7.263   7.895  17.117  0.00  0.00    +0.000 NA
ATOM      4  C   UNL     1       7.728   7.193  18.139  0.00  0.00    +0.000 A 
ATOM      5  O   UNL     1       8.613   7.928  18.902  0.00  0.00    +0.000 OA
ENDROOT
BRANCH   1   8
ATOM      6  C   UNL     1      11.065  11.977  18.673  0.00  0.00    +0.000 A 
ATOM      7  C   UNL     1      10.451  10.796  18.215  0.00  0.00    +0.000 A 
ATOM      8  C   UNL     1       9.365  10.229  18.885  0.00  0.00    +0.000 A 
ATOM      9  C   UNL     1       8.988  10.797  20.102  0.00  0.00    +0.000 A 
ATOM     10  C   UNL     1       9.651  11.921  20.634  0.00  0.00    +0.000 A 
ATOM     11  C   UNL     1      10.704  12.533  19.918  0.00  0.00    +0.000 A 
BRANCH   6  13
ATOM     12  C   UNL     1      11.545  13.361  16.811  0.00  0.00    +0.000 C 
ATOM     13  O   UNL     1      12.033  12.576  17.904  0.00  0.00    +0.000 OA
ENDBRANCH   6  13
BRANCH  10  14
ATOM     14  O   UNL     1       9.105  12.291  21.840  0.00  0.00    +0.000 OA
ATOM     15  C   UNL     1       8.409  11.335  22.627  0.00  0.00    +0.000 C 
ENDBRANCH  10  14
BRANCH  11  16
ATOM     16  O   UNL     1      11.268  13.629  20.508  0.00  0.00    +0.000 OA
ATOM     17  C   UNL     1      10.848  14.945  20.196  0.00  0.00    +0.000 C 
ENDBRANCH  11  16
ENDBRANCH   1   8
BRANCH   4  18
ATOM     18  S   UNL     1       7.256   5.524  18.511  0.00  0.00    +0.000 S 
ATOM     19  O   UNL     1       8.256   4.698  17.859  0.00  0.00    +0.000 OA
ATOM     20  O   UNL     1       7.056   5.504  19.950  0.00  0.00    +0.000 OA
BRANCH  18  21
ATOM     21  C   UNL     1       5.681   5.330  17.684  0.00  0.00    +0.000 C 
BRANCH  21  22
ATOM     22  C   UNL     1       4.698   4.674  18.632  0.00  0.00    +0.000 A 
ATOM     23  C   UNL     1       3.681   5.432  19.237  0.00  0.00    +0.000 A 
ATOM     24  C   UNL     1       2.780   4.836  20.127  0.00  0.00    +0.000 A 
ATOM     25  C   UNL     1       2.893   3.473  20.417  0.00  0.00    +0.000 A 
ATOM     26  C   UNL     1       3.902   2.704  19.825  0.00  0.00    +0.000 A 
ATOM     27  C   UNL     1       4.800   3.308  18.936  0.00  0.00    +0.000 A 
BRANCH  25  28
ATOM     28  N   UNL     1       1.951   2.854  21.355  0.00  0.00    +0.000 N 
ATOM     29  O   UNL     1       0.738   2.944  21.108  0.00  0.00    +0.000 OA
ATOM     30  O   UNL     1       2.421   2.266  22.338  0.00  0.00    +0.000 OA
ENDBRANCH  25  28
ENDBRANCH  21  22
ENDBRANCH  18  21
ENDBRANCH   4  18
TORSDOF 8
ENDMDL
MODEL 3
REMARK VINA RESULT:      -7.9      2.060      2.663
REMARK  Name = 
REMARK  11 active torsions:
REMARK  status: ('A' for Active; 'I' for Inactive)
REMARK    1  A    between atoms: C_1  and  O_2
REMARK    2  A    between atoms: O_2  and  C_3
REMARK    3  A    between atoms: C_5  and  C_6
REMARK    4  A    between atoms: C_9  and  S_10
REMARK    5  A    between atoms: S_10  and  C_13
REMARK    6  A    between atoms: C_13  and  C_14
REMARK    7  A    between atoms: C_17  and  N_18
REMARK    8  A    between atoms: C_25  and  O_26
REMARK    9  A    between atoms: O_26  and  C_27
REMARK   10  A    between atoms: C_28  and  O_29
REMARK   11  A    between atoms: O_29  and  C_30
REMARK                            x       y       z     vdW  Elec       q    Type
REMARK                         _______ _______ _______ _____ _____    ______ ____
ROOT
ATOM      1  C   UNL     1       8.262   8.414  18.293  0.00  0.00    +0.000 A 
ATOM      2  N   UNL     1       8.456   7.436  19.158  0.00  0.00    +0.000 NA
ATOM      3  N   UNL     1       7.968   6.284  18.574  0.00  0.00    +0.000 NA
ATOM      4  C   UNL     1       7.506   6.627  17.382  0.00  0.00    +0.000 A 
ATOM      5  O   UNL     1       7.654   7.979  17.147  0.00  0.00    +0.000 OA
ENDROOT
BRANCH   1   8
ATOM      6  C   UNL     1       8.334  12.129  17.666  0.00  0.00    +0.000 A 
ATOM      7  C   UNL     1       8.095  10.750  17.512  0.00  0.00    +0.000 A 
ATOM      8  C   UNL     1       8.703   9.805  18.341  0.00  0.00    +0.000 A 
ATOM      9  C   UNL     1       9.662  10.261  19.247  0.00  0.00    +0.000 A 
ATOM     10  C   UNL     1       9.993  11.626  19.352  0.00  0.00    +0.000 A 
ATOM     11  C   UNL     1       9.325  12.586  18.559  0.00  0.00    +0.000 A 
BRANCH   6  13
ATOM     12  C   UNL     1       6.729  13.872  17.680  0.00  0.00    +0.000 C 
ATOM     13  O   UNL     1       7.605  13.027  16.926  0.00  0.00    +0.000 OA
ENDBRANCH   6  13
BRANCH  10  14
ATOM     14  O   UNL     1      10.964  11.826  20.305  0.00  0.00    +0.000 OA
ATOM     15  C   UNL     1      12.329  11.902  19.922  0.00  0.00    +0.000 C 
ENDBRANCH  10  14
BRANCH  11  16
ATOM     16  O   UNL     1       9.703  13.885  18.752  0.00  0.00    +0.000 OA
ATOM     17  C   UNL     1      10.565  14.554  17.849  0.00  0.00    +0.000 C 
ENDBRANCH  11  16
ENDBRANCH   1   8
BRANCH   4  18
ATOM     18  S   UNL     1       6.810   5.494  16.208  0.00  0.00    +0.000 S 
ATOM     19  O   UNL     1       7.556   5.718  14.983  0.00  0.00    +0.000 OA
ATOM     20  O   UNL     1       6.803   4.209  16.885  0.00  0.00    +0.000 OA
BRANCH  18  21
ATOM     21  C   UNL     1       5.128   6.071  16.002  0.00  0.00    +0.000 C 
BRANCH  21  22
ATOM     22  C   UNL     1       4.246   5.418  17.046  0.00  0.00    +0.000 A 
ATOM     23  C   UNL     1       3.706   4.140  16.820  0.00  0.00    +0.000 A 
ATOM     24  C   UNL     1       2.877   3.537  17.772  0.00  0.00    +0.000 A 
ATOM     25  C   UNL     1       2.584   4.211  18.961  0.00  0.00    +0.000 A 
ATOM     26  C   UNL     1       3.112   5.486  19.202  0.00  0.00    +0.000 A 
ATOM     27  C   UNL     1       3.940   6.083  18.242  0.00  0.00    +0.000 A 
BRANCH  25  28
ATOM     28  N   UNL     1       1.709   3.579  19.954  0.00  0.00    +0.000 N 
ATOM     29  O   UNL     1       1.175   4.306  20.807  0.00  0.00    +0.000 OA
ATOM     30  O   UNL     1       1.545   2.354  19.880  0.00  0.00    +0.000 OA
ENDBRANCH  25  28
ENDBRANCH  21  22
ENDBRANCH  18  21
ENDBRANCH   4  18
TORSDOF 8
ENDMDL
MODEL 4
REMARK VINA RESULT:      -7.6      5.978      9.414
REMARK  Name = 
REMARK  11 active torsions:
REMARK  status: ('A' for Active; 'I' for Inactive)
REMARK    1  A    between atoms: C_1  and  O_2
REMARK    2  A    between atoms: O_2  and  C_3
REMARK    3  A    between atoms: C_5  and  C_6
REMARK    4  A    between atoms: C_9  and  S_10
REMARK    5  A    between atoms: S_10  and  C_13
REMARK    6  A    between atoms: C_13  and  C_14
REMARK    7  A    between atoms: C_17  and  N_18
REMARK    8  A    between atoms: C_25  and  O_26
REMARK    9  A    between atoms: O_26  and  C_27
REMARK   10  A    between atoms: C_28  and  O_29
REMARK   11  A    between atoms: O_29  and  C_30
REMARK                            x       y       z     vdW  Elec       q    Type
REMARK                         _______ _______ _______ _____ _____    ______ ____
ROOT
ATOM      1  C   UNL     1       2.519   6.345  19.615  0.00  0.00    +0.000 A 
ATOM      2  N   UNL     1       1.831   5.746  20.568  0.00  0.00    +0.000 NA
ATOM      3  N   UNL     1       1.118   6.729  21.225  0.00  0.00    +0.000 NA
ATOM      4  C   UNL     1       1.412   7.875  20.630  0.00  0.00    +0.000 A 
ATOM      5  O   UNL     1       2.313   7.699  19.599  0.00  0.00    +0.000 OA
ENDROOT
BRANCH   1   8
ATOM      6  C   UNL     1       5.198   6.031  16.984  0.00  0.00    +0.000 A 
ATOM      7  C   UNL     1       4.250   6.577  17.870  0.00  0.00    +0.000 A 
ATOM      8  C   UNL     1       3.333   5.771  18.547  0.00  0.00    +0.000 A 
ATOM      9  C   UNL     1       3.297   4.416  18.218  0.00  0.00    +0.000 A 
ATOM     10  C   UNL     1       4.168   3.861  17.261  0.00  0.00    +0.000 A 
ATOM     11  C   UNL     1       5.141   4.668  16.629  0.00  0.00    +0.000 A 
BRANCH   6  13
ATOM     12  C   UNL     1       7.290   7.094  17.310  0.00  0.00    +0.000 C 
ATOM     13  O   UNL     1       6.171   6.842  16.453  0.00  0.00    +0.000 OA
ENDBRANCH   6  13
BRANCH  10  14
ATOM     14  O   UNL     1       3.938   2.514  17.106  0.00  0.00    +0.000 OA
ATOM     15  C   UNL     1       3.522   1.733  18.216  0.00  0.00    +0.000 C 
ENDBRANCH  10  14
BRANCH  11  16
ATOM     16  O   UNL     1       5.952   4.031  15.732  0.00  0.00    +0.000 OA
ATOM     17  C   UNL     1       5.759   4.151  14.334  0.00  0.00    +0.000 C 
ENDBRANCH  11  16
ENDBRANCH   1   8
BRANCH   4  18
ATOM     18  S   UNL     1       0.716   9.446  21.071  0.00  0.00    +0.000 S 
ATOM     19  O   UNL     1      -0.696   9.184  21.281  0.00  0.00    +0.000 OA
ATOM     20  O   UNL     1       1.574   9.952  22.129  0.00  0.00    +0.000 OA
BRANCH  18  21
ATOM     21  C   UNL     1       0.933  10.438  19.597  0.00  0.00    +0.000 C 
BRANCH  21  22
ATOM     22  C   UNL     1      -0.425  10.737  18.995  0.00  0.00    +0.000 A 
ATOM     23  C   UNL     1      -1.224  11.766  19.520  0.00  0.00    +0.000 A 
ATOM     24  C   UNL     1      -2.486  12.037  18.980  0.00  0.00    +0.000 A 
ATOM     25  C   UNL     1      -2.956  11.276  17.905  0.00  0.00    +0.000 A 
ATOM     26  C   UNL     1      -2.174  10.246  17.370  0.00  0.00    +0.000 A 
ATOM     27  C   UNL     1      -0.912   9.981  17.918  0.00  0.00    +0.000 A 
BRANCH  25  28
ATOM     28  N   UNL     1      -4.282  11.558  17.345  0.00  0.00    +0.000 N 
ATOM     29  O   UNL     1      -5.137  12.058  18.094  0.00  0.00    +0.000 OA
ATOM     30  O   UNL     1      -4.472  11.291  16.151  0.00  0.00    +0.000 OA
ENDBRANCH  25  28
ENDBRANCH  21  22
ENDBRANCH  18  21
ENDBRANCH   4  18
TORSDOF 8
ENDMDL
MODEL 5
REMARK VINA RESULT:      -7.5      6.762      9.586
REMARK  Name = 
REMARK  11 active torsions:
REMARK  status: ('A' for Active; 'I' for Inactive)
REMARK    1  A    between atoms: C_1  and  O_2
REMARK    2  A    between atoms: O_2  and  C_3
REMARK    3  A    between atoms: C_5  and  C_6
REMARK    4  A    between atoms: C_9  and  S_10
REMARK    5  A    between atoms: S_10  and  C_13
REMARK    6  A    between atoms: C_13  and  C_14
REMARK    7  A    between atoms: C_17  and  N_18
REMARK    8  A    between atoms: C_25  and  O_26
REMARK    9  A    between atoms: O_26  and  C_27
REMARK   10  A    between atoms: C_28  and  O_29
REMARK   11  A    between atoms: O_29  and  C_30
REMARK                            x       y       z     vdW  Elec       q    Type
REMARK                         _______ _______ _______ _____ _____    ______ ____
ROOT
ATOM      1  C   UNL     1       2.443   7.927  18.320  0.00  0.00    +0.000 A 
ATOM      2  N   UNL     1       2.008   8.997  17.681  0.00  0.00    +0.000 NA
ATOM      3  N   UNL     1       1.278   9.735  18.591  0.00  0.00    +0.000 NA
ATOM      4  C   UNL     1       1.313   9.073  19.736  0.00  0.00    +0.000 A 
ATOM      5  O   UNL     1       2.033   7.900  19.626  0.00  0.00    +0.000 OA
ENDROOT
BRANCH   1   8
ATOM      6  C   UNL     1       3.709   4.542  17.254  0.00  0.00    +0.000 A 
ATOM      7  C   UNL     1       2.941   5.552  17.863  0.00  0.00    +0.000 A 
ATOM      8  C   UNL     1       3.364   6.883  17.877  0.00  0.00    +0.000 A 
ATOM      9  C   UNL     1       4.638   7.163  17.382  0.00  0.00    +0.000 A 
ATOM     10  C   UNL     1       5.468   6.153  16.858  0.00  0.00    +0.000 A 
ATOM     11  C   UNL     1       5.009   4.819  16.783  0.00  0.00    +0.000 A 
BRANCH   6  13
ATOM     12  C   UNL     1       3.400   2.421  18.266  0.00  0.00    +0.000 C 
ATOM     13  O   UNL     1       3.188   3.276  17.137  0.00  0.00    +0.000 OA
ENDBRANCH   6  13
BRANCH  10  14
ATOM     14  O   UNL     1       6.672   6.671  16.441  0.00  0.00    +0.000 OA
ATOM     15  C   UNL     1       7.569   7.232  17.388  0.00  0.00    +0.000 C 
ENDBRANCH  10  14
BRANCH  11  16
ATOM     16  O   UNL     1       5.881   3.919  16.238  0.00  0.00    +0.000 OA
ATOM     17  C   UNL     1       6.078   3.820  14.839  0.00  0.00    +0.000 C 
ENDBRANCH  11  16
ENDBRANCH   1   8
BRANCH   4  18
ATOM     18  S   UNL     1       0.559   9.627  21.243  0.00  0.00    +0.000 S 
ATOM     19  O   UNL     1      -0.734   8.970  21.279  0.00  0.00    +0.000 OA
ATOM     20  O   UNL     1       1.566   9.408  22.267  0.00  0.00    +0.000 OA
BRANCH  18  21
ATOM     21  C   UNL     1       0.336  11.385  20.988  0.00  0.00    +0.000 C 
BRANCH  21  22
ATOM     22  C   UNL     1      -1.025  11.794  21.512  0.00  0.00    +0.000 A 
ATOM     23  C   UNL     1      -2.002  12.295  20.635  0.00  0.00    +0.000 A 
ATOM     24  C   UNL     1      -3.256  12.690  21.113  0.00  0.00    +0.000 A 
ATOM     25  C   UNL     1      -3.540  12.587  22.478  0.00  0.00    +0.000 A 
ATOM     26  C   UNL     1      -2.577  12.093  23.367  0.00  0.00    +0.000 A 
ATOM     27  C   UNL     1      -1.324  11.700  22.879  0.00  0.00    +0.000 A 
BRANCH  25  28
ATOM     28  N   UNL     1      -4.852  13.009  22.978  0.00  0.00    +0.000 N 
ATOM     29  O   UNL     1      -5.743  13.248  22.147  0.00  0.00    +0.000 OA
ATOM     30  O   UNL     1      -5.002  13.095  24.204  0.00  0.00    +0.000 OA
ENDBRANCH  25  28
ENDBRANCH  21  22
ENDBRANCH  18  21
ENDBRANCH   4  18
TORSDOF 8
ENDMDL
MODEL 6
REMARK VINA RESULT:      -7.5      6.725     10.095
REMARK  Name = 
REMARK  11 active torsions:
REMARK  status: ('A' for Active; 'I' for Inactive)
REMARK    1  A    between atoms: C_1  and  O_2
REMARK    2  A    between atoms: O_2  and  C_3
REMARK    3  A    between atoms: C_5  and  C_6
REMARK    4  A    between atoms: C_9  and  S_10
REMARK    5  A    between atoms: S_10  and  C_13
REMARK    6  A    between atoms: C_13  and  C_14
REMARK    7  A    between atoms: C_17  and  N_18
REMARK    8  A    between atoms: C_25  and  O_26
REMARK    9  A    between atoms: O_26  and  C_27
REMARK   10  A    between atoms: C_28  and  O_29
REMARK   11  A    between atoms: O_29  and  C_30
REMARK                            x       y       z     vdW  Elec       q    Type
REMARK                         _______ _______ _______ _____ _____    ______ ____
ROOT
ATOM      1  C   UNL     1       2.230   7.956  18.328  0.00  0.00    +0.000 A 
ATOM      2  N   UNL     1       2.374   8.934  17.454  0.00  0.00    +0.000 NA
ATOM      3  N   UNL     1       1.749  10.043  17.990  0.00  0.00    +0.000 NA
ATOM      4  C   UNL     1       1.261   9.675  19.164  0.00  0.00    +0.000 A 
ATOM      5  O   UNL     1       1.524   8.347  19.434  0.00  0.00    +0.000 OA
ENDROOT
BRANCH   1   8
ATOM      6  C   UNL     1       4.660   5.144  18.950  0.00  0.00    +0.000 A 
ATOM      7  C   UNL     1       4.127   6.428  18.732  0.00  0.00    +0.000 A 
ATOM      8  C   UNL     1       2.803   6.612  18.330  0.00  0.00    +0.000 A 
ATOM      9  C   UNL     1       2.056   5.475  18.022  0.00  0.00    +0.000 A 
ATOM     10  C   UNL     1       2.597   4.179  18.136  0.00  0.00    +0.000 A 
ATOM     11  C   UNL     1       3.916   3.996  18.609  0.00  0.00    +0.000 A 
BRANCH   6  13
ATOM     12  C   UNL     1       6.996   5.294  18.580  0.00  0.00    +0.000 C 
ATOM     13  O   UNL     1       5.920   5.017  19.482  0.00  0.00    +0.000 OA
ENDBRANCH   6  13
BRANCH  10  14
ATOM     14  O   UNL     1       1.675   3.226  17.772  0.00  0.00    +0.000 OA
ATOM     15  C   UNL     1       0.837   2.639  18.756  0.00  0.00    +0.000 C 
ENDBRANCH  10  14
BRANCH  11  16
ATOM     16  O   UNL     1       4.340   2.700  18.704  0.00  0.00    +0.000 OA
ATOM     17  C   UNL     1       4.317   1.993  19.931  0.00  0.00    +0.000 C 
ENDBRANCH  11  16
ENDBRANCH   1   8
BRANCH   4  18
ATOM     18  S   UNL     1       0.400  10.754  20.279  0.00  0.00    +0.000 S 
ATOM     19  O   UNL     1      -0.753   9.992  20.722  0.00  0.00    +0.000 OA
ATOM     20  O   UNL     1       1.416  11.225  21.204  0.00  0.00    +0.000 OA
BRANCH  18  21
ATOM     21  C   UNL     1      -0.136  12.107  19.237  0.00  0.00    +0.000 C 
BRANCH  21  22
ATOM     22  C   UNL     1      -1.605  11.932  18.910  0.00  0.00    +0.000 A 
ATOM     23  C   UNL     1      -1.997  11.315  17.711  0.00  0.00    +0.000 A 
ATOM     24  C   UNL     1      -3.351  11.165  17.395  0.00  0.00    +0.000 A 
ATOM     25  C   UNL     1      -4.325  11.633  18.282  0.00  0.00    +0.000 A 
ATOM     26  C   UNL     1      -3.952  12.253  19.481  0.00  0.00    +0.000 A 
ATOM     27  C   UNL     1      -2.593  12.400  19.789  0.00  0.00    +0.000 A 
BRANCH  25  28
ATOM     28  N   UNL     1      -5.744  11.481  17.944  0.00  0.00    +0.000 N 
ATOM     29  O   UNL     1      -6.221  12.231  17.078  0.00  0.00    +0.000 OA
ATOM     30  O   UNL     1      -6.386  10.604  18.538  0.00  0.00    +0.000 OA
ENDBRANCH  25  28
ENDBRANCH  21  22
ENDBRANCH  18  21
ENDBRANCH   4  18
TORSDOF 8
ENDMDL
MODEL 7
REMARK VINA RESULT:      -7.5      6.895     10.063
REMARK  Name = 
REMARK  11 active torsions:
REMARK  status: ('A' for Active; 'I' for Inactive)
REMARK    1  A    between atoms: C_1  and  O_2
REMARK    2  A    between atoms: O_2  and  C_3
REMARK    3  A    between atoms: C_5  and  C_6
REMARK    4  A    between atoms: C_9  and  S_10
REMARK    5  A    between atoms: S_10  and  C_13
REMARK    6  A    between atoms: C_13  and  C_14
REMARK    7  A    between atoms: C_17  and  N_18
REMARK    8  A    between atoms: C_25  and  O_26
REMARK    9  A    between atoms: O_26  and  C_27
REMARK   10  A    between atoms: C_28  and  O_29
REMARK   11  A    between atoms: O_29  and  C_30
REMARK                            x       y       z     vdW  Elec       q    Type
REMARK                         _______ _______ _______ _____ _____    ______ ____
ROOT
ATOM      1  C   UNL     1       2.142   8.123  18.562  0.00  0.00    +0.000 A 
ATOM      2  N   UNL     1       2.168   9.000  17.577  0.00  0.00    +0.000 NA
ATOM      3  N   UNL     1       1.540  10.140  18.041  0.00  0.00    +0.000 NA
ATOM      4  C   UNL     1       1.170   9.891  19.287  0.00  0.00    +0.000 A 
ATOM      5  O   UNL     1       1.516   8.612  19.677  0.00  0.00    +0.000 OA
ENDROOT
BRANCH   1   8
ATOM      6  C   UNL     1       2.926   4.657  19.815  0.00  0.00    +0.000 A 
ATOM      7  C   UNL     1       2.513   6.002  19.770  0.00  0.00    +0.000 A 
ATOM      8  C   UNL     1       2.774   6.810  18.661  0.00  0.00    +0.000 A 
ATOM      9  C   UNL     1       3.574   6.280  17.649  0.00  0.00    +0.000 A 
ATOM     10  C   UNL     1       4.084   4.969  17.715  0.00  0.00    +0.000 A 
ATOM     11  C   UNL     1       3.760   4.132  18.806  0.00  0.00    +0.000 A 
BRANCH   6  13
ATOM     12  C   UNL     1       1.156   3.437  20.812  0.00  0.00    +0.000 C 
ATOM     13  O   UNL     1       2.522   3.861  20.860  0.00  0.00    +0.000 OA
ENDBRANCH   6  13
BRANCH  10  14
ATOM     14  O   UNL     1       4.845   4.680  16.607  0.00  0.00    +0.000 OA
ATOM     15  C   UNL     1       6.234   4.974  16.605  0.00  0.00    +0.000 C 
ENDBRANCH  10  14
BRANCH  11  16
ATOM     16  O   UNL     1       4.286   2.871  18.766  0.00  0.00    +0.000 OA
ATOM     17  C   UNL     1       3.523   1.755  18.342  0.00  0.00    +0.000 C 
ENDBRANCH  11  16
ENDBRANCH   1   8
BRANCH   4  18
ATOM     18  S   UNL     1       0.359  11.058  20.348  0.00  0.00    +0.000 S 
ATOM     19  O   UNL     1      -0.741  10.322  20.943  0.00  0.00    +0.000 OA
ATOM     20  O   UNL     1       1.423  11.639  21.149  0.00  0.00    +0.000 OA
BRANCH  18  21
ATOM     21  C   UNL     1      -0.281  12.291  19.218  0.00  0.00    +0.000 C 
BRANCH  21  22
ATOM     22  C   UNL     1      -1.787  12.154  19.134  0.00  0.00    +0.000 A 
ATOM     23  C   UNL     1      -2.376  11.426  18.086  0.00  0.00    +0.000 A 
ATOM     24  C   UNL     1      -3.767  11.309  17.991  0.00  0.00    +0.000 A 
ATOM     25  C   UNL     1      -4.580  11.921  18.950  0.00  0.00    +0.000 A 
ATOM     26  C   UNL     1      -4.010  12.652  20.000  0.00  0.00    +0.000 A 
ATOM     27  C   UNL     1      -2.616  12.765  20.086  0.00  0.00    +0.000 A 
BRANCH  25  28
ATOM     28  N   UNL     1      -6.037  11.802  18.845  0.00  0.00    +0.000 N 
ATOM     29  O   UNL     1      -6.500  10.830  18.226  0.00  0.00    +0.000 OA
ATOM     30  O   UNL     1      -6.727  12.675  19.388  0.00  0.00    +0.000 OA
ENDBRANCH  25  28
ENDBRANCH  21  22
ENDBRANCH  18  21
ENDBRANCH   4  18
TORSDOF 8
ENDMDL
MODEL 8
REMARK VINA RESULT:      -7.4      6.638      9.966
REMARK  Name = 
REMARK  11 active torsions:
REMARK  status: ('A' for Active; 'I' for Inactive)
REMARK    1  A    between atoms: C_1  and  O_2
REMARK    2  A    between atoms: O_2  and  C_3
REMARK    3  A    between atoms: C_5  and  C_6
REMARK    4  A    between atoms: C_9  and  S_10
REMARK    5  A    between atoms: S_10  and  C_13
REMARK    6  A    between atoms: C_13  and  C_14
REMARK    7  A    between atoms: C_17  and  N_18
REMARK    8  A    between atoms: C_25  and  O_26
REMARK    9  A    between atoms: O_26  and  C_27
REMARK   10  A    between atoms: C_28  and  O_29
REMARK   11  A    between atoms: O_29  and  C_30
REMARK                            x       y       z     vdW  Elec       q    Type
REMARK                         _______ _______ _______ _____ _____    ______ ____
ROOT
ATOM      1  C   UNL     1       2.423   7.980  18.235  0.00  0.00    +0.000 A 
ATOM      2  N   UNL     1       2.780   8.792  17.257  0.00  0.00    +0.000 NA
ATOM      3  N   UNL     1       2.085   9.971  17.443  0.00  0.00    +0.000 NA
ATOM      4  C   UNL     1       1.344   9.810  18.528  0.00  0.00    +0.000 A 
ATOM      5  O   UNL     1       1.506   8.552  19.075  0.00  0.00    +0.000 OA
ENDROOT
BRANCH   1   8
ATOM      6  C   UNL     1       4.679   4.963  18.302  0.00  0.00    +0.000 A 
ATOM      7  C   UNL     1       4.008   6.123  17.871  0.00  0.00    +0.000 A 
ATOM      8  C   UNL     1       2.944   6.664  18.594  0.00  0.00    +0.000 A 
ATOM      9  C   UNL     1       2.476   5.943  19.694  0.00  0.00    +0.000 A 
ATOM     10  C   UNL     1       3.066   4.727  20.089  0.00  0.00    +0.000 A 
ATOM     11  C   UNL     1       4.187   4.219  19.395  0.00  0.00    +0.000 A 
BRANCH   6  13
ATOM     12  C   UNL     1       7.040   5.081  18.144  0.00  0.00    +0.000 C 
ATOM     13  O   UNL     1       5.809   4.551  17.640  0.00  0.00    +0.000 OA
ENDBRANCH   6  13
BRANCH  10  14
ATOM     14  O   UNL     1       2.430   4.205  21.190  0.00  0.00    +0.000 OA
ATOM     15  C   UNL     1       1.306   3.354  21.023  0.00  0.00    +0.000 C 
ENDBRANCH  10  14
BRANCH  11  16
ATOM     16  O   UNL     1       4.699   3.044  19.869  0.00  0.00    +0.000 OA
ATOM     17  C   UNL     1       4.222   1.787  19.425  0.00  0.00    +0.000 C 
ENDBRANCH  11  16
ENDBRANCH   1   8
BRANCH   4  18
ATOM     18  S   UNL     1       0.293  11.058  19.224  0.00  0.00    +0.000 S 
ATOM     19  O   UNL     1       0.615  12.269  18.492  0.00  0.00    +0.000 OA
ATOM     20  O   UNL     1      -1.038  10.477  19.210  0.00  0.00    +0.000 OA
BRANCH  18  21
ATOM     21  C   UNL     1       0.865  11.204  20.914  0.00  0.00    +0.000 C 
BRANCH  21  22
ATOM     22  C   UNL     1      -0.287  11.648  21.792  0.00  0.00    +0.000 A 
ATOM     23  C   UNL     1      -0.909  10.737  22.662  0.00  0.00    +0.000 A 
ATOM     24  C   UNL     1      -1.984  11.135  23.464  0.00  0.00    +0.000 A 
ATOM     25  C   UNL     1      -2.444  12.454  23.400  0.00  0.00    +0.000 A 
ATOM     26  C   UNL     1      -1.837  13.375  22.537  0.00  0.00    +0.000 A 
ATOM     27  C   UNL     1      -0.762  12.967  21.737  0.00  0.00    +0.000 A 
BRANCH  25  28
ATOM     28  N   UNL     1      -3.575  12.866  24.237  0.00  0.00    +0.000 N 
ATOM     29  O   UNL     1      -3.544  14.000  24.741  0.00  0.00    +0.000 OA
ATOM     30  O   UNL     1      -4.505  12.062  24.386  0.00  0.00    +0.000 OA
ENDBRANCH  25  28
ENDBRANCH  21  22
ENDBRANCH  18  21
ENDBRANCH   4  18
TORSDOF 8
ENDMDL
MODEL 9
REMARK VINA RESULT:      -7.4      6.807      9.748
REMARK  Name = 
REMARK  11 active torsions:
REMARK  status: ('A' for Active; 'I' for Inactive)
REMARK    1  A    between atoms: C_1  and  O_2
REMARK    2  A    between atoms: O_2  and  C_3
REMARK    3  A    between atoms: C_5  and  C_6
REMARK    4  A    between atoms: C_9  and  S_10
REMARK    5  A    between atoms: S_10  and  C_13
REMARK    6  A    between atoms: C_13  and  C_14
REMARK    7  A    between atoms: C_17  and  N_18
REMARK    8  A    between atoms: C_25  and  O_26
REMARK    9  A    between atoms: O_26  and  C_27
REMARK   10  A    between atoms: C_28  and  O_29
REMARK   11  A    between atoms: O_29  and  C_30
REMARK                            x       y       z     vdW  Elec       q    Type
REMARK                         _______ _______ _______ _____ _____    ______ ____
ROOT
ATOM      1  C   UNL     1       2.134   7.987  18.517  0.00  0.00    +0.000 A 
ATOM      2  N   UNL     1       1.547   9.006  17.918  0.00  0.00    +0.000 NA
ATOM      3  N   UNL     1       0.912   9.736  18.904  0.00  0.00    +0.000 NA
ATOM      4  C   UNL     1       1.153   9.119  20.050  0.00  0.00    +0.000 A 
ATOM      5  O   UNL     1       1.920   7.985  19.869  0.00  0.00    +0.000 OA
ENDROOT
BRANCH   1   8
ATOM      6  C   UNL     1       5.225   6.462  16.993  0.00  0.00    +0.000 A 
ATOM      7  C   UNL     1       4.223   7.385  17.346  0.00  0.00    +0.000 A 
ATOM      8  C   UNL     1       3.043   6.981  17.973  0.00  0.00    +0.000 A 
ATOM      9  C   UNL     1       2.827   5.611  18.123  0.00  0.00    +0.000 A 
ATOM     10  C   UNL     1       3.770   4.659  17.688  0.00  0.00    +0.000 A 
ATOM     11  C   UNL     1       4.993   5.076  17.117  0.00  0.00    +0.000 A 
BRANCH   6  13
ATOM     12  C   UNL     1       7.451   7.100  17.496  0.00  0.00    +0.000 C 
ATOM     13  O   UNL     1       6.427   6.920  16.512  0.00  0.00    +0.000 OA
ENDBRANCH   6  13
BRANCH  10  14
ATOM     14  O   UNL     1       3.331   3.380  17.938  0.00  0.00    +0.000 OA
ATOM     15  C   UNL     1       3.720   2.717  19.132  0.00  0.00    +0.000 C 
ENDBRANCH  10  14
BRANCH  11  16
ATOM     16  O   UNL     1       5.849   4.077  16.747  0.00  0.00    +0.000 OA
ATOM     17  C   UNL     1       6.021   3.702  15.392  0.00  0.00    +0.000 C 
ENDBRANCH  11  16
ENDBRANCH   1   8
BRANCH   4  18
ATOM     18  S   UNL     1       0.593   9.686  21.635  0.00  0.00    +0.000 S 
ATOM     19  O   UNL     1      -0.705   9.064  21.817  0.00  0.00    +0.000 OA
ATOM     20  O   UNL     1       1.704   9.434  22.536  0.00  0.00    +0.000 OA
BRANCH  18  21
ATOM     21  C   UNL     1       0.391  11.450  21.411  0.00  0.00    +0.000 C 
BRANCH  21  22
ATOM     22  C   UNL     1      -1.037  11.833  21.741  0.00  0.00    +0.000 A 
ATOM     23  C   UNL     1      -1.911  12.258  20.726  0.00  0.00    +0.000 A 
ATOM     24  C   UNL     1      -3.226  12.629  21.025  0.00  0.00    +0.000 A 
ATOM     25  C   UNL     1      -3.676  12.577  22.347  0.00  0.00    +0.000 A 
ATOM     26  C   UNL     1      -2.818  12.158  23.372  0.00  0.00    +0.000 A 
ATOM     27  C   UNL     1      -1.502  11.790  23.063  0.00  0.00    +0.000 A 
BRANCH  25  28
ATOM     28  N   UNL     1      -5.053  12.973  22.658  0.00  0.00    +0.000 N 
ATOM     29  O   UNL     1      -5.357  13.140  23.851  0.00  0.00    +0.000 OA
ATOM     30  O   UNL     1      -5.836  13.129  21.712  0.00  0.00    +0.000 OA
ENDBRANCH  25  28
ENDBRANCH  21  22
ENDBRANCH  18  21
ENDBRANCH   4  18
TORSDOF 8
ENDMDL
