MODEL 1
REMARK VINA RESULT:      -6.7      0.000      0.000
REMARK  Name = 
REMARK  6 active torsions:
REMARK  status: ('A' for Active; 'I' for Inactive)
REMARK    1  A    between atoms: C_1  and  C_2
REMARK    2  A    between atoms: C_2  and  C_3
REMARK    3  A    between atoms: C_3  and  C_4
REMARK    4  A    between atoms: C_4  and  C_5
REMARK    5  A    between atoms: C_8  and  N_9
REMARK    6  A    between atoms: C_10  and  C_12
REMARK                            x       y       z     vdW  Elec       q    Type
REMARK                         _______ _______ _______ _____ _____    ______ ____
ROOT
ATOM      1  C   UNL     1       6.178   4.712  14.722  0.00  0.00    +0.000 A 
ATOM      2  C   UNL     1       5.485   5.822  15.209  0.00  0.00    +0.000 A 
ATOM      3  C   UNL     1       4.679   5.724  16.343  0.00  0.00    +0.000 A 
ATOM      4  C   UNL     1       4.528   4.514  17.015  0.00  0.00    +0.000 A 
ATOM      5  C   UNL     1       5.219   3.395  16.532  0.00  0.00    +0.000 A 
ATOM      6  C   UNL     1       6.038   3.492  15.395  0.00  0.00    +0.000 A 
ENDROOT
BRANCH   4   7
ATOM      7  N   UNL     1       3.703   4.359  18.155  0.00  0.00    +0.000 N 
ATOM      8  C   UNL     1       2.334   4.131  18.155  0.00  0.00    +0.000 C 
ATOM      9  O   UNL     1       1.612   4.041  17.166  0.00  0.00    +0.000 OA
ATOM     10  H   UNL     1       4.166   4.418  19.052  0.00  0.00    +0.000 HD
BRANCH   8  11
ATOM     11  C   UNL     1       1.746   4.031  19.554  0.00  0.00    +0.000 C 
ATOM     12  C   UNL     1       1.442   2.590  19.963  0.00  0.00    +0.000 C 
ATOM     13  C   UNL     1       1.273   2.675  21.470  0.00  0.00    +0.000 C 
ATOM     14  C   UNL     1       2.210   3.794  21.921  0.00  0.00    +0.000 C 
ATOM     15  C   UNL     1       2.712   4.477  20.648  0.00  0.00    +0.000 C 
ENDBRANCH   8  11
ENDBRANCH   4   7
BRANCH   1  16
ATOM     16  C   UNL     1       7.027   4.841  13.480  0.00  0.00    +0.000 C 
BRANCH  16  17
ATOM     17  C   UNL     1       6.562   3.912  12.351  0.00  0.00    +0.000 C 
BRANCH  17  19
ATOM     18  C   UNL     1       4.585   2.853  11.214  0.00  0.00    +0.000 C 
ATOM     19  C   UNL     1       5.050   3.698  12.390  0.00  0.00    +0.000 C 
ENDBRANCH  17  19
ENDBRANCH  16  17
ENDBRANCH   1  16
TORSDOF 5
ENDMDL
MODEL 2
REMARK VINA RESULT:      -6.7      1.379      1.546
REMARK  Name = 
REMARK  6 active torsions:
REMARK  status: ('A' for Active; 'I' for Inactive)
REMARK    1  A    between atoms: C_1  and  C_2
REMARK    2  A    between atoms: C_2  and  C_3
REMARK    3  A    between atoms: C_3  and  C_4
REMARK    4  A    between atoms: C_4  and  C_5
REMARK    5  A    between atoms: C_8  and  N_9
REMARK    6  A    between atoms: C_10  and  C_12
REMARK                            x       y       z     vdW  Elec       q    Type
REMARK                         _______ _______ _______ _____ _____    ______ ____
ROOT
ATOM      1  C   UNL     1       6.406   4.839  14.439  0.00  0.00    +0.000 A 
ATOM      2  C   UNL     1       5.775   5.967  14.966  0.00  0.00    +0.000 A 
ATOM      3  C   UNL     1       4.963   5.873  16.096  0.00  0.00    +0.000 A 
ATOM      4  C   UNL     1       4.743   4.649  16.723  0.00  0.00    +0.000 A 
ATOM      5  C   UNL     1       5.371   3.512  16.200  0.00  0.00    +0.000 A 
ATOM      6  C   UNL     1       6.195   3.605  15.066  0.00  0.00    +0.000 A 
ENDROOT
BRANCH   4   7
ATOM      7  N   UNL     1       3.908   4.499  17.857  0.00  0.00    +0.000 N 
ATOM      8  C   UNL     1       4.325   4.304  19.166  0.00  0.00    +0.000 C 
ATOM      9  O   UNL     1       5.486   4.213  19.553  0.00  0.00    +0.000 OA
ATOM     10  H   UNL     1       2.913   4.545  17.686  0.00  0.00    +0.000 HD
BRANCH   8  11
ATOM     11  C   UNL     1       3.169   4.162  20.145  0.00  0.00    +0.000 C 
ATOM     12  C   UNL     1       1.812   4.432  19.496  0.00  0.00    +0.000 C 
ATOM     13  C   UNL     1       0.820   3.850  20.488  0.00  0.00    +0.000 C 
ATOM     14  C   UNL     1       1.539   2.666  21.132  0.00  0.00    +0.000 C 
ATOM     15  C   UNL     1       2.995   2.741  20.672  0.00  0.00    +0.000 C 
ENDBRANCH   8  11
ENDBRANCH   4   7
BRANCH   1  16
ATOM     16  C   UNL     1       7.263   4.965  13.202  0.00  0.00    +0.000 C 
BRANCH  16  17
ATOM     17  C   UNL     1       7.036   3.818  12.210  0.00  0.00    +0.000 C 
BRANCH  17  19
ATOM     18  C   UNL     1       5.376   2.081  11.464  0.00  0.00    +0.000 C 
ATOM     19  C   UNL     1       5.558   3.444  12.113  0.00  0.00    +0.000 C 
ENDBRANCH  17  19
ENDBRANCH  16  17
ENDBRANCH   1  16
TORSDOF 5
ENDMDL
MODEL 3
REMARK VINA RESULT:      -6.6      0.415      1.203
REMARK  Name = 
REMARK  6 active torsions:
REMARK  status: ('A' for Active; 'I' for Inactive)
REMARK    1  A    between atoms: C_1  and  C_2
REMARK    2  A    between atoms: C_2  and  C_3
REMARK    3  A    between atoms: C_3  and  C_4
REMARK    4  A    between atoms: C_4  and  C_5
REMARK    5  A    between atoms: C_8  and  N_9
REMARK    6  A    between atoms: C_10  and  C_12
REMARK                            x       y       z     vdW  Elec       q    Type
REMARK                         _______ _______ _______ _____ _____    ______ ____
ROOT
ATOM      1  C   UNL     1       6.429   4.805  14.639  0.00  0.00    +0.000 A 
ATOM      2  C   UNL     1       6.357   3.583  15.310  0.00  0.00    +0.000 A 
ATOM      3  C   UNL     1       5.501   3.410  16.398  0.00  0.00    +0.000 A 
ATOM      4  C   UNL     1       4.705   4.456  16.859  0.00  0.00    +0.000 A 
ATOM      5  C   UNL     1       4.773   5.686  16.192  0.00  0.00    +0.000 A 
ATOM      6  C   UNL     1       5.628   5.861  15.092  0.00  0.00    +0.000 A 
ENDROOT
BRANCH   4   7
ATOM      7  N   UNL     1       3.840   4.337  17.973  0.00  0.00    +0.000 N 
ATOM      8  C   UNL     1       2.529   3.884  17.953  0.00  0.00    +0.000 C 
ATOM      9  O   UNL     1       1.898   3.527  16.962  0.00  0.00    +0.000 OA
ATOM     10  H   UNL     1       4.227   4.606  18.868  0.00  0.00    +0.000 HD
BRANCH   8  11
ATOM     11  C   UNL     1       1.872   3.897  19.324  0.00  0.00    +0.000 C 
ATOM     12  C   UNL     1       1.517   2.495  19.820  0.00  0.00    +0.000 C 
ATOM     13  C   UNL     1       1.276   2.693  21.307  0.00  0.00    +0.000 C 
ATOM     14  C   UNL     1       2.215   3.825  21.722  0.00  0.00    +0.000 C 
ATOM     15  C   UNL     1       2.792   4.404  20.430  0.00  0.00    +0.000 C 
ENDBRANCH   8  11
ENDBRANCH   4   7
BRANCH   1  16
ATOM     16  C   UNL     1       7.379   4.971  13.478  0.00  0.00    +0.000 C 
BRANCH  16  17
ATOM     17  C   UNL     1       7.009   4.082  12.284  0.00  0.00    +0.000 C 
BRANCH  17  19
ATOM     18  C   UNL     1       5.412   2.275  11.568  0.00  0.00    +0.000 C 
ATOM     19  C   UNL     1       5.594   3.521  12.420  0.00  0.00    +0.000 C 
ENDBRANCH  17  19
ENDBRANCH  16  17
ENDBRANCH   1  16
TORSDOF 5
ENDMDL
MODEL 4
REMARK VINA RESULT:      -6.6      1.753      7.413
REMARK  Name = 
REMARK  6 active torsions:
REMARK  status: ('A' for Active; 'I' for Inactive)
REMARK    1  A    between atoms: C_1  and  C_2
REMARK    2  A    between atoms: C_2  and  C_3
REMARK    3  A    between atoms: C_3  and  C_4
REMARK    4  A    between atoms: C_4  and  C_5
REMARK    5  A    between atoms: C_8  and  N_9
REMARK    6  A    between atoms: C_10  and  C_12
REMARK                            x       y       z     vdW  Elec       q    Type
REMARK                         _______ _______ _______ _____ _____    ______ ____
ROOT
ATOM      1  C   UNL     1       2.890   4.818  19.307  0.00  0.00    +0.000 A 
ATOM      2  C   UNL     1       4.255   5.108  19.362  0.00  0.00    +0.000 A 
ATOM      3  C   UNL     1       5.084   4.862  18.268  0.00  0.00    +0.000 A 
ATOM      4  C   UNL     1       4.581   4.303  17.095  0.00  0.00    +0.000 A 
ATOM      5  C   UNL     1       3.214   4.008  17.034  0.00  0.00    +0.000 A 
ATOM      6  C   UNL     1       2.374   4.262  18.131  0.00  0.00    +0.000 A 
ENDROOT
BRANCH   4   7
ATOM      7  N   UNL     1       5.388   4.012  15.969  0.00  0.00    +0.000 N 
ATOM      8  C   UNL     1       5.891   4.929  15.057  0.00  0.00    +0.000 C 
ATOM      9  O   UNL     1       5.705   6.142  15.069  0.00  0.00    +0.000 OA
ATOM     10  H   UNL     1       5.619   3.038  15.826  0.00  0.00    +0.000 HD
BRANCH   8  11
ATOM     11  C   UNL     1       6.708   4.282  13.949  0.00  0.00    +0.000 C 
ATOM     12  C   UNL     1       5.845   3.483  12.971  0.00  0.00    +0.000 C 
ATOM     13  C   UNL     1       6.754   3.288  11.771  0.00  0.00    +0.000 C 
ATOM     14  C   UNL     1       7.640   4.533  11.726  0.00  0.00    +0.000 C 
ATOM     15  C   UNL     1       7.382   5.293  13.027  0.00  0.00    +0.000 C 
ENDBRANCH   8  11
ENDBRANCH   4   7
BRANCH   1  16
ATOM     16  C   UNL     1       2.018   5.075  20.513  0.00  0.00    +0.000 C 
BRANCH  16  17
ATOM     17  C   UNL     1       1.012   3.945  20.763  0.00  0.00    +0.000 C 
BRANCH  17  19
ATOM     18  C   UNL     1       2.826   2.345  21.452  0.00  0.00    +0.000 C 
ATOM     19  C   UNL     1       1.503   2.985  21.844  0.00  0.00    +0.000 C 
ENDBRANCH  17  19
ENDBRANCH  16  17
ENDBRANCH   1  16
TORSDOF 5
ENDMDL
MODEL 5
REMARK VINA RESULT:      -6.5      1.331      1.885
REMARK  Name = 
REMARK  6 active torsions:
REMARK  status: ('A' for Active; 'I' for Inactive)
REMARK    1  A    between atoms: C_1  and  C_2
REMARK    2  A    between atoms: C_2  and  C_3
REMARK    3  A    between atoms: C_3  and  C_4
REMARK    4  A    between atoms: C_4  and  C_5
REMARK    5  A    between atoms: C_8  and  N_9
REMARK    6  A    between atoms: C_10  and  C_12
REMARK                            x       y       z     vdW  Elec       q    Type
REMARK                         _______ _______ _______ _____ _____    ______ ____
ROOT
ATOM      1  C   UNL     1       6.502   4.835  14.615  0.00  0.00    +0.000 A 
ATOM      2  C   UNL     1       6.399   3.623  15.300  0.00  0.00    +0.000 A 
ATOM      3  C   UNL     1       5.523   3.480  16.375  0.00  0.00    +0.000 A 
ATOM      4  C   UNL     1       4.738   4.545  16.810  0.00  0.00    +0.000 A 
ATOM      5  C   UNL     1       4.837   5.765  16.129  0.00  0.00    +0.000 A 
ATOM      6  C   UNL     1       5.713   5.910  15.040  0.00  0.00    +0.000 A 
ENDROOT
BRANCH   4   7
ATOM      7  N   UNL     1       3.853   4.455  17.912  0.00  0.00    +0.000 N 
ATOM      8  C   UNL     1       4.137   4.799  19.226  0.00  0.00    +0.000 C 
ATOM      9  O   UNL     1       5.209   5.222  19.651  0.00  0.00    +0.000 OA
ATOM     10  H   UNL     1       2.924   4.111  17.710  0.00  0.00    +0.000 HD
BRANCH   8  11
ATOM     11  C   UNL     1       2.969   4.564  20.170  0.00  0.00    +0.000 C 
ATOM     12  C   UNL     1       1.625   4.514  19.443  0.00  0.00    +0.000 C 
ATOM     13  C   UNL     1       0.692   3.879  20.459  0.00  0.00    +0.000 C 
ATOM     14  C   UNL     1       1.566   2.920  21.267  0.00  0.00    +0.000 C 
ATOM     15  C   UNL     1       3.011   3.202  20.856  0.00  0.00    +0.000 C 
ENDBRANCH   8  11
ENDBRANCH   4   7
BRANCH   1  16
ATOM     16  C   UNL     1       7.474   4.969  13.466  0.00  0.00    +0.000 C 
BRANCH  16  17
ATOM     17  C   UNL     1       6.879   4.496  12.134  0.00  0.00    +0.000 C 
BRANCH  17  19
ATOM     18  C   UNL     1       4.658   3.384  11.734  0.00  0.00    +0.000 C 
ATOM     19  C   UNL     1       6.056   3.220  12.309  0.00  0.00    +0.000 C 
ENDBRANCH  17  19
ENDBRANCH  16  17
ENDBRANCH   1  16
TORSDOF 5
ENDMDL
MODEL 6
REMARK VINA RESULT:      -6.5      4.211      7.971
REMARK  Name = 
REMARK  6 active torsions:
REMARK  status: ('A' for Active; 'I' for Inactive)
REMARK    1  A    between atoms: C_1  and  C_2
REMARK    2  A    between atoms: C_2  and  C_3
REMARK    3  A    between atoms: C_3  and  C_4
REMARK    4  A    between atoms: C_4  and  C_5
REMARK    5  A    between atoms: C_8  and  N_9
REMARK    6  A    between atoms: C_10  and  C_12
REMARK                            x       y       z     vdW  Elec       q    Type
REMARK                         _______ _______ _______ _____ _____    ______ ____
ROOT
ATOM      1  C   UNL     1       0.815   9.369  19.486  0.00  0.00    +0.000 A 
ATOM      2  C   UNL     1       1.238   9.508  18.163  0.00  0.00    +0.000 A 
ATOM      3  C   UNL     1       2.182   8.639  17.617  0.00  0.00    +0.000 A 
ATOM      4  C   UNL     1       2.744   7.617  18.378  0.00  0.00    +0.000 A 
ATOM      5  C   UNL     1       2.326   7.472  19.707  0.00  0.00    +0.000 A 
ATOM      6  C   UNL     1       1.369   8.340  20.257  0.00  0.00    +0.000 A 
ENDROOT
BRANCH   4   7
ATOM      7  N   UNL     1       3.724   6.727  17.876  0.00  0.00    +0.000 N 
ATOM      8  C   UNL     1       3.542   5.383  17.582  0.00  0.00    +0.000 C 
ATOM      9  O   UNL     1       2.504   4.742  17.725  0.00  0.00    +0.000 OA
ATOM     10  H   UNL     1       4.641   7.119  17.714  0.00  0.00    +0.000 HD
BRANCH   8  11
ATOM     11  C   UNL     1       4.806   4.706  17.075  0.00  0.00    +0.000 C 
ATOM     12  C   UNL     1       5.406   5.415  15.861  0.00  0.00    +0.000 C 
ATOM     13  C   UNL     1       6.817   4.858  15.784  0.00  0.00    +0.000 C 
ATOM     14  C   UNL     1       7.220   4.576  17.231  0.00  0.00    +0.000 C 
ATOM     15  C   UNL     1       5.958   4.753  18.075  0.00  0.00    +0.000 C 
ENDBRANCH   8  11
ENDBRANCH   4   7
BRANCH   1  16
ATOM     16  C   UNL     1      -0.194  10.336  20.059  0.00  0.00    +0.000 C 
BRANCH  16  17
ATOM     17  C   UNL     1       0.276  10.962  21.378  0.00  0.00    +0.000 C 
BRANCH  17  19
ATOM     18  C   UNL     1      -0.177   9.509  23.380  0.00  0.00    +0.000 C 
ATOM     19  C   UNL     1      -0.690  10.654  22.520  0.00  0.00    +0.000 C 
ENDBRANCH  17  19
ENDBRANCH  16  17
ENDBRANCH   1  16
TORSDOF 5
ENDMDL
MODEL 7
REMARK VINA RESULT:      -6.5      3.604      5.096
REMARK  Name = 
REMARK  6 active torsions:
REMARK  status: ('A' for Active; 'I' for Inactive)
REMARK    1  A    between atoms: C_1  and  C_2
REMARK    2  A    between atoms: C_2  and  C_3
REMARK    3  A    between atoms: C_3  and  C_4
REMARK    4  A    between atoms: C_4  and  C_5
REMARK    5  A    between atoms: C_8  and  N_9
REMARK    6  A    between atoms: C_10  and  C_12
REMARK                            x       y       z     vdW  Elec       q    Type
REMARK                         _______ _______ _______ _____ _____    ______ ____
ROOT
ATOM      1  C   UNL     1       7.410   7.344  17.841  0.00  0.00    +0.000 A 
ATOM      2  C   UNL     1       6.144   7.377  17.254  0.00  0.00    +0.000 A 
ATOM      3  C   UNL     1       5.155   6.468  17.630  0.00  0.00    +0.000 A 
ATOM      4  C   UNL     1       5.405   5.490  18.589  0.00  0.00    +0.000 A 
ATOM      5  C   UNL     1       6.674   5.449  19.181  0.00  0.00    +0.000 A 
ATOM      6  C   UNL     1       7.669   6.367  18.810  0.00  0.00    +0.000 A 
ENDROOT
BRANCH   4   7
ATOM      7  N   UNL     1       4.442   4.530  18.984  0.00  0.00    +0.000 N 
ATOM      8  C   UNL     1       4.017   3.437  18.244  0.00  0.00    +0.000 C 
ATOM      9  O   UNL     1       4.394   3.132  17.116  0.00  0.00    +0.000 OA
ATOM     10  H   UNL     1       4.034   4.660  19.900  0.00  0.00    +0.000 HD
BRANCH   8  11
ATOM     11  C   UNL     1       2.954   2.612  18.953  0.00  0.00    +0.000 C 
ATOM     12  C   UNL     1       2.701   3.085  20.385  0.00  0.00    +0.000 C 
ATOM     13  C   UNL     1       1.377   2.436  20.746  0.00  0.00    +0.000 C 
ATOM     14  C   UNL     1       0.594   2.356  19.436  0.00  0.00    +0.000 C 
ATOM     15  C   UNL     1       1.570   2.740  18.325  0.00  0.00    +0.000 C 
ENDBRANCH   8  11
ENDBRANCH   4   7
BRANCH   1  16
ATOM     16  C   UNL     1       8.469   8.327  17.401  0.00  0.00    +0.000 C 
BRANCH  16  17
ATOM     17  C   UNL     1       8.268   9.720  18.010  0.00  0.00    +0.000 C 
BRANCH  17  19
ATOM     18  C   UNL     1      10.141  11.173  18.848  0.00  0.00    +0.000 C 
ATOM     19  C   UNL     1       9.249   9.980  19.151  0.00  0.00    +0.000 C 
ENDBRANCH  17  19
ENDBRANCH  16  17
ENDBRANCH   1  16
TORSDOF 5
ENDMDL
MODEL 8
REMARK VINA RESULT:      -6.4      1.923      7.422
REMARK  Name = 
REMARK  6 active torsions:
REMARK  status: ('A' for Active; 'I' for Inactive)
REMARK    1  A    between atoms: C_1  and  C_2
REMARK    2  A    between atoms: C_2  and  C_3
REMARK    3  A    between atoms: C_3  and  C_4
REMARK    4  A    between atoms: C_4  and  C_5
REMARK    5  A    between atoms: C_8  and  N_9
REMARK    6  A    between atoms: C_10  and  C_12
REMARK                            x       y       z     vdW  Elec       q    Type
REMARK                         _______ _______ _______ _____ _____    ______ ____
ROOT
ATOM      1  C   UNL     1       2.847   5.533  18.933  0.00  0.00    +0.000 A 
ATOM      2  C   UNL     1       2.574   4.361  18.224  0.00  0.00    +0.000 A 
ATOM      3  C   UNL     1       3.338   4.000  17.114  0.00  0.00    +0.000 A 
ATOM      4  C   UNL     1       4.384   4.804  16.669  0.00  0.00    +0.000 A 
ATOM      5  C   UNL     1       4.663   5.983  17.374  0.00  0.00    +0.000 A 
ATOM      6  C   UNL     1       3.900   6.345  18.496  0.00  0.00    +0.000 A 
ENDROOT
BRANCH   4   7
ATOM      7  N   UNL     1       5.171   4.493  15.534  0.00  0.00    +0.000 N 
ATOM      8  C   UNL     1       6.557   4.448  15.480  0.00  0.00    +0.000 C 
ATOM      9  O   UNL     1       7.328   4.687  16.405  0.00  0.00    +0.000 OA
ATOM     10  H   UNL     1       4.664   4.279  14.686  0.00  0.00    +0.000 HD
BRANCH   8  11
ATOM     11  C   UNL     1       7.089   4.099  14.099  0.00  0.00    +0.000 C 
ATOM     12  C   UNL     1       5.998   3.581  13.161  0.00  0.00    +0.000 C 
ATOM     13  C   UNL     1       6.629   3.691  11.785  0.00  0.00    +0.000 C 
ATOM     14  C   UNL     1       7.561   4.899  11.861  0.00  0.00    +0.000 C 
ATOM     15  C   UNL     1       7.622   5.306  13.333  0.00  0.00    +0.000 C 
ENDBRANCH   8  11
ENDBRANCH   4   7
BRANCH   1  16
ATOM     16  C   UNL     1       1.991   5.911  20.118  0.00  0.00    +0.000 C 
BRANCH  16  17
ATOM     17  C   UNL     1       1.252   4.707  20.717  0.00  0.00    +0.000 C 
BRANCH  17  19
ATOM     18  C   UNL     1       1.735   2.418  21.641  0.00  0.00    +0.000 C 
ATOM     19  C   UNL     1       2.168   3.876  21.613  0.00  0.00    +0.000 C 
ENDBRANCH  17  19
ENDBRANCH  16  17
ENDBRANCH   1  16
TORSDOF 5
ENDMDL
MODEL 9
REMARK VINA RESULT:      -6.4      1.764      7.435
REMARK  Name = 
REMARK  6 active torsions:
REMARK  status: ('A' for Active; 'I' for Inactive)
REMARK    1  A    between atoms: C_1  and  C_2
REMARK    2  A    between atoms: C_2  and  C_3
REMARK    3  A    between atoms: C_3  and  C_4
REMARK    4  A    between atoms: C_4  and  C_5
REMARK    5  A    between atoms: C_8  and  N_9
REMARK    6  A    between atoms: C_10  and  C_12
REMARK                            x       y       z     vdW  Elec       q    Type
REMARK                         _______ _______ _______ _____ _____    ______ ____
ROOT
ATOM      1  C   UNL     1       3.417   4.539  19.457  0.00  0.00    +0.000 A 
ATOM      2  C   UNL     1       2.768   4.003  18.343  0.00  0.00    +0.000 A 
ATOM      3  C   UNL     1       3.469   3.728  17.169  0.00  0.00    +0.000 A 
ATOM      4  C   UNL     1       4.832   3.995  17.066  0.00  0.00    +0.000 A 
ATOM      5  C   UNL     1       5.489   4.534  18.178  0.00  0.00    +0.000 A 
ATOM      6  C   UNL     1       4.788   4.805  19.365  0.00  0.00    +0.000 A 
ENDROOT
BRANCH   4   7
ATOM      7  N   UNL     1       5.580   3.757  15.887  0.00  0.00    +0.000 N 
ATOM      8  C   UNL     1       6.026   4.714  14.988  0.00  0.00    +0.000 C 
ATOM      9  O   UNL     1       5.830   5.924  15.058  0.00  0.00    +0.000 OA
ATOM     10  H   UNL     1       5.811   2.791  15.694  0.00  0.00    +0.000 HD
BRANCH   8  11
ATOM     11  C   UNL     1       6.788   4.120  13.813  0.00  0.00    +0.000 C 
ATOM     12  C   UNL     1       5.891   3.306  12.880  0.00  0.00    +0.000 C 
ATOM     13  C   UNL     1       6.722   3.169  11.617  0.00  0.00    +0.000 C 
ATOM     14  C   UNL     1       7.555   4.448  11.538  0.00  0.00    +0.000 C 
ATOM     15  C   UNL     1       7.359   5.174  12.869  0.00  0.00    +0.000 C 
ENDBRANCH   8  11
ENDBRANCH   4   7
BRANCH   1  16
ATOM     16  C   UNL     1       2.630   4.846  20.709  0.00  0.00    +0.000 C 
BRANCH  16  17
ATOM     17  C   UNL     1       1.141   4.509  20.566  0.00  0.00    +0.000 C 
BRANCH  17  19
ATOM     18  C   UNL     1       1.825   2.501  21.918  0.00  0.00    +0.000 C 
ATOM     19  C   UNL     1       0.869   3.035  20.863  0.00  0.00    +0.000 C 
ENDBRANCH  17  19
ENDBRANCH  16  17
ENDBRANCH   1  16
TORSDOF 5
ENDMDL
