MODEL 1
REMARK VINA RESULT:      -8.0      0.000      0.000
REMARK  Name = 
REMARK  4 active torsions:
REMARK  status: ('A' for Active; 'I' for Inactive)
REMARK    1  A    between atoms: C_7  and  N_8
REMARK    2  A    between atoms: N_12  and  C_13
REMARK    3  A    between atoms: C_21  and  C_22
REMARK    4  A    between atoms: C_26  and  C_27
REMARK                            x       y       z     vdW  Elec       q    Type
REMARK                         _______ _______ _______ _____ _____    ______ ____
ROOT
ATOM      1  N   UNL     1       0.943  11.889  20.617  0.00  0.00    +0.000 N 
ATOM      2  C   UNL     1       0.559  11.060  19.562  0.00  0.00    +0.000 A 
ATOM      3  N   UNL     1       1.427  10.133  19.170  0.00  0.00    +0.000 NA
ATOM      4  C   UNL     1       1.058   9.392  18.133  0.00  0.00    +0.000 A 
ATOM      5  N   UNL     1       1.915   8.417  17.639  0.00  0.00    +0.000 N 
ATOM      6  N   UNL     1      -0.096   9.522  17.493  0.00  0.00    +0.000 NA
ATOM      7  C   UNL     1      -0.910  10.475  17.955  0.00  0.00    +0.000 A 
ATOM      8  N   UNL     1      -0.619  11.257  18.995  0.00  0.00    +0.000 NA
ATOM      9  H   UNL     1       1.842  11.584  20.966  0.00  0.00    +0.000 HD
ATOM     10  H   UNL     1       1.391   7.857  16.972  0.00  0.00    +0.000 HD
ENDROOT
BRANCH   1  17
ATOM     11  F   UNL     1      -2.626  11.460  23.768  0.00  0.00    +0.000 F 
ATOM     12  C   UNL     1      -1.717  12.236  23.167  0.00  0.00    +0.000 A 
ATOM     13  C   UNL     1      -1.634  13.577  23.509  0.00  0.00    +0.000 A 
ATOM     14  C   UNL     1      -0.680  14.362  22.883  0.00  0.00    +0.000 A 
ATOM     15  F   UNL     1      -0.591  15.664  23.188  0.00  0.00    +0.000 F 
ATOM     16  C   UNL     1       0.186  13.823  21.935  0.00  0.00    +0.000 A 
ATOM     17  C   UNL     1       0.108  12.468  21.589  0.00  0.00    +0.000 A 
ATOM     18  C   UNL     1      -0.867  11.679  22.211  0.00  0.00    +0.000 A 
ENDBRANCH   1  17
BRANCH   5  19
ATOM     19  C   UNL     1       2.765   7.720  18.588  0.00  0.00    +0.000 C 
ATOM     20  C   UNL     1       1.961   6.676  19.373  0.00  0.00    +0.000 C 
ATOM     21  C   UNL     1       2.989   5.618  19.738  0.00  0.00    +0.000 C 
ATOM     22  C   UNL     1       3.864   5.554  18.507  0.00  0.00    +0.000 C 
ATOM     23  F   UNL     1       3.361   4.644  17.638  0.00  0.00    +0.000 F 
ATOM     24  F   UNL     1       5.114   5.154  18.823  0.00  0.00    +0.000 F 
ATOM     25  C   UNL     1       3.865   6.930  17.869  0.00  0.00    +0.000 C 
ENDBRANCH   5  19
BRANCH   7  26
ATOM     26  C   UNL     1      -2.229  10.697  17.304  0.00  0.00    +0.000 A 
ATOM     27  C   UNL     1      -2.478  10.272  15.994  0.00  0.00    +0.000 A 
ATOM     28  C   UNL     1      -3.721  10.502  15.412  0.00  0.00    +0.000 A 
ATOM     29  C   UNL     1      -4.701  11.153  16.146  0.00  0.00    +0.000 A 
ATOM     30  C   UNL     1      -4.414  11.560  17.450  0.00  0.00    +0.000 A 
ATOM     31  N   UNL     1      -3.193  11.334  18.021  0.00  0.00    +0.000 NA
BRANCH  30  32
ATOM     32  C   UNL     1      -5.485  12.276  18.265  0.00  0.00    +0.000 C 
ATOM     33  F   UNL     1      -6.507  11.453  18.651  0.00  0.00    +0.000 F 
ATOM     34  F   UNL     1      -5.005  12.819  19.421  0.00  0.00    +0.000 F 
ATOM     35  F   UNL     1      -6.083  13.296  17.587  0.00  0.00    +0.000 F 
ENDBRANCH  30  32
ENDBRANCH   7  26
TORSDOF 4
ENDMDL
MODEL 2
REMARK VINA RESULT:      -8.0      0.158      1.566
REMARK  Name = 
REMARK  4 active torsions:
REMARK  status: ('A' for Active; 'I' for Inactive)
REMARK    1  A    between atoms: C_7  and  N_8
REMARK    2  A    between atoms: N_12  and  C_13
REMARK    3  A    between atoms: C_21  and  C_22
REMARK    4  A    between atoms: C_26  and  C_27
REMARK                            x       y       z     vdW  Elec       q    Type
REMARK                         _______ _______ _______ _____ _____    ______ ____
ROOT
ATOM      1  N   UNL     1       0.857  11.783  20.664  0.00  0.00    +0.000 N 
ATOM      2  C   UNL     1       0.509  10.959  19.593  0.00  0.00    +0.000 A 
ATOM      3  N   UNL     1       1.390  10.033  19.228  0.00  0.00    +0.000 NA
ATOM      4  C   UNL     1       1.057   9.297  18.175  0.00  0.00    +0.000 A 
ATOM      5  N   UNL     1       1.930   8.323  17.708  0.00  0.00    +0.000 N 
ATOM      6  N   UNL     1      -0.073   9.431  17.495  0.00  0.00    +0.000 NA
ATOM      7  C   UNL     1      -0.902  10.383  17.932  0.00  0.00    +0.000 A 
ATOM      8  N   UNL     1      -0.648  11.160  18.984  0.00  0.00    +0.000 NA
ATOM      9  H   UNL     1       1.742  11.475  21.044  0.00  0.00    +0.000 HD
ATOM     10  H   UNL     1       1.430   7.766  17.020  0.00  0.00    +0.000 HD
ENDROOT
BRANCH   1  17
ATOM     11  F   UNL     1      -0.531  15.588  23.204  0.00  0.00    +0.000 F 
ATOM     12  C   UNL     1      -0.687  14.294  22.903  0.00  0.00    +0.000 A 
ATOM     13  C   UNL     1      -1.683  13.564  23.533  0.00  0.00    +0.000 A 
ATOM     14  C   UNL     1      -1.836  12.228  23.201  0.00  0.00    +0.000 A 
ATOM     15  F   UNL     1      -2.783  11.500  23.808  0.00  0.00    +0.000 F 
ATOM     16  C   UNL     1      -1.016  11.624  22.250  0.00  0.00    +0.000 A 
ATOM     17  C   UNL     1      -0.012  12.359  21.608  0.00  0.00    +0.000 A 
ATOM     18  C   UNL     1       0.152  13.706  21.956  0.00  0.00    +0.000 A 
ENDBRANCH   1  17
BRANCH   5  19
ATOM     19  C   UNL     1       2.745   7.621  18.683  0.00  0.00    +0.000 C 
ATOM     20  C   UNL     1       1.910   6.583  19.443  0.00  0.00    +0.000 C 
ATOM     21  C   UNL     1       2.918   5.518  19.842  0.00  0.00    +0.000 C 
ATOM     22  C   UNL     1       3.831   5.446  18.639  0.00  0.00    +0.000 C 
ATOM     23  F   UNL     1       3.349   4.540  17.755  0.00  0.00    +0.000 F 
ATOM     24  F   UNL     1       5.067   5.038  18.994  0.00  0.00    +0.000 F 
ATOM     25  C   UNL     1       3.861   6.822  18.000  0.00  0.00    +0.000 C 
ENDBRANCH   5  19
BRANCH   7  26
ATOM     26  C   UNL     1      -2.196  10.609  17.235  0.00  0.00    +0.000 A 
ATOM     27  C   UNL     1      -2.397  10.194  15.914  0.00  0.00    +0.000 A 
ATOM     28  C   UNL     1      -3.618  10.429  15.289  0.00  0.00    +0.000 A 
ATOM     29  C   UNL     1      -4.626  11.073  15.992  0.00  0.00    +0.000 A 
ATOM     30  C   UNL     1      -4.386  11.470  17.308  0.00  0.00    +0.000 A 
ATOM     31  N   UNL     1      -3.186  11.240  17.921  0.00  0.00    +0.000 NA
BRANCH  30  32
ATOM     32  C   UNL     1      -5.487  12.179  18.090  0.00  0.00    +0.000 C 
ATOM     33  F   UNL     1      -5.081  12.601  19.326  0.00  0.00    +0.000 F 
ATOM     34  F   UNL     1      -5.955  13.296  17.464  0.00  0.00    +0.000 F 
ATOM     35  F   UNL     1      -6.574  11.389  18.320  0.00  0.00    +0.000 F 
ENDBRANCH  30  32
ENDBRANCH   7  26
TORSDOF 4
ENDMDL
MODEL 3
REMARK VINA RESULT:      -7.9      2.179      6.474
REMARK  Name = 
REMARK  4 active torsions:
REMARK  status: ('A' for Active; 'I' for Inactive)
REMARK    1  A    between atoms: C_7  and  N_8
REMARK    2  A    between atoms: N_12  and  C_13
REMARK    3  A    between atoms: C_21  and  C_22
REMARK    4  A    between atoms: C_26  and  C_27
REMARK                            x       y       z     vdW  Elec       q    Type
REMARK                         _______ _______ _______ _____ _____    ______ ____
ROOT
ATOM      1  N   UNL     1       1.388   9.035  21.061  0.00  0.00    +0.000 N 
ATOM      2  C   UNL     1       0.741  10.145  20.516  0.00  0.00    +0.000 A 
ATOM      3  N   UNL     1       1.108  11.342  20.962  0.00  0.00    +0.000 NA
ATOM      4  C   UNL     1       0.442  12.377  20.465  0.00  0.00    +0.000 A 
ATOM      5  N   UNL     1       0.741  13.663  20.895  0.00  0.00    +0.000 N 
ATOM      6  N   UNL     1      -0.534  12.280  19.573  0.00  0.00    +0.000 NA
ATOM      7  C   UNL     1      -0.835  11.041  19.177  0.00  0.00    +0.000 A 
ATOM      8  N   UNL     1      -0.212   9.950  19.620  0.00  0.00    +0.000 NA
ATOM      9  H   UNL     1       2.114   9.352  21.691  0.00  0.00    +0.000 HD
ATOM     10  H   UNL     1       0.253  14.313  20.283  0.00  0.00    +0.000 HD
ENDROOT
BRANCH   1  17
ATOM     11  F   UNL     1       1.248   4.256  21.044  0.00  0.00    +0.000 F 
ATOM     12  C   UNL     1       1.608   5.394  20.437  0.00  0.00    +0.000 A 
ATOM     13  C   UNL     1       2.252   5.336  19.211  0.00  0.00    +0.000 A 
ATOM     14  C   UNL     1       2.608   6.523  18.593  0.00  0.00    +0.000 A 
ATOM     15  F   UNL     1       3.243   6.491  17.414  0.00  0.00    +0.000 F 
ATOM     16  C   UNL     1       2.323   7.754  19.181  0.00  0.00    +0.000 A 
ATOM     17  C   UNL     1       1.670   7.816  20.418  0.00  0.00    +0.000 A 
ATOM     18  C   UNL     1       1.325   6.615  21.049  0.00  0.00    +0.000 A 
ENDBRANCH   1  17
BRANCH   5  19
ATOM     19  C   UNL     1       2.121  13.960  21.234  0.00  0.00    +0.000 C 
ATOM     20  C   UNL     1       2.973  14.102  19.967  0.00  0.00    +0.000 C 
ATOM     21  C   UNL     1       4.087  15.052  20.377  0.00  0.00    +0.000 C 
ATOM     22  C   UNL     1       3.380  16.039  21.278  0.00  0.00    +0.000 C 
ATOM     23  F   UNL     1       2.894  17.063  20.537  0.00  0.00    +0.000 F 
ATOM     24  F   UNL     1       4.233  16.568  22.179  0.00  0.00    +0.000 F 
ATOM     25  C   UNL     1       2.237  15.307  21.956  0.00  0.00    +0.000 C 
ENDBRANCH   5  19
BRANCH   7  26
ATOM     26  C   UNL     1      -1.916  10.830  18.177  0.00  0.00    +0.000 A 
ATOM     27  C   UNL     1      -1.731  10.002  17.064  0.00  0.00    +0.000 A 
ATOM     28  C   UNL     1      -2.761   9.832  16.144  0.00  0.00    +0.000 A 
ATOM     29  C   UNL     1      -3.965  10.489  16.347  0.00  0.00    +0.000 A 
ATOM     30  C   UNL     1      -4.111  11.305  17.470  0.00  0.00    +0.000 A 
ATOM     31  N   UNL     1      -3.099  11.471  18.374  0.00  0.00    +0.000 NA
BRANCH  30  32
ATOM     32  C   UNL     1      -5.431  12.032  17.704  0.00  0.00    +0.000 C 
ATOM     33  F   UNL     1      -5.464  12.721  18.885  0.00  0.00    +0.000 F 
ATOM     34  F   UNL     1      -5.712  12.956  16.741  0.00  0.00    +0.000 F 
ATOM     35  F   UNL     1      -6.504  11.192  17.749  0.00  0.00    +0.000 F 
ENDBRANCH  30  32
ENDBRANCH   7  26
TORSDOF 4
ENDMDL
MODEL 4
REMARK VINA RESULT:      -7.9      2.727      3.746
REMARK  Name = 
REMARK  4 active torsions:
REMARK  status: ('A' for Active; 'I' for Inactive)
REMARK    1  A    between atoms: C_7  and  N_8
REMARK    2  A    between atoms: N_12  and  C_13
REMARK    3  A    between atoms: C_21  and  C_22
REMARK    4  A    between atoms: C_26  and  C_27
REMARK                            x       y       z     vdW  Elec       q    Type
REMARK                         _______ _______ _______ _____ _____    ______ ____
ROOT
ATOM      1  N   UNL     1       2.866  12.638  17.964  0.00  0.00    +0.000 N 
ATOM      2  C   UNL     1       1.871  11.688  18.196  0.00  0.00    +0.000 A 
ATOM      3  N   UNL     1       2.211  10.409  18.074  0.00  0.00    +0.000 NA
ATOM      4  C   UNL     1       1.234   9.528  18.249  0.00  0.00    +0.000 A 
ATOM      5  N   UNL     1       1.493   8.171  18.114  0.00  0.00    +0.000 N 
ATOM      6  N   UNL     1      -0.020   9.849  18.535  0.00  0.00    +0.000 NA
ATOM      7  C   UNL     1      -0.273  11.155  18.644  0.00  0.00    +0.000 A 
ATOM      8  N   UNL     1       0.650  12.104  18.490  0.00  0.00    +0.000 NA
ATOM      9  H   UNL     1       3.744  12.163  17.797  0.00  0.00    +0.000 HD
ATOM     10  H   UNL     1       0.677   7.667  18.450  0.00  0.00    +0.000 HD
ENDROOT
BRANCH   1  17
ATOM     11  F   UNL     1       3.050  17.401  17.587  0.00  0.00    +0.000 F 
ATOM     12  C   UNL     1       3.107  16.310  18.361  0.00  0.00    +0.000 A 
ATOM     13  C   UNL     1       3.302  16.454  19.726  0.00  0.00    +0.000 A 
ATOM     14  C   UNL     1       3.348  15.314  20.512  0.00  0.00    +0.000 A 
ATOM     15  F   UNL     1       3.549  15.429  21.832  0.00  0.00    +0.000 F 
ATOM     16  C   UNL     1       3.197  14.048  19.953  0.00  0.00    +0.000 A 
ATOM     17  C   UNL     1       2.996  13.898  18.575  0.00  0.00    +0.000 A 
ATOM     18  C   UNL     1       2.965  15.050  17.779  0.00  0.00    +0.000 A 
ENDBRANCH   1  17
BRANCH   5  19
ATOM     19  C   UNL     1       2.801   7.688  18.521  0.00  0.00    +0.000 C 
ATOM     20  C   UNL     1       2.668   6.489  19.467  0.00  0.00    +0.000 C 
ATOM     21  C   UNL     1       3.943   5.695  19.238  0.00  0.00    +0.000 C 
ATOM     22  C   UNL     1       4.167   5.831  17.748  0.00  0.00    +0.000 C 
ATOM     23  F   UNL     1       3.527   4.830  17.099  0.00  0.00    +0.000 F 
ATOM     24  F   UNL     1       5.478   5.729  17.446  0.00  0.00    +0.000 F 
ATOM     25  C   UNL     1       3.599   7.170  17.318  0.00  0.00    +0.000 C 
ENDBRANCH   5  19
BRANCH   7  26
ATOM     26  C   UNL     1      -1.652  11.615  18.964  0.00  0.00    +0.000 A 
ATOM     27  C   UNL     1      -1.945  12.262  20.170  0.00  0.00    +0.000 A 
ATOM     28  C   UNL     1      -3.247  12.672  20.441  0.00  0.00    +0.000 A 
ATOM     29  C   UNL     1      -4.240  12.434  19.503  0.00  0.00    +0.000 A 
ATOM     30  C   UNL     1      -3.907  11.786  18.313  0.00  0.00    +0.000 A 
ATOM     31  N   UNL     1      -2.629  11.383  18.047  0.00  0.00    +0.000 NA
BRANCH  30  32
ATOM     32  C   UNL     1      -4.992  11.518  17.275  0.00  0.00    +0.000 C 
ATOM     33  F   UNL     1      -5.547  12.662  16.770  0.00  0.00    +0.000 F 
ATOM     34  F   UNL     1      -4.538  10.829  16.190  0.00  0.00    +0.000 F 
ATOM     35  F   UNL     1      -6.040  10.800  17.769  0.00  0.00    +0.000 F 
ENDBRANCH  30  32
ENDBRANCH   7  26
TORSDOF 4
ENDMDL
MODEL 5
REMARK VINA RESULT:      -7.9      2.200      6.573
REMARK  Name = 
REMARK  4 active torsions:
REMARK  status: ('A' for Active; 'I' for Inactive)
REMARK    1  A    between atoms: C_7  and  N_8
REMARK    2  A    between atoms: N_12  and  C_13
REMARK    3  A    between atoms: C_21  and  C_22
REMARK    4  A    between atoms: C_26  and  C_27
REMARK                            x       y       z     vdW  Elec       q    Type
REMARK                         _______ _______ _______ _____ _____    ______ ____
ROOT
ATOM      1  N   UNL     1       1.381   9.029  21.134  0.00  0.00    +0.000 N 
ATOM      2  C   UNL     1       0.747  10.136  20.569  0.00  0.00    +0.000 A 
ATOM      3  N   UNL     1       1.120  11.336  21.001  0.00  0.00    +0.000 NA
ATOM      4  C   UNL     1       0.466  12.369  20.485  0.00  0.00    +0.000 A 
ATOM      5  N   UNL     1       0.772  13.659  20.899  0.00  0.00    +0.000 N 
ATOM      6  N   UNL     1      -0.505  12.268  19.588  0.00  0.00    +0.000 NA
ATOM      7  C   UNL     1      -0.814  11.026  19.207  0.00  0.00    +0.000 A 
ATOM      8  N   UNL     1      -0.202   9.935  19.669  0.00  0.00    +0.000 NA
ATOM      9  H   UNL     1       2.104   9.349  21.765  0.00  0.00    +0.000 HD
ATOM     10  H   UNL     1       0.294  14.304  20.274  0.00  0.00    +0.000 HD
ENDROOT
BRANCH   1  17
ATOM     11  F   UNL     1       3.218   6.595  17.452  0.00  0.00    +0.000 F 
ATOM     12  C   UNL     1       2.575   6.583  18.625  0.00  0.00    +0.000 A 
ATOM     13  C   UNL     1       2.193   5.371  19.180  0.00  0.00    +0.000 A 
ATOM     14  C   UNL     1       1.537   5.378  20.400  0.00  0.00    +0.000 A 
ATOM     15  F   UNL     1       1.147   4.220  20.947  0.00  0.00    +0.000 F 
ATOM     16  C   UNL     1       1.269   6.572  21.065  0.00  0.00    +0.000 A 
ATOM     17  C   UNL     1       1.656   7.798  20.510  0.00  0.00    +0.000 A 
ATOM     18  C   UNL     1       2.305   7.791  19.270  0.00  0.00    +0.000 A 
ENDBRANCH   1  17
BRANCH   5  19
ATOM     19  C   UNL     1       2.153  13.949  21.243  0.00  0.00    +0.000 C 
ATOM     20  C   UNL     1       3.011  14.084  19.979  0.00  0.00    +0.000 C 
ATOM     21  C   UNL     1       4.128  15.028  20.392  0.00  0.00    +0.000 C 
ATOM     22  C   UNL     1       3.422  16.022  21.286  0.00  0.00    +0.000 C 
ATOM     23  F   UNL     1       2.945  17.047  20.540  0.00  0.00    +0.000 F 
ATOM     24  F   UNL     1       4.274  16.549  22.190  0.00  0.00    +0.000 F 
ATOM     25  C   UNL     1       2.273  15.298  21.962  0.00  0.00    +0.000 C 
ENDBRANCH   5  19
BRANCH   7  26
ATOM     26  C   UNL     1      -1.890  10.809  18.202  0.00  0.00    +0.000 A 
ATOM     27  C   UNL     1      -1.697   9.980  17.092  0.00  0.00    +0.000 A 
ATOM     28  C   UNL     1      -2.722   9.805  16.168  0.00  0.00    +0.000 A 
ATOM     29  C   UNL     1      -3.929  10.458  16.365  0.00  0.00    +0.000 A 
ATOM     30  C   UNL     1      -4.083  11.276  17.485  0.00  0.00    +0.000 A 
ATOM     31  N   UNL     1      -3.075  11.447  18.393  0.00  0.00    +0.000 NA
BRANCH  30  32
ATOM     32  C   UNL     1      -5.406  11.999  17.711  0.00  0.00    +0.000 C 
ATOM     33  F   UNL     1      -5.443  12.696  18.888  0.00  0.00    +0.000 F 
ATOM     34  F   UNL     1      -5.689  12.915  16.742  0.00  0.00    +0.000 F 
ATOM     35  F   UNL     1      -6.476  11.156  17.760  0.00  0.00    +0.000 F 
ENDBRANCH  30  32
ENDBRANCH   7  26
TORSDOF 4
ENDMDL
MODEL 6
REMARK VINA RESULT:      -7.8      3.692      8.239
REMARK  Name = 
REMARK  4 active torsions:
REMARK  status: ('A' for Active; 'I' for Inactive)
REMARK    1  A    between atoms: C_7  and  N_8
REMARK    2  A    between atoms: N_12  and  C_13
REMARK    3  A    between atoms: C_21  and  C_22
REMARK    4  A    between atoms: C_26  and  C_27
REMARK                            x       y       z     vdW  Elec       q    Type
REMARK                         _______ _______ _______ _____ _____    ______ ____
ROOT
ATOM      1  N   UNL     1      -0.160  14.882  22.038  0.00  0.00    +0.000 N 
ATOM      2  C   UNL     1      -0.659  13.589  22.198  0.00  0.00    +0.000 A 
ATOM      3  N   UNL     1      -1.785  13.454  22.891  0.00  0.00    +0.000 NA
ATOM      4  C   UNL     1      -2.210  12.210  23.072  0.00  0.00    +0.000 A 
ATOM      5  N   UNL     1      -3.365  11.974  23.806  0.00  0.00    +0.000 N 
ATOM      6  N   UNL     1      -1.592  11.132  22.610  0.00  0.00    +0.000 NA
ATOM      7  C   UNL     1      -0.470  11.360  21.923  0.00  0.00    +0.000 A 
ATOM      8  N   UNL     1       0.022  12.576  21.689  0.00  0.00    +0.000 NA
ATOM      9  H   UNL     1      -0.813  15.541  22.442  0.00  0.00    +0.000 HD
ATOM     10  H   UNL     1      -3.611  10.994  23.686  0.00  0.00    +0.000 HD
ENDROOT
BRANCH   1  17
ATOM     11  F   UNL     1      -0.113  16.938  17.722  0.00  0.00    +0.000 F 
ATOM     12  C   UNL     1       0.567  16.406  18.744  0.00  0.00    +0.000 A 
ATOM     13  C   UNL     1       1.952  16.354  18.686  0.00  0.00    +0.000 A 
ATOM     14  C   UNL     1       2.639  15.809  19.758  0.00  0.00    +0.000 A 
ATOM     15  F   UNL     1       3.976  15.735  19.718  0.00  0.00    +0.000 F 
ATOM     16  C   UNL     1       1.963  15.327  20.877  0.00  0.00    +0.000 A 
ATOM     17  C   UNL     1       0.565  15.382  20.941  0.00  0.00    +0.000 A 
ATOM     18  C   UNL     1      -0.130  15.919  19.850  0.00  0.00    +0.000 A 
ENDBRANCH   1  17
BRANCH   5  19
ATOM     19  C   UNL     1      -4.433  12.954  23.722  0.00  0.00    +0.000 C 
ATOM     20  C   UNL     1      -5.136  12.877  22.362  0.00  0.00    +0.000 C 
ATOM     21  C   UNL     1      -6.548  13.361  22.649  0.00  0.00    +0.000 C 
ATOM     22  C   UNL     1      -6.840  12.774  24.011  0.00  0.00    +0.000 C 
ATOM     23  F   UNL     1      -7.382  11.541  23.868  0.00  0.00    +0.000 F 
ATOM     24  F   UNL     1      -7.736  13.529  24.680  0.00  0.00    +0.000 F 
ATOM     25  C   UNL     1      -5.526  12.674  24.761  0.00  0.00    +0.000 C 
ENDBRANCH   5  19
BRANCH   7  26
ATOM     26  C   UNL     1       0.296  10.214  21.362  0.00  0.00    +0.000 A 
ATOM     27  C   UNL     1       0.749   9.169  22.176  0.00  0.00    +0.000 A 
ATOM     28  C   UNL     1       1.469   8.116  21.620  0.00  0.00    +0.000 A 
ATOM     29  C   UNL     1       1.726   8.117  20.258  0.00  0.00    +0.000 A 
ATOM     30  C   UNL     1       1.257   9.176  19.480  0.00  0.00    +0.000 A 
ATOM     31  N   UNL     1       0.550  10.211  20.026  0.00  0.00    +0.000 NA
BRANCH  30  32
ATOM     32  C   UNL     1       1.534   9.187  17.981  0.00  0.00    +0.000 C 
ATOM     33  F   UNL     1       0.395   9.217  17.223  0.00  0.00    +0.000 F 
ATOM     34  F   UNL     1       2.262  10.267  17.578  0.00  0.00    +0.000 F 
ATOM     35  F   UNL     1       2.218   8.088  17.554  0.00  0.00    +0.000 F 
ENDBRANCH  30  32
ENDBRANCH   7  26
TORSDOF 4
ENDMDL
MODEL 7
REMARK VINA RESULT:      -7.8      2.619      3.469
REMARK  Name = 
REMARK  4 active torsions:
REMARK  status: ('A' for Active; 'I' for Inactive)
REMARK    1  A    between atoms: C_7  and  N_8
REMARK    2  A    between atoms: N_12  and  C_13
REMARK    3  A    between atoms: C_21  and  C_22
REMARK    4  A    between atoms: C_26  and  C_27
REMARK                            x       y       z     vdW  Elec       q    Type
REMARK                         _______ _______ _______ _____ _____    ______ ____
ROOT
ATOM      1  N   UNL     1       2.834  12.682  18.080  0.00  0.00    +0.000 N 
ATOM      2  C   UNL     1       1.837  11.723  18.267  0.00  0.00    +0.000 A 
ATOM      3  N   UNL     1       2.183  10.450  18.110  0.00  0.00    +0.000 NA
ATOM      4  C   UNL     1       1.206   9.562  18.242  0.00  0.00    +0.000 A 
ATOM      5  N   UNL     1       1.471   8.210  18.068  0.00  0.00    +0.000 N 
ATOM      6  N   UNL     1      -0.054   9.870  18.517  0.00  0.00    +0.000 NA
ATOM      7  C   UNL     1      -0.312  11.172  18.662  0.00  0.00    +0.000 A 
ATOM      8  N   UNL     1       0.611  12.127  18.553  0.00  0.00    +0.000 NA
ATOM      9  H   UNL     1       3.715  12.215  17.913  0.00  0.00    +0.000 HD
ATOM     10  H   UNL     1       0.650   7.693  18.375  0.00  0.00    +0.000 HD
ENDROOT
BRANCH   1  17
ATOM     11  F   UNL     1       3.616  15.179  22.082  0.00  0.00    +0.000 F 
ATOM     12  C   UNL     1       3.328  15.171  20.775  0.00  0.00    +0.000 A 
ATOM     13  C   UNL     1       3.144  16.375  20.112  0.00  0.00    +0.000 A 
ATOM     14  C   UNL     1       2.856  16.347  18.757  0.00  0.00    +0.000 A 
ATOM     15  F   UNL     1       2.661  17.498  18.099  0.00  0.00    +0.000 F 
ATOM     16  C   UNL     1       2.760  15.141  18.067  0.00  0.00    +0.000 A 
ATOM     17  C   UNL     1       2.950  13.924  18.732  0.00  0.00    +0.000 A 
ATOM     18  C   UNL     1       3.224  13.952  20.105  0.00  0.00    +0.000 A 
ENDBRANCH   1  17
BRANCH   5  19
ATOM     19  C   UNL     1       2.773   7.717  18.481  0.00  0.00    +0.000 C 
ATOM     20  C   UNL     1       2.627   6.535  19.446  0.00  0.00    +0.000 C 
ATOM     21  C   UNL     1       3.892   5.722  19.228  0.00  0.00    +0.000 C 
ATOM     22  C   UNL     1       4.115   5.832  17.737  0.00  0.00    +0.000 C 
ATOM     23  F   UNL     1       3.462   4.828  17.103  0.00  0.00    +0.000 F 
ATOM     24  F   UNL     1       5.425   5.709  17.434  0.00  0.00    +0.000 F 
ATOM     25  C   UNL     1       3.563   7.171  17.285  0.00  0.00    +0.000 C 
ENDBRANCH   5  19
BRANCH   7  26
ATOM     26  C   UNL     1      -1.697  11.619  18.974  0.00  0.00    +0.000 A 
ATOM     27  C   UNL     1      -2.010  12.235  20.191  0.00  0.00    +0.000 A 
ATOM     28  C   UNL     1      -3.317  12.633  20.454  0.00  0.00    +0.000 A 
ATOM     29  C   UNL     1      -4.296  12.414  19.497  0.00  0.00    +0.000 A 
ATOM     30  C   UNL     1      -3.944  11.797  18.296  0.00  0.00    +0.000 A 
ATOM     31  N   UNL     1      -2.660  11.405  18.038  0.00  0.00    +0.000 NA
BRANCH  30  32
ATOM     32  C   UNL     1      -5.013  11.550  17.237  0.00  0.00    +0.000 C 
ATOM     33  F   UNL     1      -6.077  10.830  17.705  0.00  0.00    +0.000 F 
ATOM     34  F   UNL     1      -5.549  12.701  16.738  0.00  0.00    +0.000 F 
ATOM     35  F   UNL     1      -4.552  10.850  16.162  0.00  0.00    +0.000 F 
ENDBRANCH  30  32
ENDBRANCH   7  26
TORSDOF 4
ENDMDL
MODEL 8
REMARK VINA RESULT:      -7.7      3.854      7.457
REMARK  Name = 
REMARK  4 active torsions:
REMARK  status: ('A' for Active; 'I' for Inactive)
REMARK    1  A    between atoms: C_7  and  N_8
REMARK    2  A    between atoms: N_12  and  C_13
REMARK    3  A    between atoms: C_21  and  C_22
REMARK    4  A    between atoms: C_26  and  C_27
REMARK                            x       y       z     vdW  Elec       q    Type
REMARK                         _______ _______ _______ _____ _____    ______ ____
ROOT
ATOM      1  N   UNL     1       3.972   4.323  19.511  0.00  0.00    +0.000 N 
ATOM      2  C   UNL     1       3.944   5.563  18.872  0.00  0.00    +0.000 A 
ATOM      3  N   UNL     1       4.948   5.846  18.049  0.00  0.00    +0.000 NA
ATOM      4  C   UNL     1       4.924   7.051  17.494  0.00  0.00    +0.000 A 
ATOM      5  N   UNL     1       5.948   7.441  16.641  0.00  0.00    +0.000 N 
ATOM      6  N   UNL     1       3.977   7.954  17.707  0.00  0.00    +0.000 NA
ATOM      7  C   UNL     1       3.004   7.586  18.545  0.00  0.00    +0.000 A 
ATOM      8  N   UNL     1       2.950   6.394  19.138  0.00  0.00    +0.000 NA
ATOM      9  H   UNL     1       4.764   3.794  19.170  0.00  0.00    +0.000 HD
ATOM     10  H   UNL     1       5.663   8.309  16.195  0.00  0.00    +0.000 HD
ENDROOT
BRANCH   1  17
ATOM     11  F   UNL     1       0.182   1.678  18.290  0.00  0.00    +0.000 F 
ATOM     12  C   UNL     1       0.939   2.217  19.252  0.00  0.00    +0.000 A 
ATOM     13  C   UNL     1       0.610   1.998  20.581  0.00  0.00    +0.000 A 
ATOM     14  C   UNL     1       1.411   2.556  21.563  0.00  0.00    +0.000 A 
ATOM     15  F   UNL     1       1.103   2.369  22.853  0.00  0.00    +0.000 F 
ATOM     16  C   UNL     1       2.530   3.318  21.232  0.00  0.00    +0.000 A 
ATOM     17  C   UNL     1       2.868   3.538  19.891  0.00  0.00    +0.000 A 
ATOM     18  C   UNL     1       2.049   2.986  18.899  0.00  0.00    +0.000 A 
ENDBRANCH   1  17
BRANCH   5  19
ATOM     19  C   UNL     1       6.560   6.421  15.807  0.00  0.00    +0.000 C 
ATOM     20  C   UNL     1       7.204   5.329  16.670  0.00  0.00    +0.000 C 
ATOM     21  C   UNL     1       7.144   4.087  15.796  0.00  0.00    +0.000 C 
ATOM     22  C   UNL     1       5.806   4.220  15.105  0.00  0.00    +0.000 C 
ATOM     23  F   UNL     1       4.845   3.633  15.859  0.00  0.00    +0.000 F 
ATOM     24  F   UNL     1       5.814   3.592  13.911  0.00  0.00    +0.000 F 
ATOM     25  C   UNL     1       5.510   5.699  14.954  0.00  0.00    +0.000 C 
ENDBRANCH   5  19
BRANCH   7  26
ATOM     26  C   UNL     1       1.896   8.531  18.847  0.00  0.00    +0.000 A 
ATOM     27  C   UNL     1       1.360   9.369  17.863  0.00  0.00    +0.000 A 
ATOM     28  C   UNL     1       0.329  10.247  18.182  0.00  0.00    +0.000 A 
ATOM     29  C   UNL     1      -0.158  10.275  19.480  0.00  0.00    +0.000 A 
ATOM     30  C   UNL     1       0.402   9.423  20.433  0.00  0.00    +0.000 A 
ATOM     31  N   UNL     1       1.415   8.561  20.119  0.00  0.00    +0.000 NA
BRANCH  30  32
ATOM     32  C   UNL     1      -0.126   9.446  21.863  0.00  0.00    +0.000 C 
ATOM     33  F   UNL     1      -0.902   8.361  22.168  0.00  0.00    +0.000 F 
ATOM     34  F   UNL     1       0.864   9.454  22.800  0.00  0.00    +0.000 F 
ATOM     35  F   UNL     1      -0.909  10.531  22.128  0.00  0.00    +0.000 F 
ENDBRANCH  30  32
ENDBRANCH   7  26
TORSDOF 4
ENDMDL
MODEL 9
REMARK VINA RESULT:      -7.6      0.859      1.134
REMARK  Name = 
REMARK  4 active torsions:
REMARK  status: ('A' for Active; 'I' for Inactive)
REMARK    1  A    between atoms: C_7  and  N_8
REMARK    2  A    between atoms: N_12  and  C_13
REMARK    3  A    between atoms: C_21  and  C_22
REMARK    4  A    between atoms: C_26  and  C_27
REMARK                            x       y       z     vdW  Elec       q    Type
REMARK                         _______ _______ _______ _____ _____    ______ ____
ROOT
ATOM      1  N   UNL     1       1.381  12.510  20.123  0.00  0.00    +0.000 N 
ATOM      2  C   UNL     1       0.773  11.558  19.303  0.00  0.00    +0.000 A 
ATOM      3  N   UNL     1       1.518  10.530  18.910  0.00  0.00    +0.000 NA
ATOM      4  C   UNL     1       0.932   9.667  18.090  0.00  0.00    +0.000 A 
ATOM      5  N   UNL     1       1.645   8.577  17.607  0.00  0.00    +0.000 N 
ATOM      6  N   UNL     1      -0.318   9.773  17.661  0.00  0.00    +0.000 NA
ATOM      7  C   UNL     1      -0.996  10.833  18.108  0.00  0.00    +0.000 A 
ATOM      8  N   UNL     1      -0.485  11.742  18.938  0.00  0.00    +0.000 NA
ATOM      9  H   UNL     1       2.319  12.204  20.345  0.00  0.00    +0.000 HD
ATOM     10  H   UNL     1       0.984   7.958  17.145  0.00  0.00    +0.000 HD
ENDROOT
BRANCH   1  17
ATOM     11  F   UNL     1      -1.863  12.900  23.614  0.00  0.00    +0.000 F 
ATOM     12  C   UNL     1      -0.896  13.465  22.880  0.00  0.00    +0.000 A 
ATOM     13  C   UNL     1      -0.539  14.782  23.124  0.00  0.00    +0.000 A 
ATOM     14  C   UNL     1       0.470  15.346  22.362  0.00  0.00    +0.000 A 
ATOM     15  F   UNL     1       0.822  16.622  22.571  0.00  0.00    +0.000 F 
ATOM     16  C   UNL     1       1.123  14.612  21.375  0.00  0.00    +0.000 A 
ATOM     17  C   UNL     1       0.768  13.279  21.128  0.00  0.00    +0.000 A 
ATOM     18  C   UNL     1      -0.264  12.715  21.888  0.00  0.00    +0.000 A 
ENDBRANCH   1  17
BRANCH   5  19
ATOM     19  C   UNL     1       2.637   7.978  18.481  0.00  0.00    +0.000 C 
ATOM     20  C   UNL     1       2.012   6.863  19.329  0.00  0.00    +0.000 C 
ATOM     21  C   UNL     1       3.170   5.918  19.606  0.00  0.00    +0.000 C 
ATOM     22  C   UNL     1       3.943   5.935  18.306  0.00  0.00    +0.000 C 
ATOM     23  F   UNL     1       3.466   4.972  17.481  0.00  0.00    +0.000 F 
ATOM     24  F   UNL     1       5.248   5.667  18.518  0.00  0.00    +0.000 F 
ATOM     25  C   UNL     1       3.749   7.299  17.673  0.00  0.00    +0.000 C 
ENDBRANCH   5  19
BRANCH   7  26
ATOM     26  C   UNL     1      -2.407  11.038  17.685  0.00  0.00    +0.000 A 
ATOM     27  C   UNL     1      -2.822  10.775  16.375  0.00  0.00    +0.000 A 
ATOM     28  C   UNL     1      -4.149  10.985  16.010  0.00  0.00    +0.000 A 
ATOM     29  C   UNL     1      -5.046  11.452  16.958  0.00  0.00    +0.000 A 
ATOM     30  C   UNL     1      -4.593  11.702  18.254  0.00  0.00    +0.000 A 
ATOM     31  N   UNL     1      -3.290  11.496  18.612  0.00  0.00    +0.000 NA
BRANCH  30  32
ATOM     32  C   UNL     1      -5.570  12.216  19.305  0.00  0.00    +0.000 C 
ATOM     33  F   UNL     1      -4.995  12.394  20.534  0.00  0.00    +0.000 F 
ATOM     34  F   UNL     1      -6.115  13.425  18.985  0.00  0.00    +0.000 F 
ATOM     35  F   UNL     1      -6.619  11.372  19.520  0.00  0.00    +0.000 F 
ENDBRANCH  30  32
ENDBRANCH   7  26
TORSDOF 4
ENDMDL
