MODEL 1
REMARK VINA RESULT:      -9.4      0.000      0.000
REMARK  Name = 
REMARK  6 active torsions:
REMARK  status: ('A' for Active; 'I' for Inactive)
REMARK    1  A    between atoms: C_2  and  C_3
REMARK    2  A    between atoms: C_8  and  N_9
REMARK    3  A    between atoms: C_11  and  C_12
REMARK    4  A    between atoms: N_16  and  C_17
REMARK    5  A    between atoms: C_20  and  S_21
REMARK    6  A    between atoms: S_21  and  N_24
REMARK                            x       y       z     vdW  Elec       q    Type
REMARK                         _______ _______ _______ _____ _____    ______ ____
ROOT
ATOM      1  N   UNL     1       4.164   5.260  18.926  0.00  0.00    +0.000 N 
ATOM      2  C   UNL     1       3.853   4.091  19.539  0.00  0.00    +0.000 A 
ATOM      3  C   UNL     1       2.770   4.357  20.360  0.00  0.00    +0.000 A 
ATOM      4  C   UNL     1       2.560   5.770  20.218  0.00  0.00    +0.000 A 
ATOM      5  N   UNL     1       1.586   6.498  20.826  0.00  0.00    +0.000 N 
ATOM      6  N   UNL     1       3.439   6.288  19.354  0.00  0.00    +0.000 NA
ATOM      7  H   UNL     1       1.002   6.045  21.526  0.00  0.00    +0.000 HD
ENDROOT
BRANCH   1  13
ATOM      8  C   UNL     1       6.411   4.671  18.056  0.00  0.00    +0.000 C 
ATOM      9  C   UNL     1       7.341   4.788  16.836  0.00  0.00    +0.000 C 
ATOM     10  C   UNL     1       6.640   4.378  15.547  0.00  0.00    +0.000 C 
ATOM     11  C   UNL     1       5.400   5.230  15.310  0.00  0.00    +0.000 C 
ATOM     12  C   UNL     1       4.434   5.140  16.486  0.00  0.00    +0.000 C 
ATOM     13  C   UNL     1       5.107   5.472  17.830  0.00  0.00    +0.000 C 
BRANCH   8  15
ATOM     14  N   UNL     1       7.659   5.509  20.217  0.00  0.00    +0.000 NA
ATOM     15  C   UNL     1       7.120   5.164  19.257  0.00  0.00    +0.000 C 
ENDBRANCH   8  15
ENDBRANCH   1  13
BRANCH   5  16
ATOM     16  C   UNL     1       1.358   7.896  20.749  0.00  0.00    +0.000 A 
ATOM     17  C   UNL     1       0.943   8.593  21.892  0.00  0.00    +0.000 A 
ATOM     18  C   UNL     1       0.705   9.971  21.846  0.00  0.00    +0.000 A 
ATOM     19  C   UNL     1       0.889  10.668  20.648  0.00  0.00    +0.000 A 
ATOM     20  C   UNL     1       1.232   9.988  19.481  0.00  0.00    +0.000 A 
ATOM     21  C   UNL     1       1.462   8.610  19.543  0.00  0.00    +0.000 A 
BRANCH  19  22
ATOM     22  S   UNL     1       0.679  12.435  20.634  0.00  0.00    +0.000 S 
ATOM     23  O   UNL     1      -0.645  12.742  21.131  0.00  0.00    +0.000 OA
ATOM     24  O   UNL     1       1.858  13.003  21.261  0.00  0.00    +0.000 OA
BRANCH  22  25
ATOM     25  N   UNL     1       0.778  12.845  18.997  0.00  0.00    +0.000 N 
ATOM     26  C   UNL     1       1.725  13.833  18.663  0.00  0.00    +0.000 A 
ATOM     27  C   UNL     1       3.054  13.541  18.419  0.00  0.00    +0.000 A 
ATOM     28  C   UNL     1       3.892  14.593  18.058  0.00  0.00    +0.000 A 
ATOM     29  C   UNL     1       3.374  15.884  17.985  0.00  0.00    +0.000 A 
ATOM     30  C   UNL     1       2.031  16.067  18.270  0.00  0.00    +0.000 A 
ATOM     31  N   UNL     1       1.188  15.063  18.597  0.00  0.00    +0.000 NA
ATOM     32  H   UNL     1      -0.140  13.136  18.664  0.00  0.00    +0.000 HD
ENDBRANCH  22  25
ENDBRANCH  19  22
ENDBRANCH   5  16
BRANCH   3  33
ATOM     33  C   UNL     1       2.027   3.375  21.132  0.00  0.00    +0.000 C 
ATOM     34  N   UNL     1       0.753   3.102  20.710  0.00  0.00    +0.000 N 
ATOM     35  O   UNL     1       2.491   2.795  22.108  0.00  0.00    +0.000 OA
ATOM     36  H   UNL     1       0.370   3.426  19.834  0.00  0.00    +0.000 HD
ATOM     37  H   UNL     1       0.236   2.393  21.216  0.00  0.00    +0.000 HD
ENDBRANCH   3  33
TORSDOF 6
ENDMDL
MODEL 2
REMARK VINA RESULT:      -9.3      2.253      3.200
REMARK  Name = 
REMARK  6 active torsions:
REMARK  status: ('A' for Active; 'I' for Inactive)
REMARK    1  A    between atoms: C_2  and  C_3
REMARK    2  A    between atoms: C_8  and  N_9
REMARK    3  A    between atoms: C_11  and  C_12
REMARK    4  A    between atoms: N_16  and  C_17
REMARK    5  A    between atoms: C_20  and  S_21
REMARK    6  A    between atoms: S_21  and  N_24
REMARK                            x       y       z     vdW  Elec       q    Type
REMARK                         _______ _______ _______ _____ _____    ______ ____
ROOT
ATOM      1  N   UNL     1       4.202   5.167  18.901  0.00  0.00    +0.000 N 
ATOM      2  C   UNL     1       3.918   4.010  19.551  0.00  0.00    +0.000 A 
ATOM      3  C   UNL     1       2.836   4.280  20.371  0.00  0.00    +0.000 A 
ATOM      4  C   UNL     1       2.596   5.683  20.188  0.00  0.00    +0.000 A 
ATOM      5  N   UNL     1       1.611   6.409  20.780  0.00  0.00    +0.000 N 
ATOM      6  N   UNL     1       3.460   6.192  19.303  0.00  0.00    +0.000 NA
ATOM      7  H   UNL     1       1.041   5.966  21.497  0.00  0.00    +0.000 HD
ENDROOT
BRANCH   1  13
ATOM      8  C   UNL     1       6.463   4.612  18.042  0.00  0.00    +0.000 C 
ATOM      9  C   UNL     1       7.384   4.710  16.814  0.00  0.00    +0.000 C 
ATOM     10  C   UNL     1       6.690   4.231  15.545  0.00  0.00    +0.000 C 
ATOM     11  C   UNL     1       5.424   5.037  15.283  0.00  0.00    +0.000 C 
ATOM     12  C   UNL     1       4.466   4.963  16.465  0.00  0.00    +0.000 C 
ATOM     13  C   UNL     1       5.134   5.365  17.793  0.00  0.00    +0.000 C 
BRANCH   8  15
ATOM     14  N   UNL     1       7.682   5.575  20.167  0.00  0.00    +0.000 NA
ATOM     15  C   UNL     1       7.161   5.170  19.220  0.00  0.00    +0.000 C 
ENDBRANCH   8  15
ENDBRANCH   1  13
BRANCH   5  16
ATOM     16  C   UNL     1       1.354   7.799  20.663  0.00  0.00    +0.000 A 
ATOM     17  C   UNL     1       1.390   8.406  19.400  0.00  0.00    +0.000 A 
ATOM     18  C   UNL     1       1.146   9.776  19.255  0.00  0.00    +0.000 A 
ATOM     19  C   UNL     1       0.856  10.553  20.379  0.00  0.00    +0.000 A 
ATOM     20  C   UNL     1       0.885   9.990  21.654  0.00  0.00    +0.000 A 
ATOM     21  C   UNL     1       1.134   8.620  21.783  0.00  0.00    +0.000 A 
BRANCH  19  22
ATOM     22  S   UNL     1       0.451  12.272  20.161  0.00  0.00    +0.000 S 
ATOM     23  O   UNL     1       1.551  12.920  19.482  0.00  0.00    +0.000 OA
ATOM     24  O   UNL     1      -0.893  12.321  19.614  0.00  0.00    +0.000 OA
BRANCH  22  25
ATOM     25  N   UNL     1       0.332  12.867  21.740  0.00  0.00    +0.000 N 
ATOM     26  C   UNL     1      -0.974  13.016  22.248  0.00  0.00    +0.000 A 
ATOM     27  C   UNL     1      -1.664  11.979  22.848  0.00  0.00    +0.000 A 
ATOM     28  C   UNL     1      -2.934  12.253  23.350  0.00  0.00    +0.000 A 
ATOM     29  C   UNL     1      -3.464  13.533  23.206  0.00  0.00    +0.000 A 
ATOM     30  C   UNL     1      -2.693  14.493  22.570  0.00  0.00    +0.000 A 
ATOM     31  N   UNL     1      -1.448  14.264  22.097  0.00  0.00    +0.000 NA
ATOM     32  H   UNL     1       0.819  13.759  21.803  0.00  0.00    +0.000 HD
ENDBRANCH  22  25
ENDBRANCH  19  22
ENDBRANCH   5  16
BRANCH   3  33
ATOM     33  C   UNL     1       2.117   3.306  21.176  0.00  0.00    +0.000 C 
ATOM     34  N   UNL     1       0.815   3.064  20.826  0.00  0.00    +0.000 N 
ATOM     35  O   UNL     1       2.625   2.708  22.119  0.00  0.00    +0.000 OA
ATOM     36  H   UNL     1       0.391   3.403  19.976  0.00  0.00    +0.000 HD
ATOM     37  H   UNL     1       0.314   2.361  21.355  0.00  0.00    +0.000 HD
ENDBRANCH   3  33
TORSDOF 6
ENDMDL
MODEL 3
REMARK VINA RESULT:      -9.2      2.176      3.188
REMARK  Name = 
REMARK  6 active torsions:
REMARK  status: ('A' for Active; 'I' for Inactive)
REMARK    1  A    between atoms: C_2  and  C_3
REMARK    2  A    between atoms: C_8  and  N_9
REMARK    3  A    between atoms: C_11  and  C_12
REMARK    4  A    between atoms: N_16  and  C_17
REMARK    5  A    between atoms: C_20  and  S_21
REMARK    6  A    between atoms: S_21  and  N_24
REMARK                            x       y       z     vdW  Elec       q    Type
REMARK                         _______ _______ _______ _____ _____    ______ ____
ROOT
ATOM      1  N   UNL     1       4.166   5.208  18.928  0.00  0.00    +0.000 N 
ATOM      2  C   UNL     1       3.854   4.047  19.556  0.00  0.00    +0.000 A 
ATOM      3  C   UNL     1       2.773   4.327  20.375  0.00  0.00    +0.000 A 
ATOM      4  C   UNL     1       2.565   5.738  20.215  0.00  0.00    +0.000 A 
ATOM      5  N   UNL     1       1.593   6.475  20.814  0.00  0.00    +0.000 N 
ATOM      6  N   UNL     1       3.445   6.243  19.343  0.00  0.00    +0.000 NA
ATOM      7  H   UNL     1       1.009   6.033  21.521  0.00  0.00    +0.000 HD
ENDROOT
BRANCH   1  13
ATOM      8  C   UNL     1       6.429   4.640  18.084  0.00  0.00    +0.000 C 
ATOM      9  C   UNL     1       7.361   4.737  16.864  0.00  0.00    +0.000 C 
ATOM     10  C   UNL     1       6.674   4.269  15.587  0.00  0.00    +0.000 C 
ATOM     11  C   UNL     1       5.417   5.085  15.318  0.00  0.00    +0.000 C 
ATOM     12  C   UNL     1       4.449   5.014  16.493  0.00  0.00    +0.000 C 
ATOM     13  C   UNL     1       5.109   5.404  17.828  0.00  0.00    +0.000 C 
BRANCH   8  15
ATOM     14  N   UNL     1       7.685   5.573  20.201  0.00  0.00    +0.000 NA
ATOM     15  C   UNL     1       7.123   5.187  19.271  0.00  0.00    +0.000 C 
ENDBRANCH   8  15
ENDBRANCH   1  13
BRANCH   5  16
ATOM     16  C   UNL     1       1.367   7.873  20.719  0.00  0.00    +0.000 A 
ATOM     17  C   UNL     1       1.403   8.496  19.465  0.00  0.00    +0.000 A 
ATOM     18  C   UNL     1       1.190   9.874  19.341  0.00  0.00    +0.000 A 
ATOM     19  C   UNL     1       0.931  10.641  20.479  0.00  0.00    +0.000 A 
ATOM     20  C   UNL     1       0.960  10.059  21.746  0.00  0.00    +0.000 A 
ATOM     21  C   UNL     1       1.178   8.682  21.853  0.00  0.00    +0.000 A 
BRANCH  19  22
ATOM     22  S   UNL     1       0.563  12.372  20.290  0.00  0.00    +0.000 S 
ATOM     23  O   UNL     1       1.035  13.072  21.466  0.00  0.00    +0.000 OA
ATOM     24  O   UNL     1       1.017  12.756  18.966  0.00  0.00    +0.000 OA
BRANCH  22  25
ATOM     25  N   UNL     1      -1.126  12.427  20.239  0.00  0.00    +0.000 N 
ATOM     26  C   UNL     1      -1.764  12.918  21.396  0.00  0.00    +0.000 A 
ATOM     27  C   UNL     1      -1.970  14.268  21.618  0.00  0.00    +0.000 A 
ATOM     28  C   UNL     1      -2.648  14.635  22.778  0.00  0.00    +0.000 A 
ATOM     29  C   UNL     1      -3.061  13.648  23.670  0.00  0.00    +0.000 A 
ATOM     30  C   UNL     1      -2.784  12.327  23.358  0.00  0.00    +0.000 A 
ATOM     31  N   UNL     1      -2.152  11.938  22.228  0.00  0.00    +0.000 NA
ATOM     32  H   UNL     1      -1.489  11.500  20.026  0.00  0.00    +0.000 HD
ENDBRANCH  22  25
ENDBRANCH  19  22
ENDBRANCH   5  16
BRANCH   3  33
ATOM     33  C   UNL     1       2.028   3.355  21.159  0.00  0.00    +0.000 C 
ATOM     34  N   UNL     1       0.760   3.065  20.731  0.00  0.00    +0.000 N 
ATOM     35  O   UNL     1       2.487   2.801  22.153  0.00  0.00    +0.000 OA
ATOM     36  H   UNL     1       0.385   3.367  19.845  0.00  0.00    +0.000 HD
ATOM     37  H   UNL     1       0.244   2.364  21.246  0.00  0.00    +0.000 HD
ENDBRANCH   3  33
TORSDOF 6
ENDMDL
MODEL 4
REMARK VINA RESULT:      -9.2      0.835      1.422
REMARK  Name = 
REMARK  6 active torsions:
REMARK  status: ('A' for Active; 'I' for Inactive)
REMARK    1  A    between atoms: C_2  and  C_3
REMARK    2  A    between atoms: C_8  and  N_9
REMARK    3  A    between atoms: C_11  and  C_12
REMARK    4  A    between atoms: N_16  and  C_17
REMARK    5  A    between atoms: C_20  and  S_21
REMARK    6  A    between atoms: S_21  and  N_24
REMARK                            x       y       z     vdW  Elec       q    Type
REMARK                         _______ _______ _______ _____ _____    ______ ____
ROOT
ATOM      1  N   UNL     1       4.196   5.285  18.910  0.00  0.00    +0.000 N 
ATOM      2  C   UNL     1       3.880   4.145  19.574  0.00  0.00    +0.000 A 
ATOM      3  C   UNL     1       2.786   4.447  20.367  0.00  0.00    +0.000 A 
ATOM      4  C   UNL     1       2.574   5.851  20.156  0.00  0.00    +0.000 A 
ATOM      5  N   UNL     1       1.590   6.604  20.715  0.00  0.00    +0.000 N 
ATOM      6  N   UNL     1       3.464   6.330  19.280  0.00  0.00    +0.000 NA
ATOM      7  H   UNL     1       0.999   6.183  21.429  0.00  0.00    +0.000 HD
ENDROOT
BRANCH   1  13
ATOM      8  C   UNL     1       6.439   4.627  18.078  0.00  0.00    +0.000 C 
ATOM      9  C   UNL     1       7.382   4.692  16.864  0.00  0.00    +0.000 C 
ATOM     10  C   UNL     1       6.684   4.261  15.580  0.00  0.00    +0.000 C 
ATOM     11  C   UNL     1       5.464   5.131  15.308  0.00  0.00    +0.000 C 
ATOM     12  C   UNL     1       4.486   5.093  16.476  0.00  0.00    +0.000 C 
ATOM     13  C   UNL     1       5.153   5.448  17.818  0.00  0.00    +0.000 C 
BRANCH   8  15
ATOM     14  N   UNL     1       7.722   5.567  20.175  0.00  0.00    +0.000 NA
ATOM     15  C   UNL     1       7.146   5.138  19.272  0.00  0.00    +0.000 C 
ENDBRANCH   8  15
ENDBRANCH   1  13
BRANCH   5  16
ATOM     16  C   UNL     1       1.360   7.996  20.569  0.00  0.00    +0.000 A 
ATOM     17  C   UNL     1       1.436   8.581  19.298  0.00  0.00    +0.000 A 
ATOM     18  C   UNL     1       1.219   9.952  19.124  0.00  0.00    +0.000 A 
ATOM     19  C   UNL     1       0.916  10.753  20.228  0.00  0.00    +0.000 A 
ATOM     20  C   UNL     1       0.905  10.210  21.512  0.00  0.00    +0.000 A 
ATOM     21  C   UNL     1       1.127   8.839  21.670  0.00  0.00    +0.000 A 
BRANCH  19  22
ATOM     22  S   UNL     1       0.545  12.474  19.972  0.00  0.00    +0.000 S 
ATOM     23  O   UNL     1       0.280  12.682  18.565  0.00  0.00    +0.000 OA
ATOM     24  O   UNL     1      -0.436  12.846  20.976  0.00  0.00    +0.000 OA
BRANCH  22  25
ATOM     25  N   UNL     1       1.975  13.268  20.402  0.00  0.00    +0.000 N 
ATOM     26  C   UNL     1       2.358  14.342  19.574  0.00  0.00    +0.000 A 
ATOM     27  C   UNL     1       1.880  15.628  19.750  0.00  0.00    +0.000 A 
ATOM     28  C   UNL     1       2.360  16.618  18.897  0.00  0.00    +0.000 A 
ATOM     29  C   UNL     1       3.267  16.277  17.896  0.00  0.00    +0.000 A 
ATOM     30  C   UNL     1       3.665  14.954  17.797  0.00  0.00    +0.000 A 
ATOM     31  N   UNL     1       3.238  13.976  18.626  0.00  0.00    +0.000 NA
ATOM     32  H   UNL     1       2.737  12.593  20.448  0.00  0.00    +0.000 HD
ENDBRANCH  22  25
ENDBRANCH  19  22
ENDBRANCH   5  16
BRANCH   3  33
ATOM     33  C   UNL     1       2.034   3.500  21.174  0.00  0.00    +0.000 C 
ATOM     34  N   UNL     1       0.776   3.185  20.736  0.00  0.00    +0.000 N 
ATOM     35  O   UNL     1       2.480   2.985  22.195  0.00  0.00    +0.000 OA
ATOM     36  H   UNL     1       0.414   3.452  19.833  0.00  0.00    +0.000 HD
ATOM     37  H   UNL     1       0.255   2.499  21.268  0.00  0.00    +0.000 HD
ENDBRANCH   3  33
TORSDOF 6
ENDMDL
MODEL 5
REMARK VINA RESULT:      -9.2      2.102      3.019
REMARK  Name = 
REMARK  6 active torsions:
REMARK  status: ('A' for Active; 'I' for Inactive)
REMARK    1  A    between atoms: C_2  and  C_3
REMARK    2  A    between atoms: C_8  and  N_9
REMARK    3  A    between atoms: C_11  and  C_12
REMARK    4  A    between atoms: N_16  and  C_17
REMARK    5  A    between atoms: C_20  and  S_21
REMARK    6  A    between atoms: S_21  and  N_24
REMARK                            x       y       z     vdW  Elec       q    Type
REMARK                         _______ _______ _______ _____ _____    ______ ____
ROOT
ATOM      1  N   UNL     1       4.147   5.149  18.825  0.00  0.00    +0.000 N 
ATOM      2  C   UNL     1       3.864   4.040  19.554  0.00  0.00    +0.000 A 
ATOM      3  C   UNL     1       2.773   4.362  20.343  0.00  0.00    +0.000 A 
ATOM      4  C   UNL     1       2.528   5.748  20.059  0.00  0.00    +0.000 A 
ATOM      5  N   UNL     1       1.535   6.508  20.589  0.00  0.00    +0.000 N 
ATOM      6  N   UNL     1       3.397   6.196  19.147  0.00  0.00    +0.000 NA
ATOM      7  H   UNL     1       0.961   6.115  21.332  0.00  0.00    +0.000 HD
ENDROOT
BRANCH   1  13
ATOM      8  C   UNL     1       6.413   4.536  18.021  0.00  0.00    +0.000 C 
ATOM      9  C   UNL     1       7.343   4.551  16.796  0.00  0.00    +0.000 C 
ATOM     10  C   UNL     1       6.658   3.989  15.557  0.00  0.00    +0.000 C 
ATOM     11  C   UNL     1       5.395   4.777  15.232  0.00  0.00    +0.000 C 
ATOM     12  C   UNL     1       4.429   4.783  16.410  0.00  0.00    +0.000 C 
ATOM     13  C   UNL     1       5.088   5.272  17.713  0.00  0.00    +0.000 C 
BRANCH   8  15
ATOM     14  N   UNL     1       7.621   5.634  20.086  0.00  0.00    +0.000 NA
ATOM     15  C   UNL     1       7.104   5.170  19.165  0.00  0.00    +0.000 C 
ENDBRANCH   8  15
ENDBRANCH   1  13
BRANCH   5  16
ATOM     16  C   UNL     1       1.273   7.886  20.371  0.00  0.00    +0.000 A 
ATOM     17  C   UNL     1       0.481   8.593  21.286  0.00  0.00    +0.000 A 
ATOM     18  C   UNL     1       0.201   9.950  21.095  0.00  0.00    +0.000 A 
ATOM     19  C   UNL     1       0.720  10.616  19.982  0.00  0.00    +0.000 A 
ATOM     20  C   UNL     1       1.450   9.920  19.019  0.00  0.00    +0.000 A 
ATOM     21  C   UNL     1       1.718   8.563  19.223  0.00  0.00    +0.000 A 
BRANCH  19  22
ATOM     22  S   UNL     1       0.437  12.364  19.809  0.00  0.00    +0.000 S 
ATOM     23  O   UNL     1      -0.448  12.792  20.871  0.00  0.00    +0.000 OA
ATOM     24  O   UNL     1       1.736  12.986  19.629  0.00  0.00    +0.000 OA
BRANCH  22  25
ATOM     25  N   UNL     1      -0.356  12.505  18.322  0.00  0.00    +0.000 N 
ATOM     26  C   UNL     1      -1.552  11.770  18.187  0.00  0.00    +0.000 A 
ATOM     27  C   UNL     1      -2.776  12.255  18.609  0.00  0.00    +0.000 A 
ATOM     28  C   UNL     1      -3.897  11.458  18.388  0.00  0.00    +0.000 A 
ATOM     29  C   UNL     1      -3.742  10.212  17.786  0.00  0.00    +0.000 A 
ATOM     30  C   UNL     1      -2.465   9.817  17.421  0.00  0.00    +0.000 A 
ATOM     31  N   UNL     1      -1.363  10.578  17.598  0.00  0.00    +0.000 NA
ATOM     32  H   UNL     1       0.282  12.245  17.572  0.00  0.00    +0.000 HD
ENDBRANCH  22  25
ENDBRANCH  19  22
ENDBRANCH   5  16
BRANCH   3  33
ATOM     33  C   UNL     1       2.052   3.444  21.210  0.00  0.00    +0.000 C 
ATOM     34  N   UNL     1       0.823   3.027  20.773  0.00  0.00    +0.000 N 
ATOM     35  O   UNL     1       2.498   3.039  22.279  0.00  0.00    +0.000 OA
ATOM     36  H   UNL     1       0.470   3.199  19.844  0.00  0.00    +0.000 HD
ATOM     37  H   UNL     1       0.326   2.360  21.350  0.00  0.00    +0.000 HD
ENDBRANCH   3  33
TORSDOF 6
ENDMDL
MODEL 6
REMARK VINA RESULT:      -9.2      2.176      2.920
REMARK  Name = 
REMARK  6 active torsions:
REMARK  status: ('A' for Active; 'I' for Inactive)
REMARK    1  A    between atoms: C_2  and  C_3
REMARK    2  A    between atoms: C_8  and  N_9
REMARK    3  A    between atoms: C_11  and  C_12
REMARK    4  A    between atoms: N_16  and  C_17
REMARK    5  A    between atoms: C_20  and  S_21
REMARK    6  A    between atoms: S_21  and  N_24
REMARK                            x       y       z     vdW  Elec       q    Type
REMARK                         _______ _______ _______ _____ _____    ______ ____
ROOT
ATOM      1  N   UNL     1       4.189   5.107  18.870  0.00  0.00    +0.000 N 
ATOM      2  C   UNL     1       3.878   3.959  19.523  0.00  0.00    +0.000 A 
ATOM      3  C   UNL     1       2.804   4.258  20.344  0.00  0.00    +0.000 A 
ATOM      4  C   UNL     1       2.599   5.667  20.159  0.00  0.00    +0.000 A 
ATOM      5  N   UNL     1       1.635   6.419  20.751  0.00  0.00    +0.000 N 
ATOM      6  N   UNL     1       3.474   6.151  19.271  0.00  0.00    +0.000 NA
ATOM      7  H   UNL     1       1.055   5.992  21.470  0.00  0.00    +0.000 HD
ENDROOT
BRANCH   1  13
ATOM      8  C   UNL     1       6.453   4.534  18.031  0.00  0.00    +0.000 C 
ATOM      9  C   UNL     1       7.378   4.603  16.803  0.00  0.00    +0.000 C 
ATOM     10  C   UNL     1       6.688   4.090  15.545  0.00  0.00    +0.000 C 
ATOM     11  C   UNL     1       5.422   4.887  15.259  0.00  0.00    +0.000 C 
ATOM     12  C   UNL     1       4.461   4.841  16.441  0.00  0.00    +0.000 C 
ATOM     13  C   UNL     1       5.124   5.278  17.760  0.00  0.00    +0.000 C 
BRANCH   8  15
ATOM     14  N   UNL     1       7.692   5.625  20.082  0.00  0.00    +0.000 NA
ATOM     15  C   UNL     1       7.148   5.124  19.197  0.00  0.00    +0.000 C 
ENDBRANCH   8  15
ENDBRANCH   1  13
BRANCH   5  16
ATOM     16  C   UNL     1       1.413   7.815  20.631  0.00  0.00    +0.000 A 
ATOM     17  C   UNL     1       1.641   8.449  19.402  0.00  0.00    +0.000 A 
ATOM     18  C   UNL     1       1.436   9.825  19.255  0.00  0.00    +0.000 A 
ATOM     19  C   UNL     1       0.993  10.582  20.344  0.00  0.00    +0.000 A 
ATOM     20  C   UNL     1       0.828   9.989  21.595  0.00  0.00    +0.000 A 
ATOM     21  C   UNL     1       1.040   8.614  21.726  0.00  0.00    +0.000 A 
BRANCH  19  22
ATOM     22  S   UNL     1       0.643  12.310  20.111  0.00  0.00    +0.000 S 
ATOM     23  O   UNL     1       1.011  13.019  21.317  0.00  0.00    +0.000 OA
ATOM     24  O   UNL     1       1.210  12.685  18.827  0.00  0.00    +0.000 OA
BRANCH  22  25
ATOM     25  N   UNL     1      -1.035  12.364  19.913  0.00  0.00    +0.000 N 
ATOM     26  C   UNL     1      -1.559  11.581  18.866  0.00  0.00    +0.000 A 
ATOM     27  C   UNL     1      -1.866  10.241  19.018  0.00  0.00    +0.000 A 
ATOM     28  C   UNL     1      -2.417   9.576  17.926  0.00  0.00    +0.000 A 
ATOM     29  C   UNL     1      -2.610  10.266  16.731  0.00  0.00    +0.000 A 
ATOM     30  C   UNL     1      -2.249  11.602  16.683  0.00  0.00    +0.000 A 
ATOM     31  N   UNL     1      -1.737  12.282  17.733  0.00  0.00    +0.000 NA
ATOM     32  H   UNL     1      -1.330  13.331  19.787  0.00  0.00    +0.000 HD
ENDBRANCH  22  25
ENDBRANCH  19  22
ENDBRANCH   5  16
BRANCH   3  33
ATOM     33  C   UNL     1       2.062   3.305  21.153  0.00  0.00    +0.000 C 
ATOM     34  N   UNL     1       0.781   3.030  20.755  0.00  0.00    +0.000 N 
ATOM     35  O   UNL     1       2.534   2.751  22.141  0.00  0.00    +0.000 OA
ATOM     36  H   UNL     1       0.391   3.331  19.874  0.00  0.00    +0.000 HD
ATOM     37  H   UNL     1       0.265   2.341  21.287  0.00  0.00    +0.000 HD
ENDBRANCH   3  33
TORSDOF 6
ENDMDL
MODEL 7
REMARK VINA RESULT:      -9.0      2.201      2.690
REMARK  Name = 
REMARK  6 active torsions:
REMARK  status: ('A' for Active; 'I' for Inactive)
REMARK    1  A    between atoms: C_2  and  C_3
REMARK    2  A    between atoms: C_8  and  N_9
REMARK    3  A    between atoms: C_11  and  C_12
REMARK    4  A    between atoms: N_16  and  C_17
REMARK    5  A    between atoms: C_20  and  S_21
REMARK    6  A    between atoms: S_21  and  N_24
REMARK                            x       y       z     vdW  Elec       q    Type
REMARK                         _______ _______ _______ _____ _____    ______ ____
ROOT
ATOM      1  N   UNL     1       4.237   5.244  18.852  0.00  0.00    +0.000 N 
ATOM      2  C   UNL     1       3.930   4.089  19.493  0.00  0.00    +0.000 A 
ATOM      3  C   UNL     1       2.841   4.368  20.301  0.00  0.00    +0.000 A 
ATOM      4  C   UNL     1       2.621   5.776  20.121  0.00  0.00    +0.000 A 
ATOM      5  N   UNL     1       1.638   6.511  20.704  0.00  0.00    +0.000 N 
ATOM      6  N   UNL     1       3.503   6.277  19.250  0.00  0.00    +0.000 NA
ATOM      7  H   UNL     1       1.054   6.072  21.412  0.00  0.00    +0.000 HD
ENDROOT
BRANCH   1  13
ATOM      8  C   UNL     1       6.489   4.639  18.005  0.00  0.00    +0.000 C 
ATOM      9  C   UNL     1       7.425   4.733  16.787  0.00  0.00    +0.000 C 
ATOM     10  C   UNL     1       6.730   4.297  15.503  0.00  0.00    +0.000 C 
ATOM     11  C   UNL     1       5.491   5.144  15.244  0.00  0.00    +0.000 C 
ATOM     12  C   UNL     1       4.519   5.077  16.416  0.00  0.00    +0.000 C 
ATOM     13  C   UNL     1       5.186   5.435  17.757  0.00  0.00    +0.000 C 
BRANCH   8  15
ATOM     14  N   UNL     1       7.774   5.574  20.103  0.00  0.00    +0.000 NA
ATOM     15  C   UNL     1       7.191   5.156  19.200  0.00  0.00    +0.000 C 
ENDBRANCH   8  15
ENDBRANCH   1  13
BRANCH   5  16
ATOM     16  C   UNL     1       1.401   7.905  20.590  0.00  0.00    +0.000 A 
ATOM     17  C   UNL     1       1.012   8.635  21.722  0.00  0.00    +0.000 A 
ATOM     18  C   UNL     1       0.766  10.010  21.639  0.00  0.00    +0.000 A 
ATOM     19  C   UNL     1       0.914  10.670  20.416  0.00  0.00    +0.000 A 
ATOM     20  C   UNL     1       1.229   9.956  19.262  0.00  0.00    +0.000 A 
ATOM     21  C   UNL     1       1.469   8.582  19.360  0.00  0.00    +0.000 A 
BRANCH  19  22
ATOM     22  S   UNL     1       0.694  12.435  20.353  0.00  0.00    +0.000 S 
ATOM     23  O   UNL     1       1.631  13.046  21.271  0.00  0.00    +0.000 OA
ATOM     24  O   UNL     1       0.678  12.807  18.950  0.00  0.00    +0.000 OA
BRANCH  22  25
ATOM     25  N   UNL     1      -0.883  12.670  20.915  0.00  0.00    +0.000 N 
ATOM     26  C   UNL     1      -1.091  13.810  21.717  0.00  0.00    +0.000 A 
ATOM     27  C   UNL     1      -1.356  15.058  21.184  0.00  0.00    +0.000 A 
ATOM     28  C   UNL     1      -1.584  16.105  22.074  0.00  0.00    +0.000 A 
ATOM     29  C   UNL     1      -1.510  15.866  23.444  0.00  0.00    +0.000 A 
ATOM     30  C   UNL     1      -1.218  14.581  23.868  0.00  0.00    +0.000 A 
ATOM     31  N   UNL     1      -1.018  13.539  23.031  0.00  0.00    +0.000 NA
ATOM     32  H   UNL     1      -1.188  11.843  21.426  0.00  0.00    +0.000 HD
ENDBRANCH  22  25
ENDBRANCH  19  22
ENDBRANCH   5  16
BRANCH   3  33
ATOM     33  C   UNL     1       2.100   3.400  21.092  0.00  0.00    +0.000 C 
ATOM     34  N   UNL     1       0.820   3.129  20.687  0.00  0.00    +0.000 N 
ATOM     35  O   UNL     1       2.571   2.831  22.072  0.00  0.00    +0.000 OA
ATOM     36  H   UNL     1       0.431   3.443  19.811  0.00  0.00    +0.000 HD
ATOM     37  H   UNL     1       0.305   2.430  21.207  0.00  0.00    +0.000 HD
ENDBRANCH   3  33
TORSDOF 6
ENDMDL
MODEL 8
REMARK VINA RESULT:      -9.0      0.564      1.009
REMARK  Name = 
REMARK  6 active torsions:
REMARK  status: ('A' for Active; 'I' for Inactive)
REMARK    1  A    between atoms: C_2  and  C_3
REMARK    2  A    between atoms: C_8  and  N_9
REMARK    3  A    between atoms: C_11  and  C_12
REMARK    4  A    between atoms: N_16  and  C_17
REMARK    5  A    between atoms: C_20  and  S_21
REMARK    6  A    between atoms: S_21  and  N_24
REMARK                            x       y       z     vdW  Elec       q    Type
REMARK                         _______ _______ _______ _____ _____    ______ ____
ROOT
ATOM      1  N   UNL     1       4.143   5.325  18.860  0.00  0.00    +0.000 N 
ATOM      2  C   UNL     1       3.779   4.123  19.373  0.00  0.00    +0.000 A 
ATOM      3  C   UNL     1       2.674   4.361  20.174  0.00  0.00    +0.000 A 
ATOM      4  C   UNL     1       2.507   5.786  20.130  0.00  0.00    +0.000 A 
ATOM      5  N   UNL     1       1.531   6.495  20.756  0.00  0.00    +0.000 N 
ATOM      6  N   UNL     1       3.431   6.339  19.338  0.00  0.00    +0.000 NA
ATOM      7  H   UNL     1       0.910   6.009  21.400  0.00  0.00    +0.000 HD
ENDROOT
BRANCH   1  13
ATOM      8  C   UNL     1       6.425   4.774  18.055  0.00  0.00    +0.000 C 
ATOM      9  C   UNL     1       7.404   4.950  16.882  0.00  0.00    +0.000 C 
ATOM     10  C   UNL     1       6.758   4.607  15.546  0.00  0.00    +0.000 C 
ATOM     11  C   UNL     1       5.529   5.474  15.302  0.00  0.00    +0.000 C 
ATOM     12  C   UNL     1       4.515   5.328  16.430  0.00  0.00    +0.000 C 
ATOM     13  C   UNL     1       5.132   5.589  17.816  0.00  0.00    +0.000 C 
BRANCH   8  15
ATOM     14  N   UNL     1       7.637   5.519  20.270  0.00  0.00    +0.000 NA
ATOM     15  C   UNL     1       7.083   5.203  19.308  0.00  0.00    +0.000 C 
ENDBRANCH   8  15
ENDBRANCH   1  13
BRANCH   5  16
ATOM     16  C   UNL     1       1.343   7.901  20.776  0.00  0.00    +0.000 A 
ATOM     17  C   UNL     1       1.385   8.622  19.575  0.00  0.00    +0.000 A 
ATOM     18  C   UNL     1       1.209  10.010  19.563  0.00  0.00    +0.000 A 
ATOM     19  C   UNL     1       0.981  10.691  20.762  0.00  0.00    +0.000 A 
ATOM     20  C   UNL     1       1.006  10.008  21.978  0.00  0.00    +0.000 A 
ATOM     21  C   UNL     1       1.187   8.622  21.972  0.00  0.00    +0.000 A 
BRANCH  19  22
ATOM     22  S   UNL     1       0.660  12.440  20.716  0.00  0.00    +0.000 S 
ATOM     23  O   UNL     1      -0.686  12.671  21.194  0.00  0.00    +0.000 OA
ATOM     24  O   UNL     1       1.794  13.093  21.346  0.00  0.00    +0.000 OA
BRANCH  22  25
ATOM     25  N   UNL     1       0.752  12.829  19.073  0.00  0.00    +0.000 N 
ATOM     26  C   UNL     1       1.703  13.807  18.722  0.00  0.00    +0.000 A 
ATOM     27  C   UNL     1       3.029  13.502  18.473  0.00  0.00    +0.000 A 
ATOM     28  C   UNL     1       3.871  14.544  18.093  0.00  0.00    +0.000 A 
ATOM     29  C   UNL     1       3.362  15.838  18.007  0.00  0.00    +0.000 A 
ATOM     30  C   UNL     1       2.022  16.034  18.298  0.00  0.00    +0.000 A 
ATOM     31  N   UNL     1       1.174  15.039  18.643  0.00  0.00    +0.000 NA
ATOM     32  H   UNL     1      -0.166  13.122  18.743  0.00  0.00    +0.000 HD
ENDBRANCH  22  25
ENDBRANCH  19  22
ENDBRANCH   5  16
BRANCH   3  33
ATOM     33  C   UNL     1       1.877   3.346  20.843  0.00  0.00    +0.000 C 
ATOM     34  N   UNL     1       2.180   3.097  22.155  0.00  0.00    +0.000 N 
ATOM     35  O   UNL     1       0.968   2.734  20.292  0.00  0.00    +0.000 OA
ATOM     36  H   UNL     1       2.805   3.667  22.704  0.00  0.00    +0.000 HD
ATOM     37  H   UNL     1       1.609   2.419  22.644  0.00  0.00    +0.000 HD
ENDBRANCH   3  33
TORSDOF 6
ENDMDL
MODEL 9
REMARK VINA RESULT:      -9.0      2.710      3.521
REMARK  Name = 
REMARK  6 active torsions:
REMARK  status: ('A' for Active; 'I' for Inactive)
REMARK    1  A    between atoms: C_2  and  C_3
REMARK    2  A    between atoms: C_8  and  N_9
REMARK    3  A    between atoms: C_11  and  C_12
REMARK    4  A    between atoms: N_16  and  C_17
REMARK    5  A    between atoms: C_20  and  S_21
REMARK    6  A    between atoms: S_21  and  N_24
REMARK                            x       y       z     vdW  Elec       q    Type
REMARK                         _______ _______ _______ _____ _____    ______ ____
ROOT
ATOM      1  N   UNL     1       4.833   4.864  17.596  0.00  0.00    +0.000 N 
ATOM      2  C   UNL     1       4.982   3.739  18.339  0.00  0.00    +0.000 A 
ATOM      3  C   UNL     1       4.135   3.875  19.426  0.00  0.00    +0.000 A 
ATOM      4  C   UNL     1       3.573   5.187  19.272  0.00  0.00    +0.000 A 
ATOM      5  N   UNL     1       2.662   5.767  20.098  0.00  0.00    +0.000 N 
ATOM      6  N   UNL     1       4.037   5.765  18.159  0.00  0.00    +0.000 NA
ATOM      7  H   UNL     1       2.415   5.293  20.964  0.00  0.00    +0.000 HD
ENDROOT
BRANCH   1  13
ATOM      8  C   UNL     1       6.903   5.273  16.291  0.00  0.00    +0.000 C 
ATOM      9  C   UNL     1       7.466   5.414  14.866  0.00  0.00    +0.000 C 
ATOM     10  C   UNL     1       7.021   4.270  13.964  0.00  0.00    +0.000 C 
ATOM     11  C   UNL     1       5.501   4.198  13.893  0.00  0.00    +0.000 C 
ATOM     12  C   UNL     1       4.889   4.042  15.279  0.00  0.00    +0.000 C 
ATOM     13  C   UNL     1       5.363   5.130  16.260  0.00  0.00    +0.000 C 
BRANCH   8  15
ATOM     14  N   UNL     1       7.652   7.359  17.711  0.00  0.00    +0.000 NA
ATOM     15  C   UNL     1       7.298   6.453  17.090  0.00  0.00    +0.000 C 
ENDBRANCH   8  15
ENDBRANCH   1  13
BRANCH   5  16
ATOM     16  C   UNL     1       2.105   7.069  20.012  0.00  0.00    +0.000 A 
ATOM     17  C   UNL     1       1.430   7.607  21.117  0.00  0.00    +0.000 A 
ATOM     18  C   UNL     1       0.865   8.886  21.061  0.00  0.00    +0.000 A 
ATOM     19  C   UNL     1       0.979   9.644  19.892  0.00  0.00    +0.000 A 
ATOM     20  C   UNL     1       1.582   9.106  18.757  0.00  0.00    +0.000 A 
ATOM     21  C   UNL     1       2.138   7.825  18.828  0.00  0.00    +0.000 A 
BRANCH  19  22
ATOM     22  S   UNL     1       0.342  11.306  19.874  0.00  0.00    +0.000 S 
ATOM     23  O   UNL     1      -0.737  11.393  20.834  0.00  0.00    +0.000 OA
ATOM     24  O   UNL     1       1.486  12.195  19.960  0.00  0.00    +0.000 OA
BRANCH  22  25
ATOM     25  N   UNL     1      -0.275  11.490  18.311  0.00  0.00    +0.000 N 
ATOM     26  C   UNL     1      -1.643  11.195  18.148  0.00  0.00    +0.000 A 
ATOM     27  C   UNL     1      -2.640  12.123  18.387  0.00  0.00    +0.000 A 
ATOM     28  C   UNL     1      -3.956  11.733  18.153  0.00  0.00    +0.000 A 
ATOM     29  C   UNL     1      -4.218  10.435  17.722  0.00  0.00    +0.000 A 
ATOM     30  C   UNL     1      -3.144   9.580  17.533  0.00  0.00    +0.000 A 
ATOM     31  N   UNL     1      -1.855   9.937  17.725  0.00  0.00    +0.000 NA
ATOM     32  H   UNL     1       0.268  10.922  17.663  0.00  0.00    +0.000 HD
ENDBRANCH  22  25
ENDBRANCH  19  22
ENDBRANCH   5  16
BRANCH   3  33
ATOM     33  C   UNL     1       3.881   2.862  20.437  0.00  0.00    +0.000 C 
ATOM     34  N   UNL     1       4.827   1.881  20.571  0.00  0.00    +0.000 N 
ATOM     35  O   UNL     1       2.886   2.863  21.154  0.00  0.00    +0.000 OA
ATOM     36  H   UNL     1       5.731   1.908  20.124  0.00  0.00    +0.000 HD
ATOM     37  H   UNL     1       4.681   1.189  21.296  0.00  0.00    +0.000 HD
ENDBRANCH   3  33
TORSDOF 6
ENDMDL
