MODEL 1
REMARK VINA RESULT:      -7.6      0.000      0.000
REMARK  Name = 
REMARK  5 active torsions:
REMARK  status: ('A' for Active; 'I' for Inactive)
REMARK    1  A    between atoms: C_1  and  C_2
REMARK    2  A    between atoms: C_2  and  N_3
REMARK    3  A    between atoms: C_7  and  C_9
REMARK    4  A    between atoms: N_16  and  C_17
REMARK    5  A    between atoms: C_17  and  C_18
REMARK                            x       y       z     vdW  Elec       q    Type
REMARK                         _______ _______ _______ _____ _____    ______ ____
ROOT
ATOM      1  C   UNL     1      -0.495  10.736  19.479  0.00  0.00    +0.000 A 
ATOM      2  C   UNL     1      -0.175   9.737  20.441  0.00  0.00    +0.000 A 
ATOM      3  C   UNL     1       0.819   8.971  19.870  0.00  0.00    +0.000 A 
ATOM      4  N   UNL     1       1.058   9.551  18.669  0.00  0.00    +0.000 N 
ATOM      5  N   UNL     1       0.340  10.647  18.426  0.00  0.00    +0.000 NA
ATOM      6  C   UNL     1       1.996   9.072  17.697  0.00  0.00    +0.000 C 
ATOM      7  C   UNL     1       2.603   7.734  18.091  0.00  0.00    +0.000 C 
ATOM      8  N   UNL     1       2.519   7.333  19.501  0.00  0.00    +0.000 N 
ATOM      9  C   UNL     1       1.513   7.812  20.347  0.00  0.00    +0.000 C 
ATOM     10  O   UNL     1       1.234   7.290  21.419  0.00  0.00    +0.000 OA
ENDROOT
BRANCH   1  15
ATOM     11  N   UNL     1      -2.911  12.855  23.557  0.00  0.00    +0.000 NA
ATOM     12  C   UNL     1      -3.750  12.926  22.331  0.00  0.00    +0.000 C 
ATOM     13  C   UNL     1      -2.970  13.188  21.021  0.00  0.00    +0.000 C 
ATOM     14  N   UNL     1      -1.849  12.261  20.876  0.00  0.00    +0.000 N 
ATOM     15  C   UNL     1      -1.537  11.773  19.604  0.00  0.00    +0.000 C 
ATOM     16  O   UNL     1      -2.114  12.193  18.598  0.00  0.00    +0.000 OA
ATOM     17  C   UNL     1      -0.994  12.160  22.067  0.00  0.00    +0.000 C 
ATOM     18  C   UNL     1      -1.839  11.862  23.318  0.00  0.00    +0.000 C 
BRANCH  11  20
ATOM     19  C   UNL     1      -3.215  14.896  24.999  0.00  0.00    +0.000 C 
ATOM     20  C   UNL     1      -2.408  14.192  23.913  0.00  0.00    +0.000 C 
ENDBRANCH  11  20
ENDBRANCH   1  15
BRANCH   8  21
ATOM     21  C   UNL     1       3.288   6.152  19.920  0.00  0.00    +0.000 C 
BRANCH  21  22
ATOM     22  C   UNL     1       3.094   4.973  18.986  0.00  0.00    +0.000 A 
ATOM     23  C   UNL     1       4.001   4.711  17.939  0.00  0.00    +0.000 A 
ATOM     24 CL   UNL     1       5.513   5.529  17.773  0.00  0.00    +0.000 Cl
ATOM     25  C   UNL     1       3.751   3.708  16.994  0.00  0.00    +0.000 A 
ATOM     26  C   UNL     1       2.604   2.929  17.080  0.00  0.00    +0.000 A 
ATOM     27  C   UNL     1       1.730   3.120  18.142  0.00  0.00    +0.000 A 
ATOM     28  C   UNL     1       1.979   4.118  19.095  0.00  0.00    +0.000 A 
ATOM     29 CL   UNL     1       0.873   4.182  20.427  0.00  0.00    +0.000 Cl
ENDBRANCH  21  22
ENDBRANCH   8  21
TORSDOF 4
ENDMDL
MODEL 2
REMARK VINA RESULT:      -7.6      2.146      3.272
REMARK  Name = 
REMARK  5 active torsions:
REMARK  status: ('A' for Active; 'I' for Inactive)
REMARK    1  A    between atoms: C_1  and  C_2
REMARK    2  A    between atoms: C_2  and  N_3
REMARK    3  A    between atoms: C_7  and  C_9
REMARK    4  A    between atoms: N_16  and  C_17
REMARK    5  A    between atoms: C_17  and  C_18
REMARK                            x       y       z     vdW  Elec       q    Type
REMARK                         _______ _______ _______ _____ _____    ______ ____
ROOT
ATOM      1  C   UNL     1       0.609   9.543  21.361  0.00  0.00    +0.000 A 
ATOM      2  C   UNL     1       1.053   8.193  21.441  0.00  0.00    +0.000 A 
ATOM      3  C   UNL     1       1.600   7.904  20.208  0.00  0.00    +0.000 A 
ATOM      4  N   UNL     1       1.495   9.056  19.503  0.00  0.00    +0.000 N 
ATOM      5  N   UNL     1       0.968  10.078  20.178  0.00  0.00    +0.000 NA
ATOM      6  C   UNL     1       1.900   9.225  18.139  0.00  0.00    +0.000 C 
ATOM      7  C   UNL     1       2.333   7.914  17.499  0.00  0.00    +0.000 C 
ATOM      8  N   UNL     1       2.691   6.804  18.390  0.00  0.00    +0.000 N 
ATOM      9  C   UNL     1       2.177   6.701  19.686  0.00  0.00    +0.000 C 
ATOM     10  O   UNL     1       2.211   5.667  20.341  0.00  0.00    +0.000 OA
ENDROOT
BRANCH   1  15
ATOM     11  N   UNL     1      -2.046  14.004  21.346  0.00  0.00    +0.000 NA
ATOM     12  C   UNL     1      -1.469  13.719  22.687  0.00  0.00    +0.000 C 
ATOM     13  C   UNL     1      -1.467  12.226  23.093  0.00  0.00    +0.000 C 
ATOM     14  N   UNL     1      -0.881  11.392  22.045  0.00  0.00    +0.000 N 
ATOM     15  C   UNL     1      -0.091  10.300  22.416  0.00  0.00    +0.000 C 
ATOM     16  O   UNL     1       0.026   9.966  23.597  0.00  0.00    +0.000 OA
ATOM     17  C   UNL     1      -1.423  11.643  20.703  0.00  0.00    +0.000 C 
ATOM     18  C   UNL     1      -1.355  13.141  20.361  0.00  0.00    +0.000 C 
BRANCH  11  20
ATOM     19  C   UNL     1      -4.227  14.653  22.424  0.00  0.00    +0.000 C 
ATOM     20  C   UNL     1      -3.507  13.823  21.366  0.00  0.00    +0.000 C 
ENDBRANCH  11  20
ENDBRANCH   1  15
BRANCH   8  21
ATOM     21  C   UNL     1       3.312   5.617  17.782  0.00  0.00    +0.000 C 
BRANCH  21  22
ATOM     22  C   UNL     1       4.824   5.639  17.883  0.00  0.00    +0.000 A 
ATOM     23  C   UNL     1       5.499   4.976  18.928  0.00  0.00    +0.000 A 
ATOM     24 CL   UNL     1       4.714   3.895  20.022  0.00  0.00    +0.000 Cl
ATOM     25  C   UNL     1       6.883   5.109  19.099  0.00  0.00    +0.000 A 
ATOM     26  C   UNL     1       7.631   5.888  18.226  0.00  0.00    +0.000 A 
ATOM     27  C   UNL     1       7.001   6.494  17.147  0.00  0.00    +0.000 A 
ATOM     28  C   UNL     1       5.617   6.359  16.965  0.00  0.00    +0.000 A 
ATOM     29 CL   UNL     1       4.971   7.072  15.524  0.00  0.00    +0.000 Cl
ENDBRANCH  21  22
ENDBRANCH   8  21
TORSDOF 4
ENDMDL
MODEL 3
REMARK VINA RESULT:      -7.6      2.682      3.415
REMARK  Name = 
REMARK  5 active torsions:
REMARK  status: ('A' for Active; 'I' for Inactive)
REMARK    1  A    between atoms: C_1  and  C_2
REMARK    2  A    between atoms: C_2  and  N_3
REMARK    3  A    between atoms: C_7  and  C_9
REMARK    4  A    between atoms: N_16  and  C_17
REMARK    5  A    between atoms: C_17  and  C_18
REMARK                            x       y       z     vdW  Elec       q    Type
REMARK                         _______ _______ _______ _____ _____    ______ ____
ROOT
ATOM      1  C   UNL     1       0.634  10.710  18.800  0.00  0.00    +0.000 A 
ATOM      2  C   UNL     1       0.662   9.855  19.938  0.00  0.00    +0.000 A 
ATOM      3  C   UNL     1       1.437   8.773  19.576  0.00  0.00    +0.000 A 
ATOM      4  N   UNL     1       1.847   9.047  18.314  0.00  0.00    +0.000 N 
ATOM      5  N   UNL     1       1.443  10.224  17.839  0.00  0.00    +0.000 NA
ATOM      6  C   UNL     1       2.652   8.180  17.505  0.00  0.00    +0.000 C 
ATOM      7  C   UNL     1       2.882   6.827  18.162  0.00  0.00    +0.000 C 
ATOM      8  N   UNL     1       2.664   6.724  19.610  0.00  0.00    +0.000 N 
ATOM      9  C   UNL     1       1.796   7.585  20.290  0.00  0.00    +0.000 C 
ATOM     10  O   UNL     1       1.366   7.353  21.413  0.00  0.00    +0.000 OA
ENDROOT
BRANCH   1  15
ATOM     11  N   UNL     1       1.930  15.665  19.647  0.00  0.00    +0.000 NA
ATOM     12  C   UNL     1       0.465  15.452  19.801  0.00  0.00    +0.000 C 
ATOM     13  C   UNL     1      -0.153  14.437  18.812  0.00  0.00    +0.000 C 
ATOM     14  N   UNL     1       0.594  13.181  18.803  0.00  0.00    +0.000 N 
ATOM     15  C   UNL     1      -0.107  11.979  18.674  0.00  0.00    +0.000 C 
ATOM     16  O   UNL     1      -1.321  11.966  18.458  0.00  0.00    +0.000 OA
ATOM     17  C   UNL     1       2.047  13.347  18.653  0.00  0.00    +0.000 C 
ATOM     18  C   UNL     1       2.590  14.341  19.694  0.00  0.00    +0.000 C 
BRANCH  11  20
ATOM     19  C   UNL     1       3.691  16.498  18.053  0.00  0.00    +0.000 C 
ATOM     20  C   UNL     1       2.212  16.421  18.416  0.00  0.00    +0.000 C 
ENDBRANCH  11  20
ENDBRANCH   1  15
BRANCH   8  21
ATOM     21  C   UNL     1       3.092   5.484  20.277  0.00  0.00    +0.000 C 
BRANCH  21  22
ATOM     22  C   UNL     1       3.018   4.279  19.360  0.00  0.00    +0.000 A 
ATOM     23  C   UNL     1       4.104   3.919  18.536  0.00  0.00    +0.000 A 
ATOM     24 CL   UNL     1       5.668   4.639  18.666  0.00  0.00    +0.000 Cl
ATOM     25  C   UNL     1       3.990   2.890  17.591  0.00  0.00    +0.000 A 
ATOM     26  C   UNL     1       2.801   2.185  17.457  0.00  0.00    +0.000 A 
ATOM     27  C   UNL     1       1.740   2.473  18.305  0.00  0.00    +0.000 A 
ATOM     28  C   UNL     1       1.850   3.496  19.257  0.00  0.00    +0.000 A 
ATOM     29 CL   UNL     1       0.498   3.683  20.324  0.00  0.00    +0.000 Cl
ENDBRANCH  21  22
ENDBRANCH   8  21
TORSDOF 4
ENDMDL
MODEL 4
REMARK VINA RESULT:      -7.5      0.433      1.753
REMARK  Name = 
REMARK  5 active torsions:
REMARK  status: ('A' for Active; 'I' for Inactive)
REMARK    1  A    between atoms: C_1  and  C_2
REMARK    2  A    between atoms: C_2  and  N_3
REMARK    3  A    between atoms: C_7  and  C_9
REMARK    4  A    between atoms: N_16  and  C_17
REMARK    5  A    between atoms: C_17  and  C_18
REMARK                            x       y       z     vdW  Elec       q    Type
REMARK                         _______ _______ _______ _____ _____    ______ ____
ROOT
ATOM      1  C   UNL     1      -0.161  10.591  19.342  0.00  0.00    +0.000 A 
ATOM      2  C   UNL     1       0.118   9.628  20.351  0.00  0.00    +0.000 A 
ATOM      3  C   UNL     1       1.056   8.775  19.808  0.00  0.00    +0.000 A 
ATOM      4  N   UNL     1       1.307   9.276  18.574  0.00  0.00    +0.000 N 
ATOM      5  N   UNL     1       0.648  10.398  18.283  0.00  0.00    +0.000 NA
ATOM      6  C   UNL     1       2.198   8.693  17.615  0.00  0.00    +0.000 C 
ATOM      7  C   UNL     1       2.734   7.344  18.072  0.00  0.00    +0.000 C 
ATOM      8  N   UNL     1       2.653   7.025  19.503  0.00  0.00    +0.000 N 
ATOM      9  C   UNL     1       1.692   7.605  20.336  0.00  0.00    +0.000 C 
ATOM     10  O   UNL     1       1.402   7.158  21.439  0.00  0.00    +0.000 OA
ENDROOT
BRANCH   1  15
ATOM     11  N   UNL     1      -2.778  12.707  23.295  0.00  0.00    +0.000 NA
ATOM     12  C   UNL     1      -3.501  12.886  22.007  0.00  0.00    +0.000 C 
ATOM     13  C   UNL     1      -2.595  13.145  20.781  0.00  0.00    +0.000 C 
ATOM     14  N   UNL     1      -1.529  12.149  20.689  0.00  0.00    +0.000 N 
ATOM     15  C   UNL     1      -1.140  11.692  19.426  0.00  0.00    +0.000 C 
ATOM     16  O   UNL     1      -1.598  12.190  18.396  0.00  0.00    +0.000 OA
ATOM     17  C   UNL     1      -0.789  11.941  21.941  0.00  0.00    +0.000 C 
ATOM     18  C   UNL     1      -1.757  11.653  23.101  0.00  0.00    +0.000 C 
BRANCH  11  20
ATOM     19  C   UNL     1      -2.934  14.588  24.962  0.00  0.00    +0.000 C 
ATOM     20  C   UNL     1      -2.221  13.991  23.753  0.00  0.00    +0.000 C 
ENDBRANCH  11  20
ENDBRANCH   1  15
BRANCH   8  21
ATOM     21  C   UNL     1       3.361   5.824  19.973  0.00  0.00    +0.000 C 
BRANCH  21  22
ATOM     22  C   UNL     1       3.116   4.622  19.084  0.00  0.00    +0.000 A 
ATOM     23  C   UNL     1       1.993   3.790  19.269  0.00  0.00    +0.000 A 
ATOM     24 CL   UNL     1       0.690   4.187  20.331  0.00  0.00    +0.000 Cl
ATOM     25  C   UNL     1       1.837   2.605  18.539  0.00  0.00    +0.000 A 
ATOM     26  C   UNL     1       2.783   2.228  17.595  0.00  0.00    +0.000 A 
ATOM     27  C   UNL     1       3.863   3.065  17.343  0.00  0.00    +0.000 A 
ATOM     28  C   UNL     1       4.020   4.257  18.065  0.00  0.00    +0.000 A 
ATOM     29 CL   UNL     1       5.346   5.263  17.582  0.00  0.00    +0.000 Cl
ENDBRANCH  21  22
ENDBRANCH   8  21
TORSDOF 4
ENDMDL
MODEL 5
REMARK VINA RESULT:      -7.5      3.170      9.506
REMARK  Name = 
REMARK  5 active torsions:
REMARK  status: ('A' for Active; 'I' for Inactive)
REMARK    1  A    between atoms: C_1  and  C_2
REMARK    2  A    between atoms: C_2  and  N_3
REMARK    3  A    between atoms: C_7  and  C_9
REMARK    4  A    between atoms: N_16  and  C_17
REMARK    5  A    between atoms: C_17  and  C_18
REMARK                            x       y       z     vdW  Elec       q    Type
REMARK                         _______ _______ _______ _____ _____    ______ ____
ROOT
ATOM      1  C   UNL     1       2.114   8.036  19.009  0.00  0.00    +0.000 A 
ATOM      2  C   UNL     1       1.367   9.086  18.406  0.00  0.00    +0.000 A 
ATOM      3  C   UNL     1       0.665   9.686  19.430  0.00  0.00    +0.000 A 
ATOM      4  N   UNL     1       1.045   9.019  20.547  0.00  0.00    +0.000 N 
ATOM      5  N   UNL     1       1.959   8.070  20.347  0.00  0.00    +0.000 NA
ATOM      6  C   UNL     1       0.540   9.269  21.865  0.00  0.00    +0.000 C 
ATOM      7  C   UNL     1      -0.598  10.279  21.865  0.00  0.00    +0.000 C 
ATOM      8  N   UNL     1      -0.741  11.148  20.691  0.00  0.00    +0.000 N 
ATOM      9  C   UNL     1      -0.271  10.770  19.430  0.00  0.00    +0.000 C 
ATOM     10  O   UNL     1      -0.623  11.316  18.391  0.00  0.00    +0.000 OA
ENDROOT
BRANCH   1  15
ATOM     11  N   UNL     1       3.447   3.119  20.008  0.00  0.00    +0.000 NA
ATOM     12  C   UNL     1       4.493   3.815  19.211  0.00  0.00    +0.000 C 
ATOM     13  C   UNL     1       3.954   4.812  18.158  0.00  0.00    +0.000 C 
ATOM     14  N   UNL     1       2.994   5.741  18.749  0.00  0.00    +0.000 N 
ATOM     15  C   UNL     1       2.989   7.071  18.318  0.00  0.00    +0.000 C 
ATOM     16  O   UNL     1       3.697   7.442  17.379  0.00  0.00    +0.000 OA
ATOM     17  C   UNL     1       1.943   5.095  19.547  0.00  0.00    +0.000 C 
ATOM     18  C   UNL     1       2.560   4.151  20.593  0.00  0.00    +0.000 C 
BRANCH  11  20
ATOM     19  C   UNL     1       3.650   1.281  18.301  0.00  0.00    +0.000 C 
ATOM     20  C   UNL     1       2.738   2.134  19.176  0.00  0.00    +0.000 C 
ENDBRANCH  11  20
ENDBRANCH   1  15
BRANCH   8  21
ATOM     21  C   UNL     1      -1.698  12.262  20.781  0.00  0.00    +0.000 C 
BRANCH  21  22
ATOM     22  C   UNL     1      -1.306  13.278  21.835  0.00  0.00    +0.000 A 
ATOM     23  C   UNL     1      -1.974  13.344  23.074  0.00  0.00    +0.000 A 
ATOM     24 CL   UNL     1      -3.104  12.149  23.602  0.00  0.00    +0.000 Cl
ATOM     25  C   UNL     1      -1.705  14.367  23.993  0.00  0.00    +0.000 A 
ATOM     26  C   UNL     1      -0.752  15.337  23.709  0.00  0.00    +0.000 A 
ATOM     27  C   UNL     1      -0.030  15.255  22.526  0.00  0.00    +0.000 A 
ATOM     28  C   UNL     1      -0.289  14.229  21.606  0.00  0.00    +0.000 A 
ATOM     29 CL   UNL     1       0.752  14.174  20.222  0.00  0.00    +0.000 Cl
ENDBRANCH  21  22
ENDBRANCH   8  21
TORSDOF 4
ENDMDL
MODEL 6
REMARK VINA RESULT:      -7.5      2.421      3.547
REMARK  Name = 
REMARK  5 active torsions:
REMARK  status: ('A' for Active; 'I' for Inactive)
REMARK    1  A    between atoms: C_1  and  C_2
REMARK    2  A    between atoms: C_2  and  N_3
REMARK    3  A    between atoms: C_7  and  C_9
REMARK    4  A    between atoms: N_16  and  C_17
REMARK    5  A    between atoms: C_17  and  C_18
REMARK                            x       y       z     vdW  Elec       q    Type
REMARK                         _______ _______ _______ _____ _____    ______ ____
ROOT
ATOM      1  C   UNL     1       0.853   9.314  20.512  0.00  0.00    +0.000 A 
ATOM      2  C   UNL     1       1.174   8.066  21.115  0.00  0.00    +0.000 A 
ATOM      3  C   UNL     1       1.976   7.406  20.207  0.00  0.00    +0.000 A 
ATOM      4  N   UNL     1       2.119   8.273  19.176  0.00  0.00    +0.000 N 
ATOM      5  N   UNL     1       1.517   9.450  19.348  0.00  0.00    +0.000 NA
ATOM      6  C   UNL     1       2.846   8.004  17.970  0.00  0.00    +0.000 C 
ATOM      7  C   UNL     1       3.328   6.563  17.897  0.00  0.00    +0.000 C 
ATOM      8  N   UNL     1       3.390   5.797  19.148  0.00  0.00    +0.000 N 
ATOM      9  C   UNL     1       2.578   6.107  20.244  0.00  0.00    +0.000 C 
ATOM     10  O   UNL     1       2.386   5.335  21.175  0.00  0.00    +0.000 OA
ENDROOT
BRANCH   1  15
ATOM     11  N   UNL     1      -2.837  12.324  18.444  0.00  0.00    +0.000 NA
ATOM     12  C   UNL     1      -2.219  12.963  19.637  0.00  0.00    +0.000 C 
ATOM     13  C   UNL     1      -1.846  11.989  20.779  0.00  0.00    +0.000 C 
ATOM     14  N   UNL     1      -1.060  10.863  20.281  0.00  0.00    +0.000 N 
ATOM     15  C   UNL     1      -0.024  10.360  21.073  0.00  0.00    +0.000 C 
ATOM     16  O   UNL     1       0.163  10.772  22.220  0.00  0.00    +0.000 OA
ATOM     17  C   UNL     1      -1.635  10.202  19.101  0.00  0.00    +0.000 C 
ATOM     18  C   UNL     1      -1.943  11.231  17.999  0.00  0.00    +0.000 C 
BRANCH  11  20
ATOM     19  C   UNL     1      -4.999  11.405  17.539  0.00  0.00    +0.000 C 
ATOM     20  C   UNL     1      -4.206  11.878  18.752  0.00  0.00    +0.000 C 
ENDBRANCH  11  20
ENDBRANCH   1  15
BRANCH   8  21
ATOM     21  C   UNL     1       4.055   4.486  19.112  0.00  0.00    +0.000 C 
BRANCH  21  22
ATOM     22  C   UNL     1       5.037   4.367  17.964  0.00  0.00    +0.000 A 
ATOM     23  C   UNL     1       6.344   4.887  18.060  0.00  0.00    +0.000 A 
ATOM     24 CL   UNL     1       7.021   5.470  19.538  0.00  0.00    +0.000 Cl
ATOM     25  C   UNL     1       7.206   4.899  16.956  0.00  0.00    +0.000 A 
ATOM     26  C   UNL     1       6.795   4.378  15.735  0.00  0.00    +0.000 A 
ATOM     27  C   UNL     1       5.539   3.796  15.632  0.00  0.00    +0.000 A 
ATOM     28  C   UNL     1       4.675   3.774  16.737  0.00  0.00    +0.000 A 
ATOM     29 CL   UNL     1       3.181   2.925  16.510  0.00  0.00    +0.000 Cl
ENDBRANCH  21  22
ENDBRANCH   8  21
TORSDOF 4
ENDMDL
MODEL 7
REMARK VINA RESULT:      -7.4      2.769      3.831
REMARK  Name = 
REMARK  5 active torsions:
REMARK  status: ('A' for Active; 'I' for Inactive)
REMARK    1  A    between atoms: C_1  and  C_2
REMARK    2  A    between atoms: C_2  and  N_3
REMARK    3  A    between atoms: C_7  and  C_9
REMARK    4  A    between atoms: N_16  and  C_17
REMARK    5  A    between atoms: C_17  and  C_18
REMARK                            x       y       z     vdW  Elec       q    Type
REMARK                         _______ _______ _______ _____ _____    ______ ____
ROOT
ATOM      1  C   UNL     1       0.779  10.495  18.678  0.00  0.00    +0.000 A 
ATOM      2  C   UNL     1       0.814   9.616  19.797  0.00  0.00    +0.000 A 
ATOM      3  C   UNL     1       1.643   8.576  19.433  0.00  0.00    +0.000 A 
ATOM      4  N   UNL     1       2.073   8.894  18.187  0.00  0.00    +0.000 N 
ATOM      5  N   UNL     1       1.631  10.065  17.727  0.00  0.00    +0.000 NA
ATOM      6  C   UNL     1       2.933   8.079  17.381  0.00  0.00    +0.000 C 
ATOM      7  C   UNL     1       3.203   6.723  18.014  0.00  0.00    +0.000 C 
ATOM      8  N   UNL     1       2.953   6.578  19.454  0.00  0.00    +0.000 N 
ATOM      9  C   UNL     1       2.033   7.387  20.129  0.00  0.00    +0.000 C 
ATOM     10  O   UNL     1       1.585   7.113  21.236  0.00  0.00    +0.000 OA
ENDROOT
BRANCH   1  15
ATOM     11  N   UNL     1       1.872  15.488  19.585  0.00  0.00    +0.000 NA
ATOM     12  C   UNL     1       0.417  15.216  19.727  0.00  0.00    +0.000 C 
ATOM     13  C   UNL     1      -0.155  14.187  18.723  0.00  0.00    +0.000 C 
ATOM     14  N   UNL     1       0.642  12.962  18.705  0.00  0.00    +0.000 N 
ATOM     15  C   UNL     1      -0.011  11.735  18.559  0.00  0.00    +0.000 C 
ATOM     16  O   UNL     1      -1.221  11.677  18.335  0.00  0.00    +0.000 OA
ATOM     17  C   UNL     1       2.088  13.187  18.568  0.00  0.00    +0.000 C 
ATOM     18  C   UNL     1       2.584  14.190  19.623  0.00  0.00    +0.000 C 
BRANCH  11  20
ATOM     19  C   UNL     1       3.608  16.556  18.107  0.00  0.00    +0.000 C 
ATOM     20  C   UNL     1       2.132  16.268  18.364  0.00  0.00    +0.000 C 
ENDBRANCH  11  20
ENDBRANCH   1  15
BRANCH   8  21
ATOM     21  C   UNL     1       3.415   5.342  20.105  0.00  0.00    +0.000 C 
BRANCH  21  22
ATOM     22  C   UNL     1       3.132   4.109  19.271  0.00  0.00    +0.000 A 
ATOM     23  C   UNL     1       1.893   3.440  19.348  0.00  0.00    +0.000 A 
ATOM     24 CL   UNL     1       0.525   4.082  20.185  0.00  0.00    +0.000 Cl
ATOM     25  C   UNL     1       1.678   2.226  18.683  0.00  0.00    +0.000 A 
ATOM     26  C   UNL     1       2.683   1.658  17.910  0.00  0.00    +0.000 A 
ATOM     27  C   UNL     1       3.888   2.332  17.760  0.00  0.00    +0.000 A 
ATOM     28  C   UNL     1       4.106   3.551  18.417  0.00  0.00    +0.000 A 
ATOM     29 CL   UNL     1       5.606   4.342  18.063  0.00  0.00    +0.000 Cl
ENDBRANCH  21  22
ENDBRANCH   8  21
TORSDOF 4
ENDMDL
MODEL 8
REMARK VINA RESULT:      -7.4      3.209      9.263
REMARK  Name = 
REMARK  5 active torsions:
REMARK  status: ('A' for Active; 'I' for Inactive)
REMARK    1  A    between atoms: C_1  and  C_2
REMARK    2  A    between atoms: C_2  and  N_3
REMARK    3  A    between atoms: C_7  and  C_9
REMARK    4  A    between atoms: N_16  and  C_17
REMARK    5  A    between atoms: C_17  and  C_18
REMARK                            x       y       z     vdW  Elec       q    Type
REMARK                         _______ _______ _______ _____ _____    ______ ____
ROOT
ATOM      1  C   UNL     1       2.268   8.046  18.679  0.00  0.00    +0.000 A 
ATOM      2  C   UNL     1       1.441   9.040  18.084  0.00  0.00    +0.000 A 
ATOM      3  C   UNL     1       0.712   9.590  19.118  0.00  0.00    +0.000 A 
ATOM      4  N   UNL     1       1.152   8.954  20.230  0.00  0.00    +0.000 N 
ATOM      5  N   UNL     1       2.128   8.071  20.019  0.00  0.00    +0.000 NA
ATOM      6  C   UNL     1       0.649   9.170  21.555  0.00  0.00    +0.000 C 
ATOM      7  C   UNL     1      -0.558  10.096  21.569  0.00  0.00    +0.000 C 
ATOM      8  N   UNL     1      -0.777  10.952  20.396  0.00  0.00    +0.000 N 
ATOM      9  C   UNL     1      -0.298  10.606  19.129  0.00  0.00    +0.000 C 
ATOM     10  O   UNL     1      -0.701  11.124  18.095  0.00  0.00    +0.000 OA
ENDROOT
BRANCH   1  15
ATOM     11  N   UNL     1       3.700   3.120  19.472  0.00  0.00    +0.000 NA
ATOM     12  C   UNL     1       4.758   3.886  18.760  0.00  0.00    +0.000 C 
ATOM     13  C   UNL     1       4.237   4.924  17.739  0.00  0.00    +0.000 C 
ATOM     14  N   UNL     1       3.225   5.794  18.336  0.00  0.00    +0.000 N 
ATOM     15  C   UNL     1       3.200   7.145  17.977  0.00  0.00    +0.000 C 
ATOM     16  O   UNL     1       3.937   7.585  17.092  0.00  0.00    +0.000 OA
ATOM     17  C   UNL     1       2.160   5.076  19.050  0.00  0.00    +0.000 C 
ATOM     18  C   UNL     1       2.758   4.093  20.071  0.00  0.00    +0.000 C 
BRANCH  11  20
ATOM     19  C   UNL     1       1.644   1.757  18.967  0.00  0.00    +0.000 C 
ATOM     20  C   UNL     1       3.056   2.163  18.558  0.00  0.00    +0.000 C 
ENDBRANCH  11  20
ENDBRANCH   1  15
BRANCH   8  21
ATOM     21  C   UNL     1      -1.809  11.996  20.498  0.00  0.00    +0.000 C 
BRANCH  21  22
ATOM     22  C   UNL     1      -1.377  13.152  21.377  0.00  0.00    +0.000 A 
ATOM     23  C   UNL     1      -0.547  14.178  20.882  0.00  0.00    +0.000 A 
ATOM     24 CL   UNL     1      -0.155  14.351  19.209  0.00  0.00    +0.000 Cl
ATOM     25  C   UNL     1      -0.037  15.173  21.727  0.00  0.00    +0.000 A 
ATOM     26  C   UNL     1      -0.356  15.181  23.079  0.00  0.00    +0.000 A 
ATOM     27  C   UNL     1      -1.228  14.223  23.578  0.00  0.00    +0.000 A 
ATOM     28  C   UNL     1      -1.748  13.230  22.736  0.00  0.00    +0.000 A 
ATOM     29 CL   UNL     1      -2.907  12.161  23.454  0.00  0.00    +0.000 Cl
ENDBRANCH  21  22
ENDBRANCH   8  21
TORSDOF 4
ENDMDL
MODEL 9
REMARK VINA RESULT:      -7.3      1.551      1.695
REMARK  Name = 
REMARK  5 active torsions:
REMARK  status: ('A' for Active; 'I' for Inactive)
REMARK    1  A    between atoms: C_1  and  C_2
REMARK    2  A    between atoms: C_2  and  N_3
REMARK    3  A    between atoms: C_7  and  C_9
REMARK    4  A    between atoms: N_16  and  C_17
REMARK    5  A    between atoms: C_17  and  C_18
REMARK                            x       y       z     vdW  Elec       q    Type
REMARK                         _______ _______ _______ _____ _____    ______ ____
ROOT
ATOM      1  C   UNL     1      -0.469  10.927  19.572  0.00  0.00    +0.000 A 
ATOM      2  C   UNL     1      -0.125   9.946  20.544  0.00  0.00    +0.000 A 
ATOM      3  C   UNL     1       0.813   9.133  19.942  0.00  0.00    +0.000 A 
ATOM      4  N   UNL     1       1.001   9.672  18.713  0.00  0.00    +0.000 N 
ATOM      5  N   UNL     1       0.303  10.782  18.477  0.00  0.00    +0.000 NA
ATOM      6  C   UNL     1       1.868   9.137  17.705  0.00  0.00    +0.000 C 
ATOM      7  C   UNL     1       2.456   7.792  18.105  0.00  0.00    +0.000 C 
ATOM      8  N   UNL     1       2.440   7.434  19.529  0.00  0.00    +0.000 N 
ATOM      9  C   UNL     1       1.498   7.968  20.414  0.00  0.00    +0.000 C 
ATOM     10  O   UNL     1       1.265   7.486  21.515  0.00  0.00    +0.000 OA
ENDROOT
BRANCH   1  15
ATOM     11  N   UNL     1      -0.528  15.367  22.262  0.00  0.00    +0.000 NA
ATOM     12  C   UNL     1      -1.905  14.853  22.030  0.00  0.00    +0.000 C 
ATOM     13  C   UNL     1      -2.127  14.181  20.654  0.00  0.00    +0.000 C 
ATOM     14  N   UNL     1      -1.103  13.173  20.385  0.00  0.00    +0.000 N 
ATOM     15  C   UNL     1      -1.472  11.998  19.722  0.00  0.00    +0.000 C 
ATOM     16  O   UNL     1      -2.608  11.849  19.268  0.00  0.00    +0.000 OA
ATOM     17  C   UNL     1       0.273  13.639  20.603  0.00  0.00    +0.000 C 
ATOM     18  C   UNL     1       0.420  14.259  22.003  0.00  0.00    +0.000 C 
BRANCH  11  20
ATOM     19  C   UNL     1      -1.211  17.731  21.734  0.00  0.00    +0.000 C 
ATOM     20  C   UNL     1      -0.279  16.561  21.438  0.00  0.00    +0.000 C 
ENDBRANCH  11  20
ENDBRANCH   1  15
BRANCH   8  21
ATOM     21  C   UNL     1       3.197   6.242  19.940  0.00  0.00    +0.000 C 
BRANCH  21  22
ATOM     22  C   UNL     1       2.983   5.069  19.004  0.00  0.00    +0.000 A 
ATOM     23  C   UNL     1       3.867   4.812  17.937  0.00  0.00    +0.000 A 
ATOM     24 CL   UNL     1       5.375   5.630  17.743  0.00  0.00    +0.000 Cl
ATOM     25  C   UNL     1       3.596   3.813  16.992  0.00  0.00    +0.000 A 
ATOM     26  C   UNL     1       2.451   3.035  17.097  0.00  0.00    +0.000 A 
ATOM     27  C   UNL     1       1.599   3.220  18.179  0.00  0.00    +0.000 A 
ATOM     28  C   UNL     1       1.869   4.213  19.132  0.00  0.00    +0.000 A 
ATOM     29 CL   UNL     1       0.792   4.271  20.488  0.00  0.00    +0.000 Cl
ENDBRANCH  21  22
ENDBRANCH   8  21
TORSDOF 4
ENDMDL
