MODEL 1
REMARK VINA RESULT:      -6.8      0.000      0.000
REMARK  Name = 
REMARK  16 active torsions:
REMARK  status: ('A' for Active; 'I' for Inactive)
REMARK    1  A    between atoms: C_1  and  C_2
REMARK    2  A    between atoms: C_2  and  C_3
REMARK    3  A    between atoms: C_3  and  C_4
REMARK    4  A    between atoms: C_4  and  C_5
REMARK    5  A    between atoms: C_5  and  C_6
REMARK    6  A    between atoms: C_6  and  O_7
REMARK    7  A    between atoms: C_6  and  C_8
REMARK    8  A    between atoms: C_9  and  C_10
REMARK    9  A    between atoms: C_11  and  O_12
REMARK   10  A    between atoms: C_16  and  S_17
REMARK   11  A    between atoms: S_17  and  C_18
REMARK   12  A    between atoms: C_18  and  C_19
REMARK   13  A    between atoms: C_19  and  C_20
REMARK   14  A    between atoms: C_20  and  C_21
REMARK   15  A    between atoms: C_21  and  O_23
REMARK   16  A    between atoms: O_23  and  C_24
REMARK                            x       y       z     vdW  Elec       q    Type
REMARK                         _______ _______ _______ _____ _____    ______ ____
ROOT
ATOM      1  C   UNL     1       6.321   5.278  16.659  0.00  0.00    +0.000 C 
ATOM      2  C   UNL     1       7.494   5.215  17.661  0.00  0.00    +0.000 C 
ATOM      3  C   UNL     1       6.919   5.380  19.063  0.00  0.00    +0.000 C 
ATOM      4  C   UNL     1       5.408   5.524  18.934  0.00  0.00    +0.000 C 
ATOM      5  N   UNL     1       4.703   4.496  19.729  0.00  0.00    +0.000 NA
ATOM      6  C   UNL     1       3.876   3.923  18.920  0.00  0.00    +0.000 C 
ATOM      7  C   UNL     1       3.938   4.286  17.473  0.00  0.00    +0.000 C 
ATOM      8  C   UNL     1       5.007   5.363  17.468  0.00  0.00    +0.000 C 
ENDROOT
BRANCH   1  10
ATOM      9  C   UNL     1       6.728   4.825  14.180  0.00  0.00    +0.000 C 
ATOM     10  C   UNL     1       6.464   4.416  15.430  0.00  0.00    +0.000 C 
BRANCH   9  11
ATOM     11  C   UNL     1       6.784   3.917  12.983  0.00  0.00    +0.000 C 
BRANCH  11  12
ATOM     12  O   UNL     1       7.405   4.635  11.921  0.00  0.00    +0.000 OA
ATOM     13  H   UNL     1       7.790   5.443  12.293  0.00  0.00    +0.000 HD
ENDBRANCH  11  12
BRANCH  11  14
ATOM     14  C   UNL     1       5.365   3.498  12.584  0.00  0.00    +0.000 C 
BRANCH  14  15
ATOM     15  C   UNL     1       5.352   2.351  11.573  0.00  0.00    +0.000 C 
BRANCH  15  16
ATOM     16  C   UNL     1       4.102   2.425  10.686  0.00  0.00    +0.000 C 
BRANCH  16  18
ATOM     17  C   UNL     1       2.938   4.274   9.447  0.00  0.00    +0.000 C 
ATOM     18  C   UNL     1       3.430   3.787  10.802  0.00  0.00    +0.000 C 
ENDBRANCH  16  18
ENDBRANCH  15  16
ENDBRANCH  14  15
ENDBRANCH  11  14
ENDBRANCH   9  11
ENDBRANCH   1  10
BRANCH   2  19
ATOM     19  O   UNL     1       8.272   4.028  17.584  0.00  0.00    +0.000 OA
ATOM     20  H   UNL     1       8.345   3.656  18.477  0.00  0.00    +0.000 HD
ENDBRANCH   2  19
BRANCH   6  21
ATOM     21  S   UNL     1       2.706   2.737  19.423  0.00  0.00    +0.000 S 
BRANCH  21  22
ATOM     22  C   UNL     1       1.786   3.663  20.701  0.00  0.00    +0.000 C 
BRANCH  22  23
ATOM     23  C   UNL     1       1.325   5.017  20.140  0.00  0.00    +0.000 C 
BRANCH  23  24
ATOM     24  C   UNL     1       1.860   6.218  20.927  0.00  0.00    +0.000 C 
BRANCH  24  25
ATOM     25  C   UNL     1       1.842   7.510  20.142  0.00  0.00    +0.000 C 
ATOM     26  O   UNL     1       1.185   8.498  20.434  0.00  0.00    +0.000 OA
BRANCH  25  27
ATOM     27  O   UNL     1       2.695   7.417  19.083  0.00  0.00    +0.000 OA
ATOM     28  C   UNL     1       2.223   8.051  17.892  0.00  0.00    +0.000 C 
ENDBRANCH  25  27
ENDBRANCH  24  25
ENDBRANCH  23  24
ENDBRANCH  22  23
ENDBRANCH  21  22
ENDBRANCH   6  21
TORSDOF 14
ENDMDL
MODEL 2
REMARK VINA RESULT:      -6.6      1.584      2.034
REMARK  Name = 
REMARK  16 active torsions:
REMARK  status: ('A' for Active; 'I' for Inactive)
REMARK    1  A    between atoms: C_1  and  C_2
REMARK    2  A    between atoms: C_2  and  C_3
REMARK    3  A    between atoms: C_3  and  C_4
REMARK    4  A    between atoms: C_4  and  C_5
REMARK    5  A    between atoms: C_5  and  C_6
REMARK    6  A    between atoms: C_6  and  O_7
REMARK    7  A    between atoms: C_6  and  C_8
REMARK    8  A    between atoms: C_9  and  C_10
REMARK    9  A    between atoms: C_11  and  O_12
REMARK   10  A    between atoms: C_16  and  S_17
REMARK   11  A    between atoms: S_17  and  C_18
REMARK   12  A    between atoms: C_18  and  C_19
REMARK   13  A    between atoms: C_19  and  C_20
REMARK   14  A    between atoms: C_20  and  C_21
REMARK   15  A    between atoms: C_21  and  O_23
REMARK   16  A    between atoms: O_23  and  C_24
REMARK                            x       y       z     vdW  Elec       q    Type
REMARK                         _______ _______ _______ _____ _____    ______ ____
ROOT
ATOM      1  C   UNL     1       6.479   5.710  16.861  0.00  0.00    +0.000 C 
ATOM      2  C   UNL     1       7.433   5.160  17.943  0.00  0.00    +0.000 C 
ATOM      3  C   UNL     1       6.588   4.727  19.135  0.00  0.00    +0.000 C 
ATOM      4  C   UNL     1       5.127   4.987  18.791  0.00  0.00    +0.000 C 
ATOM      5  N   UNL     1       4.323   3.751  18.904  0.00  0.00    +0.000 NA
ATOM      6  C   UNL     1       3.695   3.629  17.782  0.00  0.00    +0.000 C 
ATOM      7  C   UNL     1       4.025   4.582  16.681  0.00  0.00    +0.000 C 
ATOM      8  C   UNL     1       5.028   5.500  17.354  0.00  0.00    +0.000 C 
ENDROOT
BRANCH   1  10
ATOM      9  C   UNL     1       6.734   4.334  14.727  0.00  0.00    +0.000 C 
ATOM     10  C   UNL     1       6.895   5.463  15.434  0.00  0.00    +0.000 C 
BRANCH   9  11
ATOM     11  C   UNL     1       7.240   4.129  13.327  0.00  0.00    +0.000 C 
BRANCH  11  12
ATOM     12  O   UNL     1       7.216   5.390  12.666  0.00  0.00    +0.000 OA
ATOM     13  H   UNL     1       7.650   5.283  11.804  0.00  0.00    +0.000 HD
ENDBRANCH  11  12
BRANCH  11  14
ATOM     14  C   UNL     1       6.344   3.126  12.592  0.00  0.00    +0.000 C 
BRANCH  14  15
ATOM     15  C   UNL     1       4.990   3.720  12.204  0.00  0.00    +0.000 C 
BRANCH  15  16
ATOM     16  C   UNL     1       4.401   2.980  10.996  0.00  0.00    +0.000 C 
BRANCH  16  18
ATOM     17  C   UNL     1       3.011   4.228   9.316  0.00  0.00    +0.000 C 
ATOM     18  C   UNL     1       3.013   3.506  10.656  0.00  0.00    +0.000 C 
ENDBRANCH  16  18
ENDBRANCH  15  16
ENDBRANCH  14  15
ENDBRANCH  11  14
ENDBRANCH   9  11
ENDBRANCH   1  10
BRANCH   2  19
ATOM     19  O   UNL     1       8.260   4.088  17.510  0.00  0.00    +0.000 OA
ATOM     20  H   UNL     1       7.937   3.787  16.645  0.00  0.00    +0.000 HD
ENDBRANCH   2  19
BRANCH   6  21
ATOM     21  S   UNL     1       2.499   2.401  17.479  0.00  0.00    +0.000 S 
BRANCH  21  22
ATOM     22  C   UNL     1       2.131   1.835  19.177  0.00  0.00    +0.000 C 
BRANCH  22  23
ATOM     23  C   UNL     1       0.771   2.389  19.633  0.00  0.00    +0.000 C 
BRANCH  23  24
ATOM     24  C   UNL     1       0.858   3.788  20.251  0.00  0.00    +0.000 C 
BRANCH  24  25
ATOM     25  C   UNL     1       1.834   3.880  21.402  0.00  0.00    +0.000 C 
ATOM     26  O   UNL     1       1.983   3.027  22.264  0.00  0.00    +0.000 OA
BRANCH  25  27
ATOM     27  O   UNL     1       2.544   5.040  21.311  0.00  0.00    +0.000 OA
ATOM     28  C   UNL     1       1.880   6.080  20.590  0.00  0.00    +0.000 C 
ENDBRANCH  25  27
ENDBRANCH  24  25
ENDBRANCH  23  24
ENDBRANCH  22  23
ENDBRANCH  21  22
ENDBRANCH   6  21
TORSDOF 14
ENDMDL
MODEL 3
REMARK VINA RESULT:      -6.5      1.841      2.432
REMARK  Name = 
REMARK  16 active torsions:
REMARK  status: ('A' for Active; 'I' for Inactive)
REMARK    1  A    between atoms: C_1  and  C_2
REMARK    2  A    between atoms: C_2  and  C_3
REMARK    3  A    between atoms: C_3  and  C_4
REMARK    4  A    between atoms: C_4  and  C_5
REMARK    5  A    between atoms: C_5  and  C_6
REMARK    6  A    between atoms: C_6  and  O_7
REMARK    7  A    between atoms: C_6  and  C_8
REMARK    8  A    between atoms: C_9  and  C_10
REMARK    9  A    between atoms: C_11  and  O_12
REMARK   10  A    between atoms: C_16  and  S_17
REMARK   11  A    between atoms: S_17  and  C_18
REMARK   12  A    between atoms: C_18  and  C_19
REMARK   13  A    between atoms: C_19  and  C_20
REMARK   14  A    between atoms: C_20  and  C_21
REMARK   15  A    between atoms: C_21  and  O_23
REMARK   16  A    between atoms: O_23  and  C_24
REMARK                            x       y       z     vdW  Elec       q    Type
REMARK                         _______ _______ _______ _____ _____    ______ ____
ROOT
ATOM      1  C   UNL     1       5.554   5.740  15.707  0.00  0.00    +0.000 C 
ATOM      2  C   UNL     1       6.473   6.738  16.442  0.00  0.00    +0.000 C 
ATOM      3  C   UNL     1       5.903   6.958  17.838  0.00  0.00    +0.000 C 
ATOM      4  C   UNL     1       4.657   6.092  17.975  0.00  0.00    +0.000 C 
ATOM      5  N   UNL     1       4.766   5.176  19.130  0.00  0.00    +0.000 NA
ATOM      6  C   UNL     1       4.516   3.994  18.674  0.00  0.00    +0.000 C 
ATOM      7  C   UNL     1       4.355   3.826  17.199  0.00  0.00    +0.000 C 
ATOM      8  C   UNL     1       4.479   5.256  16.708  0.00  0.00    +0.000 C 
ENDROOT
BRANCH   1  10
ATOM      9  C   UNL     1       5.886   4.558  13.470  0.00  0.00    +0.000 C 
ATOM     10  C   UNL     1       6.239   4.809  14.739  0.00  0.00    +0.000 C 
BRANCH   9  11
ATOM     11  C   UNL     1       6.572   3.559  12.579  0.00  0.00    +0.000 C 
BRANCH  11  12
ATOM     12  O   UNL     1       7.399   4.280  11.671  0.00  0.00    +0.000 OA
ATOM     13  H   UNL     1       8.265   3.844  11.647  0.00  0.00    +0.000 HD
ENDBRANCH  11  12
BRANCH  11  14
ATOM     14  C   UNL     1       5.526   2.743  11.813  0.00  0.00    +0.000 C 
BRANCH  14  15
ATOM     15  C   UNL     1       4.263   3.546  11.501  0.00  0.00    +0.000 C 
BRANCH  15  16
ATOM     16  C   UNL     1       3.201   2.654  10.845  0.00  0.00    +0.000 C 
BRANCH  16  18
ATOM     17  C   UNL     1       2.817   4.678   9.408  0.00  0.00    +0.000 C 
ATOM     18  C   UNL     1       2.850   3.157   9.451  0.00  0.00    +0.000 C 
ENDBRANCH  16  18
ENDBRANCH  15  16
ENDBRANCH  14  15
ENDBRANCH  11  14
ENDBRANCH   9  11
ENDBRANCH   1  10
BRANCH   2  19
ATOM     19  O   UNL     1       7.834   6.336  16.524  0.00  0.00    +0.000 OA
ATOM     20  H   UNL     1       7.874   5.375  16.393  0.00  0.00    +0.000 HD
ENDBRANCH   2  19
BRANCH   6  21
ATOM     21  S   UNL     1       4.375   2.584  19.685  0.00  0.00    +0.000 S 
BRANCH  21  22
ATOM     22  C   UNL     1       3.363   1.488  18.630  0.00  0.00    +0.000 C 
BRANCH  22  23
ATOM     23  C   UNL     1       1.900   1.510  19.102  0.00  0.00    +0.000 C 
BRANCH  23  24
ATOM     24  C   UNL     1       1.295   2.917  19.152  0.00  0.00    +0.000 C 
BRANCH  24  25
ATOM     25  C   UNL     1       1.038   3.414  20.556  0.00  0.00    +0.000 C 
ATOM     26  O   UNL     1       1.178   2.748  21.571  0.00  0.00    +0.000 OA
BRANCH  25  27
ATOM     27  O   UNL     1       0.661   4.723  20.519  0.00  0.00    +0.000 OA
ATOM     28  C   UNL     1       1.747   5.649  20.607  0.00  0.00    +0.000 C 
ENDBRANCH  25  27
ENDBRANCH  24  25
ENDBRANCH  23  24
ENDBRANCH  22  23
ENDBRANCH  21  22
ENDBRANCH   6  21
TORSDOF 14
ENDMDL
MODEL 4
REMARK VINA RESULT:      -6.5      3.169      5.383
REMARK  Name = 
REMARK  16 active torsions:
REMARK  status: ('A' for Active; 'I' for Inactive)
REMARK    1  A    between atoms: C_1  and  C_2
REMARK    2  A    between atoms: C_2  and  C_3
REMARK    3  A    between atoms: C_3  and  C_4
REMARK    4  A    between atoms: C_4  and  C_5
REMARK    5  A    between atoms: C_5  and  C_6
REMARK    6  A    between atoms: C_6  and  O_7
REMARK    7  A    between atoms: C_6  and  C_8
REMARK    8  A    between atoms: C_9  and  C_10
REMARK    9  A    between atoms: C_11  and  O_12
REMARK   10  A    between atoms: C_16  and  S_17
REMARK   11  A    between atoms: S_17  and  C_18
REMARK   12  A    between atoms: C_18  and  C_19
REMARK   13  A    between atoms: C_19  and  C_20
REMARK   14  A    between atoms: C_20  and  C_21
REMARK   15  A    between atoms: C_21  and  O_23
REMARK   16  A    between atoms: O_23  and  C_24
REMARK                            x       y       z     vdW  Elec       q    Type
REMARK                         _______ _______ _______ _____ _____    ______ ____
ROOT
ATOM      1  C   UNL     1       3.615   2.820  19.043  0.00  0.00    +0.000 C 
ATOM      2  C   UNL     1       2.260   2.085  18.963  0.00  0.00    +0.000 C 
ATOM      3  C   UNL     1       1.335   2.693  20.009  0.00  0.00    +0.000 C 
ATOM      4  C   UNL     1       2.099   3.805  20.718  0.00  0.00    +0.000 C 
ATOM      5  N   UNL     1       1.379   5.093  20.622  0.00  0.00    +0.000 NA
ATOM      6  C   UNL     1       2.232   5.946  20.161  0.00  0.00    +0.000 C 
ATOM      7  C   UNL     1       3.567   5.441  19.719  0.00  0.00    +0.000 C 
ATOM      8  C   UNL     1       3.473   3.968  20.070  0.00  0.00    +0.000 C 
ENDROOT
BRANCH   1  10
ATOM      9  C   UNL     1       4.416   4.091  16.980  0.00  0.00    +0.000 C 
ATOM     10  C   UNL     1       4.349   2.986  17.738  0.00  0.00    +0.000 C 
BRANCH   9  11
ATOM     11  C   UNL     1       5.107   4.167  15.647  0.00  0.00    +0.000 C 
BRANCH  11  12
ATOM     12  O   UNL     1       6.075   3.123  15.597  0.00  0.00    +0.000 OA
ATOM     13  H   UNL     1       6.633   3.197  16.388  0.00  0.00    +0.000 HD
ENDBRANCH  11  12
BRANCH  11  14
ATOM     14  C   UNL     1       5.788   5.531  15.492  0.00  0.00    +0.000 C 
BRANCH  14  15
ATOM     15  C   UNL     1       7.045   5.664  16.352  0.00  0.00    +0.000 C 
BRANCH  15  16
ATOM     16  C   UNL     1       6.951   6.894  17.263  0.00  0.00    +0.000 C 
BRANCH  16  18
ATOM     17  C   UNL     1       7.338   5.499  19.316  0.00  0.00    +0.000 C 
ATOM     18  C   UNL     1       7.795   6.711  18.517  0.00  0.00    +0.000 C 
ENDBRANCH  16  18
ENDBRANCH  15  16
ENDBRANCH  14  15
ENDBRANCH  11  14
ENDBRANCH   9  11
ENDBRANCH   1  10
BRANCH   2  19
ATOM     19  O   UNL     1       1.646   2.121  17.681  0.00  0.00    +0.000 OA
ATOM     20  H   UNL     1       2.283   2.492  17.050  0.00  0.00    +0.000 HD
ENDBRANCH   2  19
BRANCH   6  21
ATOM     21  S   UNL     1       1.903   7.648  20.009  0.00  0.00    +0.000 S 
BRANCH  21  22
ATOM     22  C   UNL     1       2.246   7.921  18.235  0.00  0.00    +0.000 C 
BRANCH  22  23
ATOM     23  C   UNL     1       1.503   9.174  17.743  0.00  0.00    +0.000 C 
BRANCH  23  24
ATOM     24  C   UNL     1       0.992  10.066  18.880  0.00  0.00    +0.000 C 
BRANCH  24  25
ATOM     25  C   UNL     1      -0.328  10.737  18.574  0.00  0.00    +0.000 C 
ATOM     26  O   UNL     1      -0.715  11.782  19.075  0.00  0.00    +0.000 OA
BRANCH  25  27
ATOM     27  O   UNL     1      -1.001  10.018  17.632  0.00  0.00    +0.000 OA
ATOM     28  C   UNL     1      -2.421  10.017  17.799  0.00  0.00    +0.000 C 
ENDBRANCH  25  27
ENDBRANCH  24  25
ENDBRANCH  23  24
ENDBRANCH  22  23
ENDBRANCH  21  22
ENDBRANCH   6  21
TORSDOF 14
ENDMDL
MODEL 5
REMARK VINA RESULT:      -6.5      3.348      5.679
REMARK  Name = 
REMARK  16 active torsions:
REMARK  status: ('A' for Active; 'I' for Inactive)
REMARK    1  A    between atoms: C_1  and  C_2
REMARK    2  A    between atoms: C_2  and  C_3
REMARK    3  A    between atoms: C_3  and  C_4
REMARK    4  A    between atoms: C_4  and  C_5
REMARK    5  A    between atoms: C_5  and  C_6
REMARK    6  A    between atoms: C_6  and  O_7
REMARK    7  A    between atoms: C_6  and  C_8
REMARK    8  A    between atoms: C_9  and  C_10
REMARK    9  A    between atoms: C_11  and  O_12
REMARK   10  A    between atoms: C_16  and  S_17
REMARK   11  A    between atoms: S_17  and  C_18
REMARK   12  A    between atoms: C_18  and  C_19
REMARK   13  A    between atoms: C_19  and  C_20
REMARK   14  A    between atoms: C_20  and  C_21
REMARK   15  A    between atoms: C_21  and  O_23
REMARK   16  A    between atoms: O_23  and  C_24
REMARK                            x       y       z     vdW  Elec       q    Type
REMARK                         _______ _______ _______ _____ _____    ______ ____
ROOT
ATOM      1  C   UNL     1       3.161   3.497  19.019  0.00  0.00    +0.000 C 
ATOM      2  C   UNL     1       1.839   2.730  19.233  0.00  0.00    +0.000 C 
ATOM      3  C   UNL     1       1.114   3.368  20.412  0.00  0.00    +0.000 C 
ATOM      4  C   UNL     1       1.965   4.528  20.911  0.00  0.00    +0.000 C 
ATOM      5  N   UNL     1       1.202   5.795  20.900  0.00  0.00    +0.000 NA
ATOM      6  C   UNL     1       1.924   6.642  20.246  0.00  0.00    +0.000 C 
ATOM      7  C   UNL     1       3.164   6.146  19.577  0.00  0.00    +0.000 C 
ATOM      8  C   UNL     1       3.184   4.690  20.003  0.00  0.00    +0.000 C 
ENDROOT
BRANCH   1  10
ATOM      9  C   UNL     1       4.865   3.901  17.162  0.00  0.00    +0.000 C 
ATOM     10  C   UNL     1       3.626   3.615  17.590  0.00  0.00    +0.000 C 
BRANCH   9  11
ATOM     11  C   UNL     1       5.246   4.076  15.719  0.00  0.00    +0.000 C 
BRANCH  11  12
ATOM     12  O   UNL     1       6.162   3.040  15.380  0.00  0.00    +0.000 OA
ATOM     13  H   UNL     1       7.035   3.444  15.254  0.00  0.00    +0.000 HD
ENDBRANCH  11  12
BRANCH  11  14
ATOM     14  C   UNL     1       5.897   5.448  15.517  0.00  0.00    +0.000 C 
BRANCH  14  15
ATOM     15  C   UNL     1       5.071   6.588  16.114  0.00  0.00    +0.000 C 
BRANCH  15  16
ATOM     16  C   UNL     1       5.772   7.180  17.343  0.00  0.00    +0.000 C 
BRANCH  16  18
ATOM     17  C   UNL     1       8.002   8.226  17.838  0.00  0.00    +0.000 C 
ATOM     18  C   UNL     1       7.283   7.027  17.237  0.00  0.00    +0.000 C 
ENDBRANCH  16  18
ENDBRANCH  15  16
ENDBRANCH  14  15
ENDBRANCH  11  14
ENDBRANCH   9  11
ENDBRANCH   1  10
BRANCH   2  19
ATOM     19  O   UNL     1       0.989   2.691  18.094  0.00  0.00    +0.000 OA
ATOM     20  H   UNL     1       0.853   3.601  17.787  0.00  0.00    +0.000 HD
ENDBRANCH   2  19
BRANCH   6  21
ATOM     21  S   UNL     1       1.520   8.328  20.088  0.00  0.00    +0.000 S 
BRANCH  21  22
ATOM     22  C   UNL     1       1.320   8.813  21.838  0.00  0.00    +0.000 C 
BRANCH  22  23
ATOM     23  C   UNL     1      -0.172   8.846  22.207  0.00  0.00    +0.000 C 
BRANCH  23  24
ATOM     24  C   UNL     1      -0.545  10.005  23.137  0.00  0.00    +0.000 C 
BRANCH  24  25
ATOM     25  C   UNL     1      -0.971  11.255  22.403  0.00  0.00    +0.000 C 
ATOM     26  O   UNL     1      -1.114  11.343  21.193  0.00  0.00    +0.000 OA
BRANCH  25  27
ATOM     27  O   UNL     1      -1.204  12.257  23.298  0.00  0.00    +0.000 OA
ATOM     28  C   UNL     1      -0.817  13.554  22.840  0.00  0.00    +0.000 C 
ENDBRANCH  25  27
ENDBRANCH  24  25
ENDBRANCH  23  24
ENDBRANCH  22  23
ENDBRANCH  21  22
ENDBRANCH   6  21
TORSDOF 14
ENDMDL
MODEL 6
REMARK VINA RESULT:      -6.5      1.106      1.463
REMARK  Name = 
REMARK  16 active torsions:
REMARK  status: ('A' for Active; 'I' for Inactive)
REMARK    1  A    between atoms: C_1  and  C_2
REMARK    2  A    between atoms: C_2  and  C_3
REMARK    3  A    between atoms: C_3  and  C_4
REMARK    4  A    between atoms: C_4  and  C_5
REMARK    5  A    between atoms: C_5  and  C_6
REMARK    6  A    between atoms: C_6  and  O_7
REMARK    7  A    between atoms: C_6  and  C_8
REMARK    8  A    between atoms: C_9  and  C_10
REMARK    9  A    between atoms: C_11  and  O_12
REMARK   10  A    between atoms: C_16  and  S_17
REMARK   11  A    between atoms: S_17  and  C_18
REMARK   12  A    between atoms: C_18  and  C_19
REMARK   13  A    between atoms: C_19  and  C_20
REMARK   14  A    between atoms: C_20  and  C_21
REMARK   15  A    between atoms: C_21  and  O_23
REMARK   16  A    between atoms: O_23  and  C_24
REMARK                            x       y       z     vdW  Elec       q    Type
REMARK                         _______ _______ _______ _____ _____    ______ ____
ROOT
ATOM      1  C   UNL     1       5.958   5.701  16.148  0.00  0.00    +0.000 C 
ATOM      2  C   UNL     1       7.253   5.470  16.955  0.00  0.00    +0.000 C 
ATOM      3  C   UNL     1       6.866   5.280  18.417  0.00  0.00    +0.000 C 
ATOM      4  C   UNL     1       5.348   5.371  18.513  0.00  0.00    +0.000 C 
ATOM      5  N   UNL     1       4.776   4.153  19.125  0.00  0.00    +0.000 NA
ATOM      6  C   UNL     1       3.862   3.740  18.313  0.00  0.00    +0.000 C 
ATOM      7  C   UNL     1       3.724   4.428  16.995  0.00  0.00    +0.000 C 
ATOM      8  C   UNL     1       4.760   5.531  17.111  0.00  0.00    +0.000 C 
ENDROOT
BRANCH   1  10
ATOM      9  C   UNL     1       6.131   3.875  14.373  0.00  0.00    +0.000 C 
ATOM     10  C   UNL     1       5.955   5.153  14.744  0.00  0.00    +0.000 C 
BRANCH   9  11
ATOM     11  C   UNL     1       6.190   3.406  12.946  0.00  0.00    +0.000 C 
BRANCH  11  12
ATOM     12  O   UNL     1       6.859   4.407  12.185  0.00  0.00    +0.000 OA
ATOM     13  H   UNL     1       6.948   4.080  11.276  0.00  0.00    +0.000 HD
ENDBRANCH  11  12
BRANCH  11  14
ATOM     14  C   UNL     1       4.771   3.191  12.411  0.00  0.00    +0.000 C 
BRANCH  14  15
ATOM     15  C   UNL     1       4.659   3.458  10.909  0.00  0.00    +0.000 C 
BRANCH  15  16
ATOM     16  C   UNL     1       3.396   4.270  10.596  0.00  0.00    +0.000 C 
BRANCH  16  18
ATOM     17  C   UNL     1       2.093   5.118   8.623  0.00  0.00    +0.000 C 
ATOM     18  C   UNL     1       2.868   3.945   9.206  0.00  0.00    +0.000 C 
ENDBRANCH  16  18
ENDBRANCH  15  16
ENDBRANCH  14  15
ENDBRANCH  11  14
ENDBRANCH   9  11
ENDBRANCH   1  10
BRANCH   2  19
ATOM     19  O   UNL     1       8.040   4.374  16.507  0.00  0.00    +0.000 OA
ATOM     20  H   UNL     1       7.751   4.141  15.610  0.00  0.00    +0.000 HD
ENDBRANCH   2  19
BRANCH   6  21
ATOM     21  S   UNL     1       2.793   2.411  18.665  0.00  0.00    +0.000 S 
BRANCH  21  22
ATOM     22  C   UNL     1       1.214   3.288  18.941  0.00  0.00    +0.000 C 
BRANCH  22  23
ATOM     23  C   UNL     1       1.033   3.585  20.438  0.00  0.00    +0.000 C 
BRANCH  23  24
ATOM     24  C   UNL     1       1.983   4.667  20.964  0.00  0.00    +0.000 C 
BRANCH  24  25
ATOM     25  C   UNL     1       1.754   6.026  20.343  0.00  0.00    +0.000 C 
ATOM     26  O   UNL     1       2.027   6.324  19.190  0.00  0.00    +0.000 OA
BRANCH  25  27
ATOM     27  O   UNL     1       1.166   6.854  21.252  0.00  0.00    +0.000 OA
ATOM     28  C   UNL     1       1.399   8.244  21.016  0.00  0.00    +0.000 C 
ENDBRANCH  25  27
ENDBRANCH  24  25
ENDBRANCH  23  24
ENDBRANCH  22  23
ENDBRANCH  21  22
ENDBRANCH   6  21
TORSDOF 14
ENDMDL
MODEL 7
REMARK VINA RESULT:      -6.4      2.705      3.847
REMARK  Name = 
REMARK  16 active torsions:
REMARK  status: ('A' for Active; 'I' for Inactive)
REMARK    1  A    between atoms: C_1  and  C_2
REMARK    2  A    between atoms: C_2  and  C_3
REMARK    3  A    between atoms: C_3  and  C_4
REMARK    4  A    between atoms: C_4  and  C_5
REMARK    5  A    between atoms: C_5  and  C_6
REMARK    6  A    between atoms: C_6  and  O_7
REMARK    7  A    between atoms: C_6  and  C_8
REMARK    8  A    between atoms: C_9  and  C_10
REMARK    9  A    between atoms: C_11  and  O_12
REMARK   10  A    between atoms: C_16  and  S_17
REMARK   11  A    between atoms: S_17  and  C_18
REMARK   12  A    between atoms: C_18  and  C_19
REMARK   13  A    between atoms: C_19  and  C_20
REMARK   14  A    between atoms: C_20  and  C_21
REMARK   15  A    between atoms: C_21  and  O_23
REMARK   16  A    between atoms: O_23  and  C_24
REMARK                            x       y       z     vdW  Elec       q    Type
REMARK                         _______ _______ _______ _____ _____    ______ ____
ROOT
ATOM      1  C   UNL     1       4.173   3.333  18.215  0.00  0.00    +0.000 C 
ATOM      2  C   UNL     1       3.022   2.308  18.138  0.00  0.00    +0.000 C 
ATOM      3  C   UNL     1       2.215   2.412  19.426  0.00  0.00    +0.000 C 
ATOM      4  C   UNL     1       2.845   3.502  20.284  0.00  0.00    +0.000 C 
ATOM      5  N   UNL     1       1.859   4.549  20.628  0.00  0.00    +0.000 NA
ATOM      6  C   UNL     1       2.397   5.673  20.289  0.00  0.00    +0.000 C 
ATOM      7  C   UNL     1       3.693   5.640  19.548  0.00  0.00    +0.000 C 
ATOM      8  C   UNL     1       3.994   4.153  19.514  0.00  0.00    +0.000 C 
ENDROOT
BRANCH   1  10
ATOM      9  C   UNL     1       5.820   4.074  16.411  0.00  0.00    +0.000 C 
ATOM     10  C   UNL     1       4.578   3.963  16.907  0.00  0.00    +0.000 C 
BRANCH   9  11
ATOM     11  C   UNL     1       6.163   4.783  15.130  0.00  0.00    +0.000 C 
BRANCH  11  12
ATOM     12  O   UNL     1       5.774   6.146  15.268  0.00  0.00    +0.000 OA
ATOM     13  H   UNL     1       6.499   6.619  15.708  0.00  0.00    +0.000 HD
ENDBRANCH  11  12
BRANCH  11  14
ATOM     14  C   UNL     1       5.416   4.132  13.961  0.00  0.00    +0.000 C 
BRANCH  14  15
ATOM     15  C   UNL     1       6.353   3.678  12.842  0.00  0.00    +0.000 C 
BRANCH  15  16
ATOM     16  C   UNL     1       5.563   2.988  11.722  0.00  0.00    +0.000 C 
BRANCH  16  18
ATOM     17  C   UNL     1       3.479   3.359  10.370  0.00  0.00    +0.000 C 
ATOM     18  C   UNL     1       4.095   3.388  11.761  0.00  0.00    +0.000 C 
ENDBRANCH  16  18
ENDBRANCH  15  16
ENDBRANCH  14  15
ENDBRANCH  11  14
ENDBRANCH   9  11
ENDBRANCH   1  10
BRANCH   2  19
ATOM     19  O   UNL     1       2.171   2.461  17.009  0.00  0.00    +0.000 OA
ATOM     20  H   UNL     1       1.404   2.991  17.279  0.00  0.00    +0.000 HD
ENDBRANCH   2  19
BRANCH   6  21
ATOM     21  S   UNL     1       1.683   7.222  20.632  0.00  0.00    +0.000 S 
BRANCH  21  22
ATOM     22  C   UNL     1       1.993   8.113  19.067  0.00  0.00    +0.000 C 
BRANCH  22  23
ATOM     23  C   UNL     1       1.291   9.480  19.093  0.00  0.00    +0.000 C 
BRANCH  23  24
ATOM     24  C   UNL     1       0.372   9.717  17.889  0.00  0.00    +0.000 C 
BRANCH  24  25
ATOM     25  C   UNL     1      -0.853  10.539  18.218  0.00  0.00    +0.000 C 
ATOM     26  O   UNL     1      -0.838  11.706  18.578  0.00  0.00    +0.000 OA
BRANCH  25  27
ATOM     27  O   UNL     1      -1.975   9.791  18.018  0.00  0.00    +0.000 OA
ATOM     28  C   UNL     1      -2.616  10.020  16.761  0.00  0.00    +0.000 C 
ENDBRANCH  25  27
ENDBRANCH  24  25
ENDBRANCH  23  24
ENDBRANCH  22  23
ENDBRANCH  21  22
ENDBRANCH   6  21
TORSDOF 14
ENDMDL
MODEL 8
REMARK VINA RESULT:      -6.4      3.164      5.583
REMARK  Name = 
REMARK  16 active torsions:
REMARK  status: ('A' for Active; 'I' for Inactive)
REMARK    1  A    between atoms: C_1  and  C_2
REMARK    2  A    between atoms: C_2  and  C_3
REMARK    3  A    between atoms: C_3  and  C_4
REMARK    4  A    between atoms: C_4  and  C_5
REMARK    5  A    between atoms: C_5  and  C_6
REMARK    6  A    between atoms: C_6  and  O_7
REMARK    7  A    between atoms: C_6  and  C_8
REMARK    8  A    between atoms: C_9  and  C_10
REMARK    9  A    between atoms: C_11  and  O_12
REMARK   10  A    between atoms: C_16  and  S_17
REMARK   11  A    between atoms: S_17  and  C_18
REMARK   12  A    between atoms: C_18  and  C_19
REMARK   13  A    between atoms: C_19  and  C_20
REMARK   14  A    between atoms: C_20  and  C_21
REMARK   15  A    between atoms: C_21  and  O_23
REMARK   16  A    between atoms: O_23  and  C_24
REMARK                            x       y       z     vdW  Elec       q    Type
REMARK                         _______ _______ _______ _____ _____    ______ ____
ROOT
ATOM      1  C   UNL     1       3.289   3.913  18.762  0.00  0.00    +0.000 C 
ATOM      2  C   UNL     1       2.019   3.059  18.966  0.00  0.00    +0.000 C 
ATOM      3  C   UNL     1       1.310   3.565  20.216  0.00  0.00    +0.000 C 
ATOM      4  C   UNL     1       2.118   4.732  20.770  0.00  0.00    +0.000 C 
ATOM      5  N   UNL     1       1.289   5.950  20.885  0.00  0.00    +0.000 NA
ATOM      6  C   UNL     1       1.938   6.884  20.272  0.00  0.00    +0.000 C 
ATOM      7  C   UNL     1       3.173   6.509  19.521  0.00  0.00    +0.000 C 
ATOM      8  C   UNL     1       3.289   5.028  19.833  0.00  0.00    +0.000 C 
ENDROOT
BRANCH   1  10
ATOM      9  C   UNL     1       4.831   3.796  16.732  0.00  0.00    +0.000 C 
ATOM     10  C   UNL     1       3.687   4.163  17.330  0.00  0.00    +0.000 C 
BRANCH   9  11
ATOM     11  C   UNL     1       5.197   4.143  15.316  0.00  0.00    +0.000 C 
BRANCH  11  12
ATOM     12  O   UNL     1       6.181   3.210  14.880  0.00  0.00    +0.000 OA
ATOM     13  H   UNL     1       5.809   2.319  14.977  0.00  0.00    +0.000 HD
ENDBRANCH  11  12
BRANCH  11  14
ATOM     14  C   UNL     1       5.755   5.569  15.258  0.00  0.00    +0.000 C 
BRANCH  14  15
ATOM     15  C   UNL     1       6.992   5.755  16.137  0.00  0.00    +0.000 C 
BRANCH  15  16
ATOM     16  C   UNL     1       6.715   6.766  17.257  0.00  0.00    +0.000 C 
BRANCH  16  18
ATOM     17  C   UNL     1       7.113   5.523  19.404  0.00  0.00    +0.000 C 
ATOM     18  C   UNL     1       7.663   6.555  18.430  0.00  0.00    +0.000 C 
ENDBRANCH  16  18
ENDBRANCH  15  16
ENDBRANCH  14  15
ENDBRANCH  11  14
ENDBRANCH   9  11
ENDBRANCH   1  10
BRANCH   2  19
ATOM     19  O   UNL     1       1.126   3.057  17.860  0.00  0.00    +0.000 OA
ATOM     20  H   UNL     1       0.246   2.805  18.181  0.00  0.00    +0.000 HD
ENDBRANCH   2  19
BRANCH   6  21
ATOM     21  S   UNL     1       1.439   8.551  20.258  0.00  0.00    +0.000 S 
BRANCH  21  22
ATOM     22  C   UNL     1       1.226   8.875  22.044  0.00  0.00    +0.000 C 
BRANCH  22  23
ATOM     23  C   UNL     1      -0.264   9.062  22.370  0.00  0.00    +0.000 C 
BRANCH  23  24
ATOM     24  C   UNL     1      -0.614  10.481  22.833  0.00  0.00    +0.000 C 
BRANCH  24  25
ATOM     25  C   UNL     1      -0.583  11.503  21.720  0.00  0.00    +0.000 C 
ATOM     26  O   UNL     1      -1.389  11.568  20.805  0.00  0.00    +0.000 OA
BRANCH  25  27
ATOM     27  O   UNL     1       0.459  12.361  21.913  0.00  0.00    +0.000 OA
ATOM     28  C   UNL     1       0.106  13.743  21.824  0.00  0.00    +0.000 C 
ENDBRANCH  25  27
ENDBRANCH  24  25
ENDBRANCH  23  24
ENDBRANCH  22  23
ENDBRANCH  21  22
ENDBRANCH   6  21
TORSDOF 14
ENDMDL
MODEL 9
REMARK VINA RESULT:      -6.4      1.457      2.103
REMARK  Name = 
REMARK  16 active torsions:
REMARK  status: ('A' for Active; 'I' for Inactive)
REMARK    1  A    between atoms: C_1  and  C_2
REMARK    2  A    between atoms: C_2  and  C_3
REMARK    3  A    between atoms: C_3  and  C_4
REMARK    4  A    between atoms: C_4  and  C_5
REMARK    5  A    between atoms: C_5  and  C_6
REMARK    6  A    between atoms: C_6  and  O_7
REMARK    7  A    between atoms: C_6  and  C_8
REMARK    8  A    between atoms: C_9  and  C_10
REMARK    9  A    between atoms: C_11  and  O_12
REMARK   10  A    between atoms: C_16  and  S_17
REMARK   11  A    between atoms: S_17  and  C_18
REMARK   12  A    between atoms: C_18  and  C_19
REMARK   13  A    between atoms: C_19  and  C_20
REMARK   14  A    between atoms: C_20  and  C_21
REMARK   15  A    between atoms: C_21  and  O_23
REMARK   16  A    between atoms: O_23  and  C_24
REMARK                            x       y       z     vdW  Elec       q    Type
REMARK                         _______ _______ _______ _____ _____    ______ ____
ROOT
ATOM      1  C   UNL     1       6.213   5.338  16.686  0.00  0.00    +0.000 C 
ATOM      2  C   UNL     1       7.274   5.367  17.806  0.00  0.00    +0.000 C 
ATOM      3  C   UNL     1       6.561   5.136  19.133  0.00  0.00    +0.000 C 
ATOM      4  C   UNL     1       5.079   4.947  18.839  0.00  0.00    +0.000 C 
ATOM      5  N   UNL     1       4.589   3.656  19.368  0.00  0.00    +0.000 NA
ATOM      6  C   UNL     1       4.002   3.065  18.381  0.00  0.00    +0.000 C 
ATOM      7  C   UNL     1       4.093   3.690  17.028  0.00  0.00    +0.000 C 
ATOM      8  C   UNL     1       4.855   4.968  17.327  0.00  0.00    +0.000 C 
ENDROOT
BRANCH   1  10
ATOM      9  C   UNL     1       7.284   5.429  14.372  0.00  0.00    +0.000 C 
ATOM     10  C   UNL     1       6.669   4.772  15.366  0.00  0.00    +0.000 C 
BRANCH   9  11
ATOM     11  C   UNL     1       7.646   4.819  13.046  0.00  0.00    +0.000 C 
BRANCH  11  12
ATOM     12  O   UNL     1       8.518   5.723  12.374  0.00  0.00    +0.000 OA
ATOM     13  H   UNL     1       8.048   6.565  12.267  0.00  0.00    +0.000 HD
ENDBRANCH  11  12
BRANCH  11  14
ATOM     14  C   UNL     1       6.379   4.588  12.217  0.00  0.00    +0.000 C 
BRANCH  14  15
ATOM     15  C   UNL     1       5.693   3.261  12.544  0.00  0.00    +0.000 C 
BRANCH  15  16
ATOM     16  C   UNL     1       5.084   2.640  11.280  0.00  0.00    +0.000 C 
BRANCH  16  18
ATOM     17  C   UNL     1       3.357   3.975  10.038  0.00  0.00    +0.000 C 
ATOM     18  C   UNL     1       3.605   2.980  11.163  0.00  0.00    +0.000 C 
ENDBRANCH  16  18
ENDBRANCH  15  16
ENDBRANCH  14  15
ENDBRANCH  11  14
ENDBRANCH   9  11
ENDBRANCH   1  10
BRANCH   2  19
ATOM     19  O   UNL     1       8.329   4.427  17.643  0.00  0.00    +0.000 OA
ATOM     20  H   UNL     1       8.320   3.827  18.406  0.00  0.00    +0.000 HD
ENDBRANCH   2  19
BRANCH   6  21
ATOM     21  S   UNL     1       3.127   1.568  18.541  0.00  0.00    +0.000 S 
BRANCH  21  22
ATOM     22  C   UNL     1       1.408   2.130  18.274  0.00  0.00    +0.000 C 
BRANCH  22  23
ATOM     23  C   UNL     1       1.279   3.618  18.638  0.00  0.00    +0.000 C 
BRANCH  23  24
ATOM     24  C   UNL     1       0.766   3.856  20.062  0.00  0.00    +0.000 C 
BRANCH  24  25
ATOM     25  C   UNL     1       1.624   4.808  20.862  0.00  0.00    +0.000 C 
ATOM     26  O   UNL     1       1.594   6.026  20.769  0.00  0.00    +0.000 OA
BRANCH  25  27
ATOM     27  O   UNL     1       2.410   4.104  21.726  0.00  0.00    +0.000 OA
ATOM     28  C   UNL     1       1.966   2.767  21.966  0.00  0.00    +0.000 C 
ENDBRANCH  25  27
ENDBRANCH  24  25
ENDBRANCH  23  24
ENDBRANCH  22  23
ENDBRANCH  21  22
ENDBRANCH   6  21
TORSDOF 14
ENDMDL
