MODEL 1
REMARK VINA RESULT:      -7.4      0.000      0.000
REMARK  Name = 
REMARK  5 active torsions:
REMARK  status: ('A' for Active; 'I' for Inactive)
REMARK    1  A    between atoms: C_2  and  C_5
REMARK    2  A    between atoms: N_3  and  O_4
REMARK    3  A    between atoms: C_9  and  O_10
REMARK    4  A    between atoms: O_10  and  C_11
REMARK    5  A    between atoms: C_11  and  C_12
REMARK                            x       y       z     vdW  Elec       q    Type
REMARK                         _______ _______ _______ _____ _____    ______ ____
ROOT
ATOM      1  C   UNL     1       6.573   5.075  15.801  0.00  0.00    +0.000 A 
ATOM      2  C   UNL     1       7.339   4.513  16.831  0.00  0.00    +0.000 A 
ATOM      3  C   UNL     1       7.098   4.880  18.153  0.00  0.00    +0.000 A 
ATOM      4  C   UNL     1       6.114   5.823  18.447  0.00  0.00    +0.000 A 
ATOM      5  C   UNL     1       5.388   6.434  17.419  0.00  0.00    +0.000 A 
ATOM      6  C   UNL     1       5.607   6.045  16.092  0.00  0.00    +0.000 A 
ENDROOT
BRANCH   1   8
ATOM      7  O   UNL     1       7.406   5.395  13.602  0.00  0.00    +0.000 OA
ATOM      8  C   UNL     1       6.801   4.675  14.388  0.00  0.00    +0.000 C 
ATOM      9  N   UNL     1       6.255   3.466  14.017  0.00  0.00    +0.000 N 
ATOM     10  H   UNL     1       5.480   3.046  14.517  0.00  0.00    +0.000 HD
BRANCH   9  11
ATOM     11  O   UNL     1       6.354   3.149  12.642  0.00  0.00    +0.000 OA
ATOM     12  H   UNL     1       6.606   4.014  12.248  0.00  0.00    +0.000 HD
ENDBRANCH   9  11
ENDBRANCH   1   8
BRANCH   5  13
ATOM     13  O   UNL     1       4.450   7.415  17.603  0.00  0.00    +0.000 OA
BRANCH  13  14
ATOM     14  C   UNL     1       3.098   7.022  17.351  0.00  0.00    +0.000 C 
BRANCH  14  15
ATOM     15  C   UNL     1       2.681   5.967  18.343  0.00  0.00    +0.000 A 
ATOM     16  C   UNL     1       2.435   4.650  17.930  0.00  0.00    +0.000 A 
ATOM     17  C   UNL     1       2.060   3.676  18.857  0.00  0.00    +0.000 A 
ATOM     18  C   UNL     1       1.927   4.016  20.202  0.00  0.00    +0.000 A 
ATOM     19 BR   UNL     1       1.408   2.700  21.457  0.00  0.00    +0.000 Br
ATOM     20  C   UNL     1       2.171   5.318  20.630  0.00  0.00    +0.000 A 
ATOM     21  C   UNL     1       2.545   6.291  19.703  0.00  0.00    +0.000 A 
ENDBRANCH  14  15
ENDBRANCH  13  14
ENDBRANCH   5  13
TORSDOF 5
ENDMDL
MODEL 2
REMARK VINA RESULT:      -7.4      0.039      1.110
REMARK  Name = 
REMARK  5 active torsions:
REMARK  status: ('A' for Active; 'I' for Inactive)
REMARK    1  A    between atoms: C_2  and  C_5
REMARK    2  A    between atoms: N_3  and  O_4
REMARK    3  A    between atoms: C_9  and  O_10
REMARK    4  A    between atoms: O_10  and  C_11
REMARK    5  A    between atoms: C_11  and  C_12
REMARK                            x       y       z     vdW  Elec       q    Type
REMARK                         _______ _______ _______ _____ _____    ______ ____
ROOT
ATOM      1  C   UNL     1       6.591   5.087  15.823  0.00  0.00    +0.000 A 
ATOM      2  C   UNL     1       7.343   4.532  16.866  0.00  0.00    +0.000 A 
ATOM      3  C   UNL     1       7.088   4.909  18.182  0.00  0.00    +0.000 A 
ATOM      4  C   UNL     1       6.103   5.857  18.457  0.00  0.00    +0.000 A 
ATOM      5  C   UNL     1       5.391   6.461  17.416  0.00  0.00    +0.000 A 
ATOM      6  C   UNL     1       5.624   6.062  16.096  0.00  0.00    +0.000 A 
ENDROOT
BRANCH   1   8
ATOM      7  O   UNL     1       7.483   5.371  13.642  0.00  0.00    +0.000 OA
ATOM      8  C   UNL     1       6.834   4.676  14.416  0.00  0.00    +0.000 C 
ATOM      9  N   UNL     1       6.249   3.488  14.034  0.00  0.00    +0.000 N 
ATOM     10  H   UNL     1       5.448   3.099  14.518  0.00  0.00    +0.000 HD
BRANCH   9  11
ATOM     11  O   UNL     1       6.366   3.165  12.662  0.00  0.00    +0.000 OA
ATOM     12  H   UNL     1       7.051   2.459  12.674  0.00  0.00    +0.000 HD
ENDBRANCH   9  11
ENDBRANCH   1   8
BRANCH   5  13
ATOM     13  O   UNL     1       4.452   7.446  17.583  0.00  0.00    +0.000 OA
BRANCH  13  14
ATOM     14  C   UNL     1       3.100   7.047  17.341  0.00  0.00    +0.000 C 
BRANCH  14  15
ATOM     15  C   UNL     1       2.693   5.997  18.342  0.00  0.00    +0.000 A 
ATOM     16  C   UNL     1       2.569   6.311  19.702  0.00  0.00    +0.000 A 
ATOM     17  C   UNL     1       2.181   5.335  20.622  0.00  0.00    +0.000 A 
ATOM     18  C   UNL     1       1.917   4.038  20.183  0.00  0.00    +0.000 A 
ATOM     19 BR   UNL     1       1.401   2.712  21.429  0.00  0.00    +0.000 Br
ATOM     20  C   UNL     1       2.031   3.710  18.835  0.00  0.00    +0.000 A 
ATOM     21  C   UNL     1       2.420   4.686  17.918  0.00  0.00    +0.000 A 
ENDBRANCH  14  15
ENDBRANCH  13  14
ENDBRANCH   5  13
TORSDOF 5
ENDMDL
MODEL 3
REMARK VINA RESULT:      -7.3      2.081      2.607
REMARK  Name = 
REMARK  5 active torsions:
REMARK  status: ('A' for Active; 'I' for Inactive)
REMARK    1  A    between atoms: C_2  and  C_5
REMARK    2  A    between atoms: N_3  and  O_4
REMARK    3  A    between atoms: C_9  and  O_10
REMARK    4  A    between atoms: O_10  and  C_11
REMARK    5  A    between atoms: C_11  and  C_12
REMARK                            x       y       z     vdW  Elec       q    Type
REMARK                         _______ _______ _______ _____ _____    ______ ____
ROOT
ATOM      1  C   UNL     1       6.414   4.594  15.992  0.00  0.00    +0.000 A 
ATOM      2  C   UNL     1       7.283   5.163  16.933  0.00  0.00    +0.000 A 
ATOM      3  C   UNL     1       6.990   5.072  18.291  0.00  0.00    +0.000 A 
ATOM      4  C   UNL     1       5.823   4.436  18.712  0.00  0.00    +0.000 A 
ATOM      5  C   UNL     1       4.920   3.921  17.776  0.00  0.00    +0.000 A 
ATOM      6  C   UNL     1       5.226   3.984  16.412  0.00  0.00    +0.000 A 
ENDROOT
BRANCH   1   8
ATOM      7  O   UNL     1       6.125   3.978  13.719  0.00  0.00    +0.000 OA
ATOM      8  C   UNL     1       6.725   4.661  14.541  0.00  0.00    +0.000 C 
ATOM      9  N   UNL     1       7.754   5.507  14.192  0.00  0.00    +0.000 N 
ATOM     10  H   UNL     1       8.471   5.790  14.852  0.00  0.00    +0.000 HD
BRANCH   9  11
ATOM     11  O   UNL     1       8.140   5.470  12.832  0.00  0.00    +0.000 OA
ATOM     12  H   UNL     1       7.272   5.409  12.373  0.00  0.00    +0.000 HD
ENDBRANCH   9  11
ENDBRANCH   1   8
BRANCH   5  13
ATOM     13  O   UNL     1       3.720   3.339  18.090  0.00  0.00    +0.000 OA
BRANCH  13  14
ATOM     14  C   UNL     1       2.562   4.056  17.654  0.00  0.00    +0.000 C 
BRANCH  14  15
ATOM     15  C   UNL     1       2.280   5.193  18.602  0.00  0.00    +0.000 A 
ATOM     16  C   UNL     1       2.455   6.524  18.199  0.00  0.00    +0.000 A 
ATOM     17  C   UNL     1       2.182   7.572  19.081  0.00  0.00    +0.000 A 
ATOM     18  C   UNL     1       1.733   7.291  20.371  0.00  0.00    +0.000 A 
ATOM     19 BR   UNL     1       1.373   8.709  21.569  0.00  0.00    +0.000 Br
ATOM     20  C   UNL     1       1.551   5.975  20.786  0.00  0.00    +0.000 A 
ATOM     21  C   UNL     1       1.826   4.929  19.904  0.00  0.00    +0.000 A 
ENDBRANCH  14  15
ENDBRANCH  13  14
ENDBRANCH   5  13
TORSDOF 5
ENDMDL
MODEL 4
REMARK VINA RESULT:      -7.2      2.083      2.624
REMARK  Name = 
REMARK  5 active torsions:
REMARK  status: ('A' for Active; 'I' for Inactive)
REMARK    1  A    between atoms: C_2  and  C_5
REMARK    2  A    between atoms: N_3  and  O_4
REMARK    3  A    between atoms: C_9  and  O_10
REMARK    4  A    between atoms: O_10  and  C_11
REMARK    5  A    between atoms: C_11  and  C_12
REMARK                            x       y       z     vdW  Elec       q    Type
REMARK                         _______ _______ _______ _____ _____    ______ ____
ROOT
ATOM      1  C   UNL     1       6.471   4.652  16.052  0.00  0.00    +0.000 A 
ATOM      2  C   UNL     1       7.340   5.224  16.989  0.00  0.00    +0.000 A 
ATOM      3  C   UNL     1       7.053   5.129  18.349  0.00  0.00    +0.000 A 
ATOM      4  C   UNL     1       5.890   4.488  18.773  0.00  0.00    +0.000 A 
ATOM      5  C   UNL     1       4.987   3.969  17.840  0.00  0.00    +0.000 A 
ATOM      6  C   UNL     1       5.287   4.036  16.475  0.00  0.00    +0.000 A 
ENDROOT
BRANCH   1   8
ATOM      7  O   UNL     1       6.158   4.057  13.776  0.00  0.00    +0.000 OA
ATOM      8  C   UNL     1       6.775   4.723  14.599  0.00  0.00    +0.000 C 
ATOM      9  N   UNL     1       7.819   5.552  14.250  0.00  0.00    +0.000 N 
ATOM     10  H   UNL     1       8.544   5.816  14.908  0.00  0.00    +0.000 HD
BRANCH   9  11
ATOM     11  O   UNL     1       8.196   5.516  12.888  0.00  0.00    +0.000 OA
ATOM     12  H   UNL     1       8.214   6.471  12.653  0.00  0.00    +0.000 HD
ENDBRANCH   9  11
ENDBRANCH   1   8
BRANCH   5  13
ATOM     13  O   UNL     1       3.790   3.382  18.158  0.00  0.00    +0.000 OA
BRANCH  13  14
ATOM     14  C   UNL     1       2.628   4.075  17.695  0.00  0.00    +0.000 C 
BRANCH  14  15
ATOM     15  C   UNL     1       2.300   5.206  18.636  0.00  0.00    +0.000 A 
ATOM     16  C   UNL     1       1.823   4.947  19.929  0.00  0.00    +0.000 A 
ATOM     17  C   UNL     1       1.531   6.000  20.799  0.00  0.00    +0.000 A 
ATOM     18  C   UNL     1       1.716   7.316  20.378  0.00  0.00    +0.000 A 
ATOM     19 BR   UNL     1       1.312   8.743  21.552  0.00  0.00    +0.000 Br
ATOM     20  C   UNL     1       2.192   7.590  19.099  0.00  0.00    +0.000 A 
ATOM     21  C   UNL     1       2.482   6.537  18.230  0.00  0.00    +0.000 A 
ENDBRANCH  14  15
ENDBRANCH  13  14
ENDBRANCH   5  13
TORSDOF 5
ENDMDL
MODEL 5
REMARK VINA RESULT:      -7.1      1.909      2.373
REMARK  Name = 
REMARK  5 active torsions:
REMARK  status: ('A' for Active; 'I' for Inactive)
REMARK    1  A    between atoms: C_2  and  C_5
REMARK    2  A    between atoms: N_3  and  O_4
REMARK    3  A    between atoms: C_9  and  O_10
REMARK    4  A    between atoms: O_10  and  C_11
REMARK    5  A    between atoms: C_11  and  C_12
REMARK                            x       y       z     vdW  Elec       q    Type
REMARK                         _______ _______ _______ _____ _____    ______ ____
ROOT
ATOM      1  C   UNL     1       6.539   4.782  15.757  0.00  0.00    +0.000 A 
ATOM      2  C   UNL     1       7.285   5.674  16.537  0.00  0.00    +0.000 A 
ATOM      3  C   UNL     1       6.979   5.840  17.885  0.00  0.00    +0.000 A 
ATOM      4  C   UNL     1       5.916   5.138  18.450  0.00  0.00    +0.000 A 
ATOM      5  C   UNL     1       5.127   4.292  17.663  0.00  0.00    +0.000 A 
ATOM      6  C   UNL     1       5.451   4.100  16.316  0.00  0.00    +0.000 A 
ENDROOT
BRANCH   1   8
ATOM      7  O   UNL     1       7.540   5.384  13.691  0.00  0.00    +0.000 OA
ATOM      8  C   UNL     1       6.869   4.576  14.323  0.00  0.00    +0.000 C 
ATOM      9  N   UNL     1       6.339   3.441  13.748  0.00  0.00    +0.000 N 
ATOM     10  H   UNL     1       5.524   2.973  14.127  0.00  0.00    +0.000 HD
BRANCH   9  11
ATOM     11  O   UNL     1       6.539   3.314  12.354  0.00  0.00    +0.000 OA
ATOM     12  H   UNL     1       7.502   3.121  12.300  0.00  0.00    +0.000 HD
ENDBRANCH   9  11
ENDBRANCH   1   8
BRANCH   5  13
ATOM     13  O   UNL     1       4.026   3.612  18.112  0.00  0.00    +0.000 OA
BRANCH  13  14
ATOM     14  C   UNL     1       2.766   4.169  17.727  0.00  0.00    +0.000 C 
BRANCH  14  15
ATOM     15  C   UNL     1       2.399   5.293  18.661  0.00  0.00    +0.000 A 
ATOM     16  C   UNL     1       2.508   6.629  18.253  0.00  0.00    +0.000 A 
ATOM     17  C   UNL     1       2.157   7.665  19.121  0.00  0.00    +0.000 A 
ATOM     18  C   UNL     1       1.696   7.367  20.403  0.00  0.00    +0.000 A 
ATOM     19 BR   UNL     1       1.230   8.769  21.583  0.00  0.00    +0.000 Br
ATOM     20  C   UNL     1       1.579   6.045  20.823  0.00  0.00    +0.000 A 
ATOM     21  C   UNL     1       1.932   5.011  19.955  0.00  0.00    +0.000 A 
ENDBRANCH  14  15
ENDBRANCH  13  14
ENDBRANCH   5  13
TORSDOF 5
ENDMDL
MODEL 6
REMARK VINA RESULT:      -7.1      2.573      3.269
REMARK  Name = 
REMARK  5 active torsions:
REMARK  status: ('A' for Active; 'I' for Inactive)
REMARK    1  A    between atoms: C_2  and  C_5
REMARK    2  A    between atoms: N_3  and  O_4
REMARK    3  A    between atoms: C_9  and  O_10
REMARK    4  A    between atoms: O_10  and  C_11
REMARK    5  A    between atoms: C_11  and  C_12
REMARK                            x       y       z     vdW  Elec       q    Type
REMARK                         _______ _______ _______ _____ _____    ______ ____
ROOT
ATOM      1  C   UNL     1       6.530   4.895  16.535  0.00  0.00    +0.000 A 
ATOM      2  C   UNL     1       7.481   5.284  17.486  0.00  0.00    +0.000 A 
ATOM      3  C   UNL     1       7.092   5.509  18.804  0.00  0.00    +0.000 A 
ATOM      4  C   UNL     1       5.754   5.371  19.170  0.00  0.00    +0.000 A 
ATOM      5  C   UNL     1       4.788   5.044  18.212  0.00  0.00    +0.000 A 
ATOM      6  C   UNL     1       5.181   4.788  16.894  0.00  0.00    +0.000 A 
ENDROOT
BRANCH   1   8
ATOM      7  O   UNL     1       7.783   5.303  14.562  0.00  0.00    +0.000 OA
ATOM      8  C   UNL     1       6.933   4.627  15.130  0.00  0.00    +0.000 C 
ATOM      9  N   UNL     1       6.262   3.600  14.504  0.00  0.00    +0.000 N 
ATOM     10  H   UNL     1       5.349   3.282  14.812  0.00  0.00    +0.000 HD
BRANCH   9  11
ATOM     11  O   UNL     1       6.548   3.433  13.129  0.00  0.00    +0.000 OA
ATOM     12  H   UNL     1       5.956   4.099  12.712  0.00  0.00    +0.000 HD
ENDBRANCH   9  11
ENDBRANCH   1   8
BRANCH   5  13
ATOM     13  O   UNL     1       3.444   4.950  18.461  0.00  0.00    +0.000 OA
BRANCH  13  14
ATOM     14  C   UNL     1       3.018   5.482  19.718  0.00  0.00    +0.000 C 
BRANCH  14  15
ATOM     15  C   UNL     1       2.393   6.838  19.512  0.00  0.00    +0.000 A 
ATOM     16  C   UNL     1       1.752   7.501  20.567  0.00  0.00    +0.000 A 
ATOM     17  C   UNL     1       1.184   8.761  20.370  0.00  0.00    +0.000 A 
ATOM     18  C   UNL     1       1.256   9.363  19.115  0.00  0.00    +0.000 A 
ATOM     19 BR   UNL     1       0.479  11.066  18.844  0.00  0.00    +0.000 Br
ATOM     20  C   UNL     1       1.892   8.720  18.057  0.00  0.00    +0.000 A 
ATOM     21  C   UNL     1       2.457   7.460  18.255  0.00  0.00    +0.000 A 
ENDBRANCH  14  15
ENDBRANCH  13  14
ENDBRANCH   5  13
TORSDOF 5
ENDMDL
MODEL 7
REMARK VINA RESULT:      -7.1      2.102      3.575
REMARK  Name = 
REMARK  5 active torsions:
REMARK  status: ('A' for Active; 'I' for Inactive)
REMARK    1  A    between atoms: C_2  and  C_5
REMARK    2  A    between atoms: N_3  and  O_4
REMARK    3  A    between atoms: C_9  and  O_10
REMARK    4  A    between atoms: O_10  and  C_11
REMARK    5  A    between atoms: C_11  and  C_12
REMARK                            x       y       z     vdW  Elec       q    Type
REMARK                         _______ _______ _______ _____ _____    ______ ____
ROOT
ATOM      1  C   UNL     1       6.420   3.486  12.419  0.00  0.00    +0.000 A 
ATOM      2  C   UNL     1       7.305   4.383  11.806  0.00  0.00    +0.000 A 
ATOM      3  C   UNL     1       7.909   5.385  12.560  0.00  0.00    +0.000 A 
ATOM      4  C   UNL     1       7.615   5.511  13.917  0.00  0.00    +0.000 A 
ATOM      5  C   UNL     1       6.685   4.658  14.522  0.00  0.00    +0.000 A 
ATOM      6  C   UNL     1       6.100   3.631  13.774  0.00  0.00    +0.000 A 
ENDROOT
BRANCH   1   8
ATOM      7  O   UNL     1       4.634   2.479  11.225  0.00  0.00    +0.000 OA
ATOM      8  C   UNL     1       5.787   2.396  11.633  0.00  0.00    +0.000 C 
ATOM      9  N   UNL     1       6.566   1.278  11.431  0.00  0.00    +0.000 N 
ATOM     10  H   UNL     1       7.347   1.046  12.036  0.00  0.00    +0.000 HD
BRANCH   9  11
ATOM     11  O   UNL     1       5.919   0.189  10.802  0.00  0.00    +0.000 OA
ATOM     12  H   UNL     1       6.641  -0.476  10.746  0.00  0.00    +0.000 HD
ENDBRANCH   9  11
ENDBRANCH   1   8
BRANCH   5  13
ATOM     13  O   UNL     1       6.283   4.745  15.830  0.00  0.00    +0.000 OA
BRANCH  13  14
ATOM     14  C   UNL     1       5.364   5.802  16.116  0.00  0.00    +0.000 C 
BRANCH  14  15
ATOM     15  C   UNL     1       4.314   5.315  17.082  0.00  0.00    +0.000 A 
ATOM     16  C   UNL     1       3.509   6.223  17.783  0.00  0.00    +0.000 A 
ATOM     17  C   UNL     1       2.532   5.764  18.669  0.00  0.00    +0.000 A 
ATOM     18  C   UNL     1       2.358   4.394  18.858  0.00  0.00    +0.000 A 
ATOM     19 BR   UNL     1       1.043   3.771  20.066  0.00  0.00    +0.000 Br
ATOM     20  C   UNL     1       3.148   3.479  18.168  0.00  0.00    +0.000 A 
ATOM     21  C   UNL     1       4.124   3.939  17.284  0.00  0.00    +0.000 A 
ENDBRANCH  14  15
ENDBRANCH  13  14
ENDBRANCH   5  13
TORSDOF 5
ENDMDL
MODEL 8
REMARK VINA RESULT:      -7.0      3.522      4.436
REMARK  Name = 
REMARK  5 active torsions:
REMARK  status: ('A' for Active; 'I' for Inactive)
REMARK    1  A    between atoms: C_2  and  C_5
REMARK    2  A    between atoms: N_3  and  O_4
REMARK    3  A    between atoms: C_9  and  O_10
REMARK    4  A    between atoms: O_10  and  C_11
REMARK    5  A    between atoms: C_11  and  C_12
REMARK                            x       y       z     vdW  Elec       q    Type
REMARK                         _______ _______ _______ _____ _____    ______ ____
ROOT
ATOM      1  C   UNL     1       4.553   4.364  17.511  0.00  0.00    +0.000 A 
ATOM      2  C   UNL     1       5.159   4.299  16.250  0.00  0.00    +0.000 A 
ATOM      3  C   UNL     1       5.377   5.467  15.524  0.00  0.00    +0.000 A 
ATOM      4  C   UNL     1       4.970   6.696  16.042  0.00  0.00    +0.000 A 
ATOM      5  C   UNL     1       4.309   6.762  17.272  0.00  0.00    +0.000 A 
ATOM      6  C   UNL     1       4.115   5.594  18.018  0.00  0.00    +0.000 A 
ENDROOT
BRANCH   1   8
ATOM      7  O   UNL     1       3.359   2.410  18.133  0.00  0.00    +0.000 OA
ATOM      8  C   UNL     1       4.336   3.129  18.309  0.00  0.00    +0.000 C 
ATOM      9  N   UNL     1       5.280   2.875  19.279  0.00  0.00    +0.000 N 
ATOM     10  H   UNL     1       5.865   3.605  19.671  0.00  0.00    +0.000 HD
BRANCH   9  11
ATOM     11  O   UNL     1       5.003   1.777  20.126  0.00  0.00    +0.000 OA
ATOM     12  H   UNL     1       4.263   2.120  20.675  0.00  0.00    +0.000 HD
ENDBRANCH   9  11
ENDBRANCH   1   8
BRANCH   5  13
ATOM     13  O   UNL     1       3.815   7.912  17.831  0.00  0.00    +0.000 OA
BRANCH  13  14
ATOM     14  C   UNL     1       2.423   8.150  17.607  0.00  0.00    +0.000 C 
BRANCH  14  15
ATOM     15  C   UNL     1       1.758   8.539  18.903  0.00  0.00    +0.000 A 
ATOM     16  C   UNL     1       1.862   7.720  20.036  0.00  0.00    +0.000 A 
ATOM     17  C   UNL     1       1.252   8.092  21.236  0.00  0.00    +0.000 A 
ATOM     18  C   UNL     1       0.534   9.285  21.306  0.00  0.00    +0.000 A 
ATOM     19 BR   UNL     1      -0.301   9.785  22.927  0.00  0.00    +0.000 Br
ATOM     20  C   UNL     1       0.423  10.111  20.190  0.00  0.00    +0.000 A 
ATOM     21  C   UNL     1       1.033   9.737  18.992  0.00  0.00    +0.000 A 
ENDBRANCH  14  15
ENDBRANCH  13  14
ENDBRANCH   5  13
TORSDOF 5
ENDMDL
MODEL 9
REMARK VINA RESULT:      -7.0      3.777      5.740
REMARK  Name = 
REMARK  5 active torsions:
REMARK  status: ('A' for Active; 'I' for Inactive)
REMARK    1  A    between atoms: C_2  and  C_5
REMARK    2  A    between atoms: N_3  and  O_4
REMARK    3  A    between atoms: C_9  and  O_10
REMARK    4  A    between atoms: O_10  and  C_11
REMARK    5  A    between atoms: C_11  and  C_12
REMARK                            x       y       z     vdW  Elec       q    Type
REMARK                         _______ _______ _______ _____ _____    ______ ____
ROOT
ATOM      1  C   UNL     1       2.905   2.896  19.764  0.00  0.00    +0.000 A 
ATOM      2  C   UNL     1       1.553   2.594  19.560  0.00  0.00    +0.000 A 
ATOM      3  C   UNL     1       0.854   3.208  18.524  0.00  0.00    +0.000 A 
ATOM      4  C   UNL     1       1.493   4.141  17.708  0.00  0.00    +0.000 A 
ATOM      5  C   UNL     1       2.825   4.494  17.945  0.00  0.00    +0.000 A 
ATOM      6  C   UNL     1       3.539   3.856  18.966  0.00  0.00    +0.000 A 
ENDROOT
BRANCH   1   8
ATOM      7  O   UNL     1       3.224   2.126  21.986  0.00  0.00    +0.000 OA
ATOM      8  C   UNL     1       3.672   2.230  20.849  0.00  0.00    +0.000 C 
ATOM      9  N   UNL     1       4.926   1.780  20.501  0.00  0.00    +0.000 N 
ATOM     10  H   UNL     1       5.438   2.159  19.712  0.00  0.00    +0.000 HD
BRANCH   9  11
ATOM     11  O   UNL     1       5.707   1.269  21.564  0.00  0.00    +0.000 OA
ATOM     12  H   UNL     1       5.348   1.758  22.338  0.00  0.00    +0.000 HD
ENDBRANCH   9  11
ENDBRANCH   1   8
BRANCH   5  13
ATOM     13  O   UNL     1       3.517   5.444  17.240  0.00  0.00    +0.000 OA
BRANCH  13  14
ATOM     14  C   UNL     1       4.075   6.501  18.026  0.00  0.00    +0.000 C 
BRANCH  14  15
ATOM     15  C   UNL     1       2.979   7.432  18.478  0.00  0.00    +0.000 A 
ATOM     16  C   UNL     1       2.417   7.312  19.756  0.00  0.00    +0.000 A 
ATOM     17  C   UNL     1       1.409   8.185  20.170  0.00  0.00    +0.000 A 
ATOM     18  C   UNL     1       0.959   9.182  19.306  0.00  0.00    +0.000 A 
ATOM     19 BR   UNL     1      -0.413  10.359  19.862  0.00  0.00    +0.000 Br
ATOM     20  C   UNL     1       1.509   9.317  18.034  0.00  0.00    +0.000 A 
ATOM     21  C   UNL     1       2.515   8.443  17.621  0.00  0.00    +0.000 A 
ENDBRANCH  14  15
ENDBRANCH  13  14
ENDBRANCH   5  13
TORSDOF 5
ENDMDL
